CHEMBL148514
 OpenBabel04072215363D

 52 55  0  0  0  0  0  0  0  0999 V2000
    1.9373   -4.2389   -3.2281 C   0  0  0  0  0  0  0  0  0  0  0  0
    3.2689   -3.9983   -2.7933 O   0  0  0  0  0  0  0  0  0  0  0  0
    3.4093   -3.3728   -1.5855 C   0  0  0  0  0  0  0  0  0  0  0  0
    2.3847   -2.8274   -0.8187 C   0  0  0  0  0  0  0  0  0  0  0  0
    2.6749   -2.2132    0.3976 C   0  0  0  0  0  0  0  0  0  0  0  0
    3.9898   -2.1545    0.8595 C   0  0  0  0  0  0  0  0  0  0  0  0
    5.0418   -2.7213    0.1242 C   0  0  0  0  0  0  0  0  0  0  0  0
    6.4284   -2.7215    0.6362 C   0  0  0  0  0  0  0  0  0  0  0  0
    7.5184   -2.6305   -0.2655 C   0  0  0  0  0  0  0  0  0  0  0  0
    8.8397   -2.6657    0.1704 C   0  0  0  0  0  0  0  0  0  0  0  0
    9.0747   -2.7638    1.5273 C   0  0  0  0  0  0  0  0  0  0  0  0
    8.0210   -2.8313    2.4330 C   0  0  0  0  0  0  0  0  0  0  0  0
    6.7044   -2.8302    2.0182 C   0  0  0  0  0  0  0  0  0  0  0  0
    8.5088   -2.8844    3.7376 N   0  0  0  0  0  0  0  0  0  0  0  0
    9.9015   -2.8484    3.7585 C   0  0  0  0  0  0  0  0  0  0  0  0
   10.6206   -2.8282    4.7403 O   0  0  0  0  0  0  0  0  0  0  0  0
   10.3128   -2.8181    2.3117 C   0  0  0  0  0  0  0  0  0  0  0  0
   11.4973   -2.8796    1.6946 C   0  0  0  0  0  0  0  0  0  0  0  0
   12.7977   -3.0279    2.2229 C   0  0  0  0  0  0  0  0  0  0  0  0
   13.0710   -2.9820    3.5627 N   0  0  0  0  0  0  0  0  0  0  0  0
   14.4119   -3.1839    3.7652 C   0  0  0  0  0  0  0  0  0  0  0  0
   15.0320   -3.3273    2.5386 C   0  0  0  0  0  0  0  0  0  0  0  0
   16.4976   -3.5164    2.2957 C   0  0  0  0  0  0  0  0  0  0  0  0
   17.0256   -4.8384    2.8417 C   0  0  0  0  0  0  0  0  0  0  0  0
   18.4863   -5.0024    2.5057 C   0  0  0  0  0  0  0  0  0  0  0  0
   19.1627   -4.2154    1.8680 O   0  0  0  0  0  0  0  0  0  0  0  0
   18.9981   -6.1588    2.9945 O   0  0  0  0  0  0  0  0  0  0  0  0
   13.9998   -3.2433    1.5515 C   0  0  0  0  0  0  0  0  0  0  0  0
   14.1501   -3.3702    0.0692 C   0  0  0  0  0  0  0  0  0  0  0  0
    4.7222   -3.3073   -1.1152 C   0  0  0  0  0  0  0  0  0  0  0  0
    1.9852   -4.8318   -4.1456 H   0  0  0  0  0  0  0  0  0  0  0  0
    1.4291   -3.2983   -3.4602 H   0  0  0  0  0  0  0  0  0  0  0  0
    1.3778   -4.8198   -2.4859 H   0  0  0  0  0  0  0  0  0  0  0  0
    1.3484   -2.8614   -1.1400 H   0  0  0  0  0  0  0  0  0  0  0  0
    1.8750   -1.7814    0.9934 H   0  0  0  0  0  0  0  0  0  0  0  0
    4.1818   -1.6529    1.8061 H   0  0  0  0  0  0  0  0  0  0  0  0
    7.3454   -2.5245   -1.3343 H   0  0  0  0  0  0  0  0  0  0  0  0
    9.6443   -2.6073   -0.5549 H   0  0  0  0  0  0  0  0  0  0  0  0
    5.9049   -2.9260    2.7460 H   0  0  0  0  0  0  0  0  0  0  0  0
    7.9478   -2.9026    4.5765 H   0  0  0  0  0  0  0  0  0  0  0  0
   11.4876   -2.8534    0.6081 H   0  0  0  0  0  0  0  0  0  0  0  0
   12.3838   -2.8360    4.2980 H   0  0  0  0  0  0  0  0  0  0  0  0
   14.8069   -3.1955    4.7731 H   0  0  0  0  0  0  0  0  0  0  0  0
   17.0427   -2.6764    2.7432 H   0  0  0  0  0  0  0  0  0  0  0  0
   16.7111   -3.4665    1.2223 H   0  0  0  0  0  0  0  0  0  0  0  0
   16.4728   -5.6768    2.4059 H   0  0  0  0  0  0  0  0  0  0  0  0
   16.9142   -4.8674    3.9318 H   0  0  0  0  0  0  0  0  0  0  0  0
   18.3447   -6.6952    3.4848 H   0  0  0  0  0  0  0  0  0  0  0  0
   15.1898   -3.4815   -0.2438 H   0  0  0  0  0  0  0  0  0  0  0  0
   13.7471   -2.4869   -0.4368 H   0  0  0  0  0  0  0  0  0  0  0  0
   13.6032   -4.2510   -0.2852 H   0  0  0  0  0  0  0  0  0  0  0  0
    5.4996   -3.7547   -1.7325 H   0  0  0  0  0  0  0  0  0  0  0  0
  1  2  1  0  0  0  0
  1 31  1  0  0  0  0
  1 32  1  0  0  0  0
  1 33  1  0  0  0  0
  2  3  1  0  0  0  0
  3  4  1  0  0  0  0
  3 30  2  0  0  0  0
  4  5  2  0  0  0  0
  4 34  1  0  0  0  0
  5  6  1  0  0  0  0
  5 35  1  0  0  0  0
  6  7  2  0  0  0  0
  6 36  1  0  0  0  0
  7  8  1  0  0  0  0
  7 30  1  0  0  0  0
  8  9  1  0  0  0  0
  8 13  2  0  0  0  0
  9 10  2  0  0  0  0
  9 37  1  0  0  0  0
 10 11  1  0  0  0  0
 10 38  1  0  0  0  0
 11 12  2  0  0  0  0
 11 17  1  0  0  0  0
 12 13  1  0  0  0  0
 12 14  1  0  0  0  0
 13 39  1  0  0  0  0
 14 15  1  0  0  0  0
 14 40  1  0  0  0  0
 15 16  2  0  0  0  0
 15 17  1  0  0  0  0
 17 18  2  0  0  0  0
 18 19  1  0  0  0  0
 18 41  1  0  0  0  0
 19 20  1  0  0  0  0
 19 28  2  0  0  0  0
 20 21  1  0  0  0  0
 20 42  1  0  0  0  0
 21 22  2  0  0  0  0
 21 43  1  0  0  0  0
 22 23  1  0  0  0  0
 22 28  1  0  0  0  0
 23 24  1  0  0  0  0
 23 44  1  0  0  0  0
 23 45  1  0  0  0  0
 24 25  1  0  0  0  0
 24 46  1  0  0  0  0
 24 47  1  0  0  0  0
 25 26  2  0  0  0  0
 25 27  1  0  0  0  0
 27 48  1  0  0  0  0
 28 29  1  0  0  0  0
 29 49  1  0  0  0  0
 29 50  1  0  0  0  0
 29 51  1  0  0  0  0
 30 52  1  0  0  0  0
M  END
$$$$
