CHEMBL3589742
 OpenBabel04072215363D

 43 46  0  0  0  0  0  0  0  0999 V2000
    2.3731    0.9040   -0.8038 O   0  0  0  0  0  0  0  0  0  0  0  0
    1.9420   -0.1373   -0.3187 C   0  0  0  0  0  0  0  0  0  0  0  0
    0.6035   -0.3858   -0.1173 N   0  0  0  0  0  0  0  0  0  0  0  0
   -0.4410    0.5360   -0.3814 C   0  0  0  0  0  0  0  0  0  0  0  0
   -0.2695    1.7296   -1.0999 C   0  0  0  0  0  0  0  0  0  0  0  0
   -1.3210    2.6429   -1.2516 C   0  0  0  0  0  0  0  0  0  0  0  0
   -2.5648    2.3554   -0.7047 C   0  0  0  0  0  0  0  0  0  0  0  0
   -3.8437    3.4877   -0.8450 Cl  0  0  0  0  0  0  0  0  0  0  0  0
   -2.7615    1.1575   -0.0139 C   0  0  0  0  0  0  0  0  0  0  0  0
   -1.7061    0.2489    0.1404 C   0  0  0  0  0  0  0  0  0  0  0  0
    2.7462   -1.1851    0.1259 N   0  0  0  0  0  0  0  0  0  0  0  0
    4.1526   -1.0936    0.2420 C   0  0  0  0  0  0  0  0  0  0  0  0
    4.7755    0.1419    0.2214 C   0  0  0  0  0  0  0  0  0  0  0  0
    6.1473    0.2319    0.2597 C   0  0  0  0  0  0  0  0  0  0  0  0
    6.9588   -0.8732    0.5179 C   0  0  0  0  0  0  0  0  0  0  0  0
    8.3498   -0.6716    0.7111 N   0  0  0  0  0  0  0  0  0  0  0  0
    8.6366    0.3275    1.5084 C   0  0  0  0  0  0  0  0  0  0  0  0
    7.9137    0.6543    2.8413 C   0  0  0  0  0  0  0  0  0  0  0  0
    7.5841   -0.1492    3.6870 O   0  0  0  0  0  0  0  0  0  0  0  0
    7.6690    2.0103    2.8100 N   0  0  0  0  0  0  0  0  0  0  0  0
    8.1652    2.5660    1.6329 C   0  0  0  0  0  0  0  0  0  0  0  0
    7.7092    3.7282    1.0381 C   0  0  0  0  0  0  0  0  0  0  0  0
    8.0827    3.9578   -0.2927 C   0  0  0  0  0  0  0  0  0  0  0  0
    8.9457    3.0731   -0.9723 C   0  0  0  0  0  0  0  0  0  0  0  0
    9.3941    1.9001   -0.3606 C   0  0  0  0  0  0  0  0  0  0  0  0
    8.9656    1.6548    0.9321 C   0  0  0  0  0  0  0  0  0  0  0  0
    6.3528   -2.1265    0.5233 C   0  0  0  0  0  0  0  0  0  0  0  0
    4.9509   -2.2388    0.3776 C   0  0  0  0  0  0  0  0  0  0  0  0
    0.3786   -1.1858    0.4517 H   0  0  0  0  0  0  0  0  0  0  0  0
    0.6758    2.0003   -1.5584 H   0  0  0  0  0  0  0  0  0  0  0  0
   -1.1504    3.5707   -1.7904 H   0  0  0  0  0  0  0  0  0  0  0  0
   -3.7327    0.9312    0.4143 H   0  0  0  0  0  0  0  0  0  0  0  0
   -1.8854   -0.6701    0.6916 H   0  0  0  0  0  0  0  0  0  0  0  0
    2.3366   -2.1040    0.1881 H   0  0  0  0  0  0  0  0  0  0  0  0
    4.2421    1.0833    0.1773 H   0  0  0  0  0  0  0  0  0  0  0  0
    6.5548    1.2175    0.0970 H   0  0  0  0  0  0  0  0  0  0  0  0
    7.0327    2.4542    3.4546 H   0  0  0  0  0  0  0  0  0  0  0  0
    6.9640    4.3601    1.5121 H   0  0  0  0  0  0  0  0  0  0  0  0
    7.6433    4.7915   -0.8397 H   0  0  0  0  0  0  0  0  0  0  0  0
    9.1867    3.2556   -2.0178 H   0  0  0  0  0  0  0  0  0  0  0  0
    9.9304    1.1423   -0.9221 H   0  0  0  0  0  0  0  0  0  0  0  0
    6.9658   -3.0167    0.6339 H   0  0  0  0  0  0  0  0  0  0  0  0
    4.5079   -3.2303    0.3672 H   0  0  0  0  0  0  0  0  0  0  0  0
  1  2  2  0  0  0  0
  2  3  1  0  0  0  0
  2 11  1  0  0  0  0
  3  4  1  0  0  0  0
  3 29  1  0  0  0  0
  4  5  1  0  0  0  0
  4 10  2  0  0  0  0
  5  6  2  0  0  0  0
  5 30  1  0  0  0  0
  6  7  1  0  0  0  0
  6 31  1  0  0  0  0
  7  8  1  0  0  0  0
  7  9  2  0  0  0  0
  9 10  1  0  0  0  0
  9 32  1  0  0  0  0
 10 33  1  0  0  0  0
 11 12  1  0  0  0  0
 11 34  1  0  0  0  0
 12 13  1  0  0  0  0
 12 28  2  0  0  0  0
 13 14  2  0  0  0  0
 13 35  1  0  0  0  0
 14 15  1  0  0  0  0
 14 36  1  0  0  0  0
 15 16  1  0  0  0  0
 15 27  2  0  0  0  0
 16 17  2  0  0  0  0
 17 18  1  0  0  0  0
 17 26  1  0  0  0  0
 18 19  2  0  0  0  0
 18 20  1  0  0  0  0
 20 21  1  0  0  0  0
 20 37  1  0  0  0  0
 21 22  1  0  0  0  0
 21 26  2  0  0  0  0
 22 23  2  0  0  0  0
 22 38  1  0  0  0  0
 23 24  1  0  0  0  0
 23 39  1  0  0  0  0
 24 25  2  0  0  0  0
 24 40  1  0  0  0  0
 25 26  1  0  0  0  0
 25 41  1  0  0  0  0
 27 28  1  0  0  0  0
 27 42  1  0  0  0  0
 28 43  1  0  0  0  0
M  END
$$$$
