CHEMBL3648116
 OpenBabel04072215373D

 47 48  0  0  1  0  0  0  0  0999 V2000
    2.1787   -2.3615    0.0281 C   0  0  0  0  0  0  0  0  0  0  0  0
    2.3185   -0.8396   -0.1194 C   0  0  2  0  0  0  0  0  0  0  0  0
    1.0119   -0.2020    0.0722 N   0  0  0  0  0  0  0  0  0  0  0  0
    0.2895   -0.3607    1.2527 C   0  0  0  0  0  0  0  0  0  0  0  0
    0.9468   -0.6418    2.3996 N   0  0  0  0  0  0  0  0  0  0  0  0
    0.2176   -0.9216    3.4949 C   0  0  0  0  0  0  0  0  0  0  0  0
    0.9278   -1.2191    4.6595 N   0  0  0  0  0  0  0  0  0  0  0  0
    0.5936   -2.0620    5.7313 C   0  0  0  0  0  0  0  0  0  0  0  0
   -0.5589   -2.8589    5.7396 C   0  0  0  0  0  0  0  0  0  0  0  0
   -0.9087   -3.6343    6.8469 C   0  0  0  0  0  0  0  0  0  0  0  0
   -0.1030   -3.6176    7.9807 C   0  0  0  0  0  0  0  0  0  0  0  0
   -0.6060   -4.5608    9.4071 S   0  0  3  0  0  0  0  0  0  0  0  0
    0.7338   -5.7001    9.6514 C   0  0  0  0  0  0  0  0  0  0  0  0
   -0.6223   -3.5686   10.5866 N   0  0  0  0  0  0  0  0  0  0  0  0
   -1.7419   -5.3726    9.0016 O   0  0  0  0  0  0  0  0  0  0  0  0
    1.0530   -2.8325    8.0089 C   0  0  0  0  0  0  0  0  0  0  0  0
    1.3890   -2.0554    6.8892 C   0  0  0  0  0  0  0  0  0  0  0  0
   -1.1241   -0.9142    3.5108 N   0  0  0  0  0  0  0  0  0  0  0  0
   -1.7549   -0.5929    2.3689 C   0  0  0  0  0  0  0  0  0  0  0  0
   -1.0960   -0.2828    1.2080 C   0  0  0  0  0  0  0  0  0  0  0  0
   -2.0775    0.0981   -0.3605 Br  0  0  0  0  0  0  0  0  0  0  0  0
    2.8566   -0.4210   -1.5398 C   0  0  0  0  0  0  0  0  0  0  0  0
    4.2304   -1.0296   -1.8495 C   0  0  0  0  0  0  0  0  0  0  0  0
    1.8841   -0.7698   -2.6769 C   0  0  0  0  0  0  0  0  0  0  0  0
    3.0042    1.0146   -1.5644 O   0  0  0  0  0  0  0  0  0  0  0  0
    3.1134   -2.8820   -0.1926 H   0  0  0  0  0  0  0  0  0  0  0  0
    1.3958   -2.7578   -0.6275 H   0  0  0  0  0  0  0  0  0  0  0  0
    1.9062   -2.6410    1.0508 H   0  0  0  0  0  0  0  0  0  0  0  0
    3.0164   -0.4559    0.6364 H   0  0  0  0  0  0  0  0  0  0  0  0
    0.9653    0.7518   -0.2854 H   0  0  0  0  0  0  0  0  0  0  0  0
    1.9090   -1.0279    4.5233 H   0  0  0  0  0  0  0  0  0  0  0  0
   -1.2166   -2.8969    4.8752 H   0  0  0  0  0  0  0  0  0  0  0  0
   -1.8184   -4.2301    6.8101 H   0  0  0  0  0  0  0  0  0  0  0  0
    1.6540   -5.1528    9.8588 H   0  0  0  0  0  0  0  0  0  0  0  0
    0.8434   -6.3124    8.7541 H   0  0  0  0  0  0  0  0  0  0  0  0
    0.4820   -6.3415   10.4997 H   0  0  0  0  0  0  0  0  0  0  0  0
    0.2968   -3.2002   10.8297 H   0  0  0  0  0  0  0  0  0  0  0  0
    1.6849   -2.7852    8.8908 H   0  0  0  0  0  0  0  0  0  0  0  0
    2.2691   -1.4168    6.9385 H   0  0  0  0  0  0  0  0  0  0  0  0
   -2.8389   -0.6200    2.4224 H   0  0  0  0  0  0  0  0  0  0  0  0
    4.1907   -2.1187   -1.9456 H   0  0  0  0  0  0  0  0  0  0  0  0
    4.9572   -0.7727   -1.0715 H   0  0  0  0  0  0  0  0  0  0  0  0
    4.6276   -0.6289   -2.7896 H   0  0  0  0  0  0  0  0  0  0  0  0
    1.7132   -1.8473   -2.7565 H   0  0  0  0  0  0  0  0  0  0  0  0
    2.2748   -0.4172   -3.6387 H   0  0  0  0  0  0  0  0  0  0  0  0
    0.9173   -0.2705   -2.5495 H   0  0  0  0  0  0  0  0  0  0  0  0
    3.7669    1.2463   -1.0066 H   0  0  0  0  0  0  0  0  0  0  0  0
  1 26  1  0  0  0  0
  1 27  1  0  0  0  0
  1 28  1  0  0  0  0
  2 22  1  0  0  0  0
  2  3  1  0  0  0  0
  2  1  1  0  0  0  0
  2 29  1  1  0  0  0
  3  4  1  0  0  0  0
  3 30  1  0  0  0  0
  4  5  1  0  0  0  0
  4 20  2  0  0  0  0
  5  6  2  0  0  0  0
  6  7  1  0  0  0  0
  6 18  1  0  0  0  0
  7  8  1  0  0  0  0
  7 31  1  0  0  0  0
  8  9  1  0  0  0  0
  8 17  2  0  0  0  0
  9 10  2  0  0  0  0
  9 32  1  0  0  0  0
 10 11  1  0  0  0  0
 10 33  1  0  0  0  0
 11 12  1  0  0  0  0
 11 16  2  0  0  0  0
 12 13  1  0  0  0  0
 12 14  2  0  0  0  0
 12 15  2  0  0  0  0
 13 34  1  0  0  0  0
 13 35  1  0  0  0  0
 13 36  1  0  0  0  0
 14 37  1  0  0  0  0
 16 17  1  0  0  0  0
 16 38  1  0  0  0  0
 17 39  1  0  0  0  0
 18 19  2  0  0  0  0
 19 20  1  0  0  0  0
 19 40  1  0  0  0  0
 20 21  1  0  0  0  0
 22 23  1  0  0  0  0
 22 24  1  0  0  0  0
 22 25  1  0  0  0  0
 23 41  1  0  0  0  0
 23 42  1  0  0  0  0
 23 43  1  0  0  0  0
 24 44  1  0  0  0  0
 24 45  1  0  0  0  0
 24 46  1  0  0  0  0
 25 47  1  0  0  0  0
M  END
$$$$
