CHEMBL4544826
 OpenBabel04072215383D

 56 60  0  0  0  0  0  0  0  0999 V2000
    6.8963   -7.5960    0.0650 C   0  0  0  0  0  0  0  0  0  0  0  0
    7.5166   -7.3321   -1.1945 O   0  0  0  0  0  0  0  0  0  0  0  0
    7.0364   -6.2394   -1.8646 C   0  0  0  0  0  0  0  0  0  0  0  0
    6.5999   -5.0893   -1.1804 C   0  0  0  0  0  0  0  0  0  0  0  0
    6.0194   -3.9989   -1.8228 C   0  0  0  0  0  0  0  0  0  0  0  0
    5.6035   -2.9700   -1.0749 N   0  0  0  0  0  0  0  0  0  0  0  0
    5.0526   -1.9309   -1.7133 C   0  0  0  0  0  0  0  0  0  0  0  0
    4.8766   -1.8206   -3.0315 N   0  0  0  0  0  0  0  0  0  0  0  0
    5.2562   -2.8952   -3.7701 C   0  0  0  0  0  0  0  0  0  0  0  0
    4.9169   -2.8691   -5.1633 N   0  0  0  0  0  0  0  0  0  0  0  0
    4.6312   -4.0262   -5.8318 N   0  0  0  0  0  0  0  0  0  0  0  0
    4.3081   -3.6414   -7.0602 C   0  0  0  0  0  0  0  0  0  0  0  0
    4.3804   -2.2516   -7.2256 C   0  0  0  0  0  0  0  0  0  0  0  0
    4.1677   -1.3752   -8.3002 C   0  0  0  0  0  0  0  0  0  0  0  0
    4.3372    0.0022   -8.1218 C   0  0  0  0  0  0  0  0  0  0  0  0
    4.1164    0.9161   -9.1778 N   0  0  0  0  0  0  0  0  0  0  0  0
    3.2818    0.6635  -10.2564 C   0  0  0  0  0  0  0  0  0  0  0  0
    2.5128   -0.2870  -10.3412 O   0  0  0  0  0  0  0  0  0  0  0  0
    3.4488    1.6057  -11.2610 N   0  0  0  0  0  0  0  0  0  0  0  0
    2.6663    1.5623  -12.4386 C   0  0  0  0  0  0  0  0  0  0  0  0
    3.2979    1.7211  -13.6715 C   0  0  0  0  0  0  0  0  0  0  0  0
    2.5498    1.6696  -14.8527 C   0  0  0  0  0  0  0  0  0  0  0  0
    1.1566    1.5132  -14.8172 C   0  0  0  0  0  0  0  0  0  0  0  0
    0.3768    1.5411  -16.1021 C   0  0  0  0  0  0  0  0  0  0  0  0
    0.5297    1.3686  -13.5685 C   0  0  0  0  0  0  0  0  0  0  0  0
   -1.1858    1.1949  -13.4382 Cl  0  0  0  0  0  0  0  0  0  0  0  0
    1.2819    1.3766  -12.3861 C   0  0  0  0  0  0  0  0  0  0  0  0
    4.7681    0.4855   -6.8816 C   0  0  0  0  0  0  0  0  0  0  0  0
    4.9773   -0.3759   -5.7896 C   0  0  0  0  0  0  0  0  0  0  0  0
    4.7636   -1.7526   -5.9839 C   0  0  0  0  0  0  0  0  0  0  0  0
    5.8913   -4.0290   -3.2122 C   0  0  0  0  0  0  0  0  0  0  0  0
    6.4461   -5.1384   -3.9043 C   0  0  0  0  0  0  0  0  0  0  0  0
    7.0057   -6.2417   -3.2555 C   0  0  0  0  0  0  0  0  0  0  0  0
    7.4291   -7.1825   -4.1483 O   0  0  0  0  0  0  0  0  0  0  0  0
    7.9602   -8.4092   -3.6857 C   0  0  0  0  0  0  0  0  0  0  0  0
    6.8502   -8.6807    0.1986 H   0  0  0  0  0  0  0  0  0  0  0  0
    5.8681   -7.2203    0.1309 H   0  0  0  0  0  0  0  0  0  0  0  0
    7.5078   -7.1746    0.8687 H   0  0  0  0  0  0  0  0  0  0  0  0
    6.7044   -5.0259   -0.0996 H   0  0  0  0  0  0  0  0  0  0  0  0
    4.7059   -1.1078   -1.0973 H   0  0  0  0  0  0  0  0  0  0  0  0
    4.0395   -4.3924   -7.7923 H   0  0  0  0  0  0  0  0  0  0  0  0
    3.8868   -1.7973   -9.2598 H   0  0  0  0  0  0  0  0  0  0  0  0
    4.3164    1.8897   -8.9985 H   0  0  0  0  0  0  0  0  0  0  0  0
    4.3999    1.9321  -11.3599 H   0  0  0  0  0  0  0  0  0  0  0  0
    4.3756    1.8323  -13.7352 H   0  0  0  0  0  0  0  0  0  0  0  0
    3.0686    1.7473  -15.8063 H   0  0  0  0  0  0  0  0  0  0  0  0
    1.0404    1.5718  -16.9725 H   0  0  0  0  0  0  0  0  0  0  0  0
   -0.2518    2.4374  -16.1349 H   0  0  0  0  0  0  0  0  0  0  0  0
   -0.2507    0.6500  -16.2031 H   0  0  0  0  0  0  0  0  0  0  0  0
    0.7786    1.2603  -11.4339 H   0  0  0  0  0  0  0  0  0  0  0  0
    4.9286    1.5502   -6.7293 H   0  0  0  0  0  0  0  0  0  0  0  0
    5.2993    0.0173   -4.8299 H   0  0  0  0  0  0  0  0  0  0  0  0
    6.4527   -5.1658   -4.9921 H   0  0  0  0  0  0  0  0  0  0  0  0
    8.1430   -9.0303   -4.5694 H   0  0  0  0  0  0  0  0  0  0  0  0
    7.2453   -8.9479   -3.0579 H   0  0  0  0  0  0  0  0  0  0  0  0
    8.9210   -8.2585   -3.1858 H   0  0  0  0  0  0  0  0  0  0  0  0
  1  2  1  0  0  0  0
  1 36  1  0  0  0  0
  1 37  1  0  0  0  0
  1 38  1  0  0  0  0
  2  3  1  0  0  0  0
  3  4  1  0  0  0  0
  3 33  2  0  0  0  0
  4  5  2  0  0  0  0
  4 39  1  0  0  0  0
  5  6  1  0  0  0  0
  5 31  1  0  0  0  0
  6  7  2  0  0  0  0
  7  8  1  0  0  0  0
  7 40  1  0  0  0  0
  8  9  2  0  0  0  0
  9 10  1  0  0  0  0
  9 31  1  0  0  0  0
 10 11  1  0  0  0  0
 10 30  1  0  0  0  0
 11 12  2  0  0  0  0
 12 13  1  0  0  0  0
 12 41  1  0  0  0  0
 13 14  1  0  0  0  0
 13 30  2  0  0  0  0
 14 15  2  0  0  0  0
 14 42  1  0  0  0  0
 15 16  1  0  0  0  0
 15 28  1  0  0  0  0
 16 17  1  0  0  0  0
 16 43  1  0  0  0  0
 17 18  2  0  0  0  0
 17 19  1  0  0  0  0
 19 20  1  0  0  0  0
 19 44  1  0  0  0  0
 20 21  1  0  0  0  0
 20 27  2  0  0  0  0
 21 22  2  0  0  0  0
 21 45  1  0  0  0  0
 22 23  1  0  0  0  0
 22 46  1  0  0  0  0
 23 24  1  0  0  0  0
 23 25  2  0  0  0  0
 24 47  1  0  0  0  0
 24 48  1  0  0  0  0
 24 49  1  0  0  0  0
 25 26  1  0  0  0  0
 25 27  1  0  0  0  0
 27 50  1  0  0  0  0
 28 29  2  0  0  0  0
 28 51  1  0  0  0  0
 29 30  1  0  0  0  0
 29 52  1  0  0  0  0
 31 32  2  0  0  0  0
 32 33  1  0  0  0  0
 32 53  1  0  0  0  0
 33 34  1  0  0  0  0
 34 35  1  0  0  0  0
 35 54  1  0  0  0  0
 35 55  1  0  0  0  0
 35 56  1  0  0  0  0
M  END
$$$$
