CHEMBL1242667
 OpenBabel04072215363D

 52 55  0  0  0  0  0  0  0  0999 V2000
    5.1958   -1.7033    0.5971 C   0  0  0  0  0  0  0  0  0  0  0  0
    4.0344   -0.8847    0.7504 O   0  0  0  0  0  0  0  0  0  0  0  0
    4.2657    0.4520    0.9366 C   0  0  0  0  0  0  0  0  0  0  0  0
    5.4330    1.0795    0.4659 C   0  0  0  0  0  0  0  0  0  0  0  0
    5.7767    2.3822    0.8088 C   0  0  0  0  0  0  0  0  0  0  0  0
    6.9929    2.8257    0.4511 N   0  0  0  0  0  0  0  0  0  0  0  0
    7.3776    4.0432    0.8801 C   0  0  0  0  0  0  0  0  0  0  0  0
    6.6033    4.8512    1.6843 C   0  0  0  0  0  0  0  0  0  0  0  0
    5.3399    4.3977    2.0580 C   0  0  0  0  0  0  0  0  0  0  0  0
    4.6877    5.2653    2.9248 O   0  0  0  0  0  0  0  0  0  0  0  0
    3.7911    4.7998    3.8589 C   0  0  0  0  0  0  0  0  0  0  0  0
    3.9109    3.5846    4.5184 C   0  0  0  0  0  0  0  0  0  0  0  0
    2.7887    3.0417    5.1568 C   0  0  0  0  0  0  0  0  0  0  0  0
    1.5817    3.7662    5.3326 C   0  0  0  0  0  0  0  0  0  0  0  0
    0.3805    3.2795    5.9413 C   0  0  0  0  0  0  0  0  0  0  0  0
    0.1751    1.8798    6.4234 C   0  0  0  0  0  0  0  0  0  0  0  0
   -0.9250    1.3377    6.3073 O   0  0  0  0  0  0  0  0  0  0  0  0
    1.2298    1.2441    7.0277 N   0  0  0  0  0  0  0  0  0  0  0  0
    1.1494   -0.1413    7.4811 C   0  0  0  0  0  0  0  0  0  0  0  0
    0.6623   -1.1590    6.4430 C   0  0  0  0  0  0  0  0  0  0  0  0
    1.5329   -1.1989    5.3973 F   0  0  0  0  0  0  0  0  0  0  0  0
    0.6958   -2.4021    7.0002 F   0  0  0  0  0  0  0  0  0  0  0  0
   -0.7512    4.1066    6.0540 C   0  0  0  0  0  0  0  0  0  0  0  0
   -0.7241    5.4123    5.5764 C   0  0  0  0  0  0  0  0  0  0  0  0
    0.4216    5.8930    4.9521 C   0  0  0  0  0  0  0  0  0  0  0  0
    1.5618    5.0889    4.8053 C   0  0  0  0  0  0  0  0  0  0  0  0
    2.6563    5.5806    4.0725 C   0  0  0  0  0  0  0  0  0  0  0  0
    4.8703    3.1496    1.5567 C   0  0  0  0  0  0  0  0  0  0  0  0
    3.5899    2.5908    1.7744 C   0  0  0  0  0  0  0  0  0  0  0  0
    3.3149    1.2331    1.5855 C   0  0  0  0  0  0  0  0  0  0  0  0
    2.1161    0.8960    2.1416 O   0  0  0  0  0  0  0  0  0  0  0  0
    1.7728   -0.4623    2.3503 C   0  0  0  0  0  0  0  0  0  0  0  0
    4.9890   -2.6748    1.0566 H   0  0  0  0  0  0  0  0  0  0  0  0
    6.0851   -1.3046    1.0986 H   0  0  0  0  0  0  0  0  0  0  0  0
    5.3970   -1.8592   -0.4673 H   0  0  0  0  0  0  0  0  0  0  0  0
    6.1465    0.5360   -0.1476 H   0  0  0  0  0  0  0  0  0  0  0  0
    8.3728    4.3498    0.5678 H   0  0  0  0  0  0  0  0  0  0  0  0
    6.9814    5.8079    2.0294 H   0  0  0  0  0  0  0  0  0  0  0  0
    4.8012    2.9729    4.4076 H   0  0  0  0  0  0  0  0  0  0  0  0
    2.8693    1.9958    5.4397 H   0  0  0  0  0  0  0  0  0  0  0  0
    2.0156    1.8049    7.3401 H   0  0  0  0  0  0  0  0  0  0  0  0
    0.5144   -0.1724    8.3671 H   0  0  0  0  0  0  0  0  0  0  0  0
    2.1629   -0.4172    7.7857 H   0  0  0  0  0  0  0  0  0  0  0  0
   -0.3446   -0.9794    6.0631 H   0  0  0  0  0  0  0  0  0  0  0  0
   -1.6653    3.7280    6.5062 H   0  0  0  0  0  0  0  0  0  0  0  0
   -1.6034    6.0435    5.6659 H   0  0  0  0  0  0  0  0  0  0  0  0
    0.4072    6.9062    4.5532 H   0  0  0  0  0  0  0  0  0  0  0  0
    2.6013    6.5586    3.5957 H   0  0  0  0  0  0  0  0  0  0  0  0
    2.7942    3.1911    2.2039 H   0  0  0  0  0  0  0  0  0  0  0  0
    0.9625   -0.4758    3.0884 H   0  0  0  0  0  0  0  0  0  0  0  0
    2.5907   -1.0594    2.7643 H   0  0  0  0  0  0  0  0  0  0  0  0
    1.3784   -0.8904    1.4258 H   0  0  0  0  0  0  0  0  0  0  0  0
  1  2  1  0  0  0  0
  1 33  1  0  0  0  0
  1 34  1  0  0  0  0
  1 35  1  0  0  0  0
  2  3  1  0  0  0  0
  3  4  1  0  0  0  0
  3 30  2  0  0  0  0
  4  5  2  0  0  0  0
  4 36  1  0  0  0  0
  5  6  1  0  0  0  0
  5 28  1  0  0  0  0
  6  7  2  0  0  0  0
  7  8  1  0  0  0  0
  7 37  1  0  0  0  0
  8  9  2  0  0  0  0
  8 38  1  0  0  0  0
  9 10  1  0  0  0  0
  9 28  1  0  0  0  0
 10 11  1  0  0  0  0
 11 12  1  0  0  0  0
 11 27  2  0  0  0  0
 12 13  2  0  0  0  0
 12 39  1  0  0  0  0
 13 14  1  0  0  0  0
 13 40  1  0  0  0  0
 14 15  1  0  0  0  0
 14 26  2  0  0  0  0
 15 16  1  0  0  0  0
 15 23  2  0  0  0  0
 16 17  2  0  0  0  0
 16 18  1  0  0  0  0
 18 19  1  0  0  0  0
 18 41  1  0  0  0  0
 19 20  1  0  0  0  0
 19 42  1  0  0  0  0
 19 43  1  0  0  0  0
 20 21  1  0  0  0  0
 20 22  1  0  0  0  0
 20 44  1  0  0  0  0
 23 24  1  0  0  0  0
 23 45  1  0  0  0  0
 24 25  2  0  0  0  0
 24 46  1  0  0  0  0
 25 26  1  0  0  0  0
 25 47  1  0  0  0  0
 26 27  1  0  0  0  0
 27 48  1  0  0  0  0
 28 29  2  0  0  0  0
 29 30  1  0  0  0  0
 29 49  1  0  0  0  0
 30 31  1  0  0  0  0
 31 32  1  0  0  0  0
 32 50  1  0  0  0  0
 32 51  1  0  0  0  0
 32 52  1  0  0  0  0
M  END
$$$$
