CHEMBL2086743
 OpenBabel04072215363D

 47 51  0  0  0  0  0  0  0  0999 V2000
    1.0610   -0.3918    0.6170 C   0  0  0  0  0  0  0  0  0  0  0  0
    1.2849    1.0149    0.6026 O   0  0  0  0  0  0  0  0  0  0  0  0
    2.6002    1.3942    0.5103 C   0  0  0  0  0  0  0  0  0  0  0  0
    3.5930    0.6309   -0.1164 C   0  0  0  0  0  0  0  0  0  0  0  0
    4.9172    1.0685   -0.1737 C   0  0  0  0  0  0  0  0  0  0  0  0
    5.1834    2.3008    0.4125 C   0  0  0  0  0  0  0  0  0  0  0  0
    6.3440    3.0084    0.5383 N   0  0  0  0  0  0  0  0  0  0  0  0
    6.0673    4.2430    1.0673 C   0  0  0  0  0  0  0  0  0  0  0  0
    7.1137    5.2120    1.2639 C   0  0  0  0  0  0  0  0  0  0  0  0
    8.1497    5.3829    0.3957 C   0  0  0  0  0  0  0  0  0  0  0  0
    8.3667    4.6617   -0.9340 C   0  0  0  0  0  0  0  0  0  0  0  0
    7.8057    3.6819   -1.3805 O   0  0  0  0  0  0  0  0  0  0  0  0
    9.4085    5.3198   -1.5604 N   0  0  0  0  0  0  0  0  0  0  0  0
    9.9436    6.3037   -0.7509 C   0  0  0  0  0  0  0  0  0  0  0  0
   11.0336    7.0982   -1.0468 C   0  0  0  0  0  0  0  0  0  0  0  0
   11.4372    8.0203   -0.0797 C   0  0  0  0  0  0  0  0  0  0  0  0
   10.7548    8.1308    1.1427 C   0  0  0  0  0  0  0  0  0  0  0  0
   11.2316    8.9794    2.1511 N   0  0  0  0  0  0  0  0  0  0  0  0
    9.7196    7.2383    1.4387 C   0  0  0  0  0  0  0  0  0  0  0  0
    9.2585    6.3702    0.4640 C   0  0  0  0  0  0  0  0  0  0  0  0
    6.9901    6.1213    2.4418 C   0  0  0  0  0  0  0  0  0  0  0  0
    6.3775    7.3789    2.3127 C   0  0  0  0  0  0  0  0  0  0  0  0
    6.2963    8.2443    3.4086 C   0  0  0  0  0  0  0  0  0  0  0  0
    6.8180    7.8619    4.6437 C   0  0  0  0  0  0  0  0  0  0  0  0
    7.4166    6.6085    4.7858 C   0  0  0  0  0  0  0  0  0  0  0  0
    7.4967    5.7384    3.6930 C   0  0  0  0  0  0  0  0  0  0  0  0
    4.7907    4.2937    1.4211 N   0  0  0  0  0  0  0  0  0  0  0  0
    4.2258    3.1116    0.9971 C   0  0  0  0  0  0  0  0  0  0  0  0
    2.9015    2.6536    1.0551 C   0  0  0  0  0  0  0  0  0  0  0  0
   -0.0022   -0.5603    0.8099 H   0  0  0  0  0  0  0  0  0  0  0  0
    1.6310   -0.8714    1.4207 H   0  0  0  0  0  0  0  0  0  0  0  0
    1.2905   -0.8461   -0.3520 H   0  0  0  0  0  0  0  0  0  0  0  0
    3.3637   -0.3153   -0.5947 H   0  0  0  0  0  0  0  0  0  0  0  0
    5.6906    0.4885   -0.6646 H   0  0  0  0  0  0  0  0  0  0  0  0
    7.2238    2.7298    0.1283 H   0  0  0  0  0  0  0  0  0  0  0  0
    9.7698    5.0363   -2.4606 H   0  0  0  0  0  0  0  0  0  0  0  0
   11.5652    7.0118   -1.9878 H   0  0  0  0  0  0  0  0  0  0  0  0
   12.2979    8.6546   -0.2781 H   0  0  0  0  0  0  0  0  0  0  0  0
   11.6645    9.8252    1.7944 H   0  0  0  0  0  0  0  0  0  0  0  0
   10.5275    9.1878    2.8562 H   0  0  0  0  0  0  0  0  0  0  0  0
    9.2910    7.2590    2.4300 H   0  0  0  0  0  0  0  0  0  0  0  0
    5.9600    7.6890    1.3571 H   0  0  0  0  0  0  0  0  0  0  0  0
    5.8196    9.2150    3.2979 H   0  0  0  0  0  0  0  0  0  0  0  0
    6.7507    8.5327    5.4965 H   0  0  0  0  0  0  0  0  0  0  0  0
    7.8216    6.3084    5.7484 H   0  0  0  0  0  0  0  0  0  0  0  0
    7.9721    4.7685    3.8200 H   0  0  0  0  0  0  0  0  0  0  0  0
    2.1320    3.2651    1.5118 H   0  0  0  0  0  0  0  0  0  0  0  0
  1  2  1  0  0  0  0
  1 30  1  0  0  0  0
  1 31  1  0  0  0  0
  1 32  1  0  0  0  0
  2  3  1  0  0  0  0
  3  4  1  0  0  0  0
  3 29  2  0  0  0  0
  4  5  2  0  0  0  0
  4 33  1  0  0  0  0
  5  6  1  0  0  0  0
  5 34  1  0  0  0  0
  6  7  1  0  0  0  0
  6 28  2  0  0  0  0
  7  8  1  0  0  0  0
  7 35  1  0  0  0  0
  8  9  1  0  0  0  0
  8 27  2  0  0  0  0
  9 10  2  3  0  0  0
  9 21  1  0  0  0  0
 10 11  1  0  0  0  0
 10 20  1  0  0  0  0
 11 12  2  0  0  0  0
 11 13  1  0  0  0  0
 13 14  1  0  0  0  0
 13 36  1  0  0  0  0
 14 15  1  0  0  0  0
 14 20  2  0  0  0  0
 15 16  2  0  0  0  0
 15 37  1  0  0  0  0
 16 17  1  0  0  0  0
 16 38  1  0  0  0  0
 17 18  1  0  0  0  0
 17 19  2  0  0  0  0
 18 39  1  0  0  0  0
 18 40  1  0  0  0  0
 19 20  1  0  0  0  0
 19 41  1  0  0  0  0
 21 22  1  0  0  0  0
 21 26  2  0  0  0  0
 22 23  2  0  0  0  0
 22 42  1  0  0  0  0
 23 24  1  0  0  0  0
 23 43  1  0  0  0  0
 24 25  2  0  0  0  0
 24 44  1  0  0  0  0
 25 26  1  0  0  0  0
 25 45  1  0  0  0  0
 26 46  1  0  0  0  0
 27 28  1  0  0  0  0
 28 29  1  0  0  0  0
 29 47  1  0  0  0  0
M  END
$$$$
