CHEMBL394790
 OpenBabel04072215373D

 42 45  0  0  0  0  0  0  0  0999 V2000
    1.1086   -0.2576   -1.8536 N   0  0  0  0  0  0  0  0  0  0  0  0
    2.4671   -0.2659   -1.5588 C   0  0  0  0  0  0  0  0  0  0  0  0
    3.1321    0.8211   -2.0108 N   0  0  0  0  0  0  0  0  0  0  0  0
    4.4380    0.9725   -1.7483 C   0  0  0  0  0  0  0  0  0  0  0  0
    5.1860    0.0759   -1.0242 C   0  0  0  0  0  0  0  0  0  0  0  0
    4.5103   -1.0618   -0.5707 C   0  0  0  0  0  0  0  0  0  0  0  0
    5.2209   -2.3235    0.3503 S   0  0  0  0  0  0  0  0  0  0  0  0
    3.7627   -3.1827    0.4140 C   0  0  0  0  0  0  0  0  0  0  0  0
    2.7140   -2.5466   -0.2299 C   0  0  0  0  0  0  0  0  0  0  0  0
    1.3836   -3.1707   -0.1894 C   0  0  0  0  0  0  0  0  0  0  0  0
    0.9586   -3.8053    0.9841 C   0  0  0  0  0  0  0  0  0  0  0  0
   -0.3052   -4.3864    1.0708 C   0  0  0  0  0  0  0  0  0  0  0  0
   -1.2098   -4.2951    0.0145 C   0  0  0  0  0  0  0  0  0  0  0  0
   -2.5252   -4.8025    0.1141 N   0  0  0  0  0  0  0  0  0  0  0  0
   -3.1753   -5.0190    1.3141 C   0  0  0  0  0  0  0  0  0  0  0  0
   -2.7561   -4.6587    2.4137 O   0  0  0  0  0  0  0  0  0  0  0  0
   -4.3587   -5.7197    1.1472 N   0  0  0  0  0  0  0  0  0  0  0  0
   -5.2113   -5.9869    2.2449 C   0  0  0  0  0  0  0  0  0  0  0  0
   -5.4726   -5.0144    3.2205 C   0  0  0  0  0  0  0  0  0  0  0  0
   -6.3164   -5.2957    4.2951 C   0  0  0  0  0  0  0  0  0  0  0  0
   -6.8907   -6.5591    4.4107 C   0  0  0  0  0  0  0  0  0  0  0  0
   -6.6181   -7.5298    3.4472 C   0  0  0  0  0  0  0  0  0  0  0  0
   -7.2852   -9.1081    3.6204 Cl  0  0  0  0  0  0  0  0  0  0  0  0
   -5.7989   -7.2457    2.3528 C   0  0  0  0  0  0  0  0  0  0  0  0
   -0.7865   -3.7040   -1.1754 C   0  0  0  0  0  0  0  0  0  0  0  0
    0.5099   -3.1706   -1.2849 C   0  0  0  0  0  0  0  0  0  0  0  0
    3.1466   -1.2779   -0.8250 C   0  0  0  0  0  0  0  0  0  0  0  0
    0.8593    0.6695   -2.1838 H   0  0  0  0  0  0  0  0  0  0  0  0
    0.5374   -0.6052   -1.0934 H   0  0  0  0  0  0  0  0  0  0  0  0
    4.8880    1.8782   -2.1455 H   0  0  0  0  0  0  0  0  0  0  0  0
    6.2370    0.2412   -0.8189 H   0  0  0  0  0  0  0  0  0  0  0  0
    3.7465   -4.1256    0.9437 H   0  0  0  0  0  0  0  0  0  0  0  0
    1.5958   -3.8562    1.8641 H   0  0  0  0  0  0  0  0  0  0  0  0
   -0.5545   -4.9016    1.9963 H   0  0  0  0  0  0  0  0  0  0  0  0
   -3.1183   -4.7224   -0.6992 H   0  0  0  0  0  0  0  0  0  0  0  0
   -4.3356   -6.4028    0.4068 H   0  0  0  0  0  0  0  0  0  0  0  0
   -5.0256   -4.0239    3.1529 H   0  0  0  0  0  0  0  0  0  0  0  0
   -6.5144   -4.5312    5.0422 H   0  0  0  0  0  0  0  0  0  0  0  0
   -7.5355   -6.7824    5.2547 H   0  0  0  0  0  0  0  0  0  0  0  0
   -5.5831   -8.0227    1.6277 H   0  0  0  0  0  0  0  0  0  0  0  0
   -1.4563   -3.6209   -2.0299 H   0  0  0  0  0  0  0  0  0  0  0  0
    0.8146   -2.7371   -2.2353 H   0  0  0  0  0  0  0  0  0  0  0  0
  1  2  1  0  0  0  0
  1 28  1  0  0  0  0
  1 29  1  0  0  0  0
  2  3  1  0  0  0  0
  2 27  2  0  0  0  0
  3  4  2  0  0  0  0
  4  5  1  0  0  0  0
  4 30  1  0  0  0  0
  5  6  2  0  0  0  0
  5 31  1  0  0  0  0
  6  7  1  0  0  0  0
  6 27  1  0  0  0  0
  7  8  1  0  0  0  0
  8  9  2  0  0  0  0
  8 32  1  0  0  0  0
  9 10  1  0  0  0  0
  9 27  1  0  0  0  0
 10 11  1  0  0  0  0
 10 26  2  0  0  0  0
 11 12  2  0  0  0  0
 11 33  1  0  0  0  0
 12 13  1  0  0  0  0
 12 34  1  0  0  0  0
 13 14  1  0  0  0  0
 13 25  2  0  0  0  0
 14 15  1  0  0  0  0
 14 35  1  0  0  0  0
 15 16  2  0  0  0  0
 15 17  1  0  0  0  0
 17 18  1  0  0  0  0
 17 36  1  0  0  0  0
 18 19  1  0  0  0  0
 18 24  2  0  0  0  0
 19 20  2  0  0  0  0
 19 37  1  0  0  0  0
 20 21  1  0  0  0  0
 20 38  1  0  0  0  0
 21 22  2  0  0  0  0
 21 39  1  0  0  0  0
 22 23  1  0  0  0  0
 22 24  1  0  0  0  0
 24 40  1  0  0  0  0
 25 26  1  0  0  0  0
 25 41  1  0  0  0  0
 26 42  1  0  0  0  0
M  END
$$$$
