CHEMBL248221
 OpenBabel04072215363D

 64 68  0  0  1  0  0  0  0  0999 V2000
    1.1941   -0.1602    0.2640 C   0  0  0  0  0  0  0  0  0  0  0  0
    2.6091   -0.0287    0.1730 O   0  0  0  0  0  0  0  0  0  0  0  0
    3.1286    1.1535    0.6366 C   0  0  0  0  0  0  0  0  0  0  0  0
    4.2085    1.6296   -0.1060 C   0  0  0  0  0  0  0  0  0  0  0  0
    4.8224    2.8405    0.1773 C   0  0  0  0  0  0  0  0  0  0  0  0
    5.8247    3.2126   -0.6225 N   0  0  0  0  0  0  0  0  0  0  0  0
    6.3551    4.4393   -0.4450 C   0  0  0  0  0  0  0  0  0  0  0  0
    5.9505    5.3359    0.5320 C   0  0  0  0  0  0  0  0  0  0  0  0
    6.5005    6.6541    0.4775 C   0  0  0  0  0  0  0  0  0  0  0  0
    6.9351    7.7220    0.3651 N   0  0  0  0  0  0  0  0  0  0  0  0
    4.9853    4.9228    1.4603 C   0  0  0  0  0  0  0  0  0  0  0  0
    4.5237    5.7858    2.5168 N   0  0  0  0  0  0  0  0  0  0  0  0
    5.4388    6.6851    3.2927 C   0  0  2  0  0  0  0  0  0  0  0  0
    6.7208    6.1549    3.8547 C   0  0  0  0  0  0  0  0  0  0  0  0
    5.5548    6.4200    4.7800 C   0  0  1  0  0  0  0  0  0  0  0  0
    5.8539    7.2870    5.9801 C   0  0  0  0  0  0  0  0  0  0  0  0
    5.3259    8.5577    6.2455 C   0  0  0  0  0  0  0  0  0  0  0  0
    5.4521    9.1358    7.5228 C   0  0  0  0  0  0  0  0  0  0  0  0
    6.1111    8.4572    8.5501 C   0  0  0  0  0  0  0  0  0  0  0  0
    6.6988    7.2283    8.2914 C   0  0  0  0  0  0  0  0  0  0  0  0
    6.5832    6.6695    7.0207 C   0  0  0  0  0  0  0  0  0  0  0  0
    4.3613    3.6351    1.2566 C   0  0  0  0  0  0  0  0  0  0  0  0
    3.3109    3.0948    2.0514 C   0  0  0  0  0  0  0  0  0  0  0  0
    2.7090    1.8608    1.7666 C   0  0  0  0  0  0  0  0  0  0  0  0
    1.7515    1.2824    2.5416 O   0  0  0  0  0  0  0  0  0  0  0  0
    1.3241    1.9108    3.7487 C   0  0  0  0  0  0  0  0  0  0  0  0
    0.2979    0.9806    4.4020 C   0  0  0  0  0  0  0  0  0  0  0  0
   -0.8936    0.7561    3.4605 C   0  0  0  0  0  0  0  0  0  0  0  0
   -1.9567   -0.1210    3.9706 N   0  0  0  0  0  0  0  0  0  0  0  0
   -1.5214   -1.5033    4.2765 C   0  0  0  0  0  0  0  0  0  0  0  0
   -1.2619   -2.3988    3.0506 C   0  0  0  0  0  0  0  0  0  0  0  0
   -2.3766   -2.4121    2.1507 O   0  0  0  0  0  0  0  0  0  0  0  0
   -2.7225   -1.0824    1.7510 C   0  0  0  0  0  0  0  0  0  0  0  0
   -3.0567   -0.2078    2.9745 C   0  0  0  0  0  0  0  0  0  0  0  0
    0.8696   -0.9109   -0.4632 H   0  0  0  0  0  0  0  0  0  0  0  0
    0.6674    0.7741    0.0347 H   0  0  0  0  0  0  0  0  0  0  0  0
    0.9214   -0.5436    1.2476 H   0  0  0  0  0  0  0  0  0  0  0  0
    4.5594    1.0454   -0.9560 H   0  0  0  0  0  0  0  0  0  0  0  0
    7.1276    4.6942   -1.1675 H   0  0  0  0  0  0  0  0  0  0  0  0
    3.9140    5.2789    3.1497 H   0  0  0  0  0  0  0  0  0  0  0  0
    5.4134    7.7162    2.9510 H   0  0  0  0  0  0  0  0  0  0  0  0
    7.5647    6.8382    3.8533 H   0  0  0  0  0  0  0  0  0  0  0  0
    6.9949    5.1185    3.7096 H   0  0  0  0  0  0  0  0  0  0  0  0
    4.9544    5.5636    5.0844 H   0  0  0  0  0  0  0  0  0  0  0  0
    4.7674    9.0960    5.4837 H   0  0  0  0  0  0  0  0  0  0  0  0
    5.0033   10.1048    7.7338 H   0  0  0  0  0  0  0  0  0  0  0  0
    6.1587    8.8770    9.5519 H   0  0  0  0  0  0  0  0  0  0  0  0
    7.2136    6.6808    9.0764 H   0  0  0  0  0  0  0  0  0  0  0  0
    7.0181    5.6869    6.8432 H   0  0  0  0  0  0  0  0  0  0  0  0
    2.9507    3.6517    2.9050 H   0  0  0  0  0  0  0  0  0  0  0  0
    0.8624    2.8807    3.5291 H   0  0  0  0  0  0  0  0  0  0  0  0
    2.1730    2.0461    4.4287 H   0  0  0  0  0  0  0  0  0  0  0  0
   -0.0387    1.4058    5.3538 H   0  0  0  0  0  0  0  0  0  0  0  0
    0.7965    0.0280    4.6111 H   0  0  0  0  0  0  0  0  0  0  0  0
   -0.5329    0.3892    2.4998 H   0  0  0  0  0  0  0  0  0  0  0  0
   -1.3337    1.7430    3.2638 H   0  0  0  0  0  0  0  0  0  0  0  0
   -2.3298   -1.9636    4.8598 H   0  0  0  0  0  0  0  0  0  0  0  0
   -0.6496   -1.5153    4.9376 H   0  0  0  0  0  0  0  0  0  0  0  0
   -1.1051   -3.4311    3.3820 H   0  0  0  0  0  0  0  0  0  0  0  0
   -0.3633   -2.0906    2.5068 H   0  0  0  0  0  0  0  0  0  0  0  0
   -3.5960   -1.1497    1.0950 H   0  0  0  0  0  0  0  0  0  0  0  0
   -1.9053   -0.6639    1.1523 H   0  0  0  0  0  0  0  0  0  0  0  0
   -3.9270   -0.6403    3.4833 H   0  0  0  0  0  0  0  0  0  0  0  0
   -3.3572    0.7946    2.6476 H   0  0  0  0  0  0  0  0  0  0  0  0
  1  2  1  0  0  0  0
  1 35  1  0  0  0  0
  1 36  1  0  0  0  0
  1 37  1  0  0  0  0
  2  3  1  0  0  0  0
  3  4  1  0  0  0  0
  3 24  2  0  0  0  0
  4  5  2  0  0  0  0
  4 38  1  0  0  0  0
  5  6  1  0  0  0  0
  5 22  1  0  0  0  0
  6  7  2  0  0  0  0
  7  8  1  0  0  0  0
  7 39  1  0  0  0  0
  8  9  1  0  0  0  0
  8 11  2  0  0  0  0
  9 10  3  0  0  0  0
 11 12  1  0  0  0  0
 11 22  1  0  0  0  0
 12 13  1  0  0  0  0
 12 40  1  0  0  0  0
 13 14  1  0  0  0  0
 13 15  1  0  0  0  0
 13 41  1  6  0  0  0
 14 15  1  0  0  0  0
 14 42  1  0  0  0  0
 14 43  1  0  0  0  0
 15 16  1  0  0  0  0
 15 44  1  1  0  0  0
 16 17  1  0  0  0  0
 16 21  2  0  0  0  0
 17 18  2  0  0  0  0
 17 45  1  0  0  0  0
 18 19  1  0  0  0  0
 18 46  1  0  0  0  0
 19 20  2  0  0  0  0
 19 47  1  0  0  0  0
 20 21  1  0  0  0  0
 20 48  1  0  0  0  0
 21 49  1  0  0  0  0
 22 23  2  0  0  0  0
 23 24  1  0  0  0  0
 23 50  1  0  0  0  0
 24 25  1  0  0  0  0
 25 26  1  0  0  0  0
 26 27  1  0  0  0  0
 26 51  1  0  0  0  0
 26 52  1  0  0  0  0
 27 28  1  0  0  0  0
 27 53  1  0  0  0  0
 27 54  1  0  0  0  0
 28 29  1  0  0  0  0
 28 55  1  0  0  0  0
 28 56  1  0  0  0  0
 29 30  1  0  0  0  0
 29 34  1  0  0  0  0
 30 31  1  0  0  0  0
 30 57  1  0  0  0  0
 30 58  1  0  0  0  0
 31 32  1  0  0  0  0
 31 59  1  0  0  0  0
 31 60  1  0  0  0  0
 32 33  1  0  0  0  0
 33 34  1  0  0  0  0
 33 61  1  0  0  0  0
 33 62  1  0  0  0  0
 34 63  1  0  0  0  0
 34 64  1  0  0  0  0
M  END
$$$$
