CHEMBL4469330
 OpenBabel04072215383D

 53 56  0  0  0  0  0  0  0  0999 V2000
    2.4670   -0.5440   -1.7451 C   0  0  0  0  0  0  0  0  0  0  0  0
    2.8571   -0.1425   -0.4400 O   0  0  0  0  0  0  0  0  0  0  0  0
    3.5203   -1.0600    0.3232 C   0  0  0  0  0  0  0  0  0  0  0  0
    3.8392   -2.3686   -0.0458 C   0  0  0  0  0  0  0  0  0  0  0  0
    4.5522   -3.1984    0.8326 C   0  0  0  0  0  0  0  0  0  0  0  0
    4.9257   -2.7292    2.0982 C   0  0  0  0  0  0  0  0  0  0  0  0
    5.7033   -3.5286    3.0821 C   0  0  0  0  0  0  0  0  0  0  0  0
    6.4042   -2.9088    3.8752 O   0  0  0  0  0  0  0  0  0  0  0  0
    5.5743   -4.9050    3.0228 N   0  0  0  0  0  0  0  0  0  0  0  0
    6.1946   -5.8243    3.8998 C   0  0  0  0  0  0  0  0  0  0  0  0
    6.7991   -5.4485    5.1099 C   0  0  0  0  0  0  0  0  0  0  0  0
    7.4487   -6.3865    5.9108 C   0  0  0  0  0  0  0  0  0  0  0  0
    7.5041   -7.7113    5.5034 C   0  0  0  0  0  0  0  0  0  0  0  0
    8.2378   -8.6907    6.3397 C   0  0  0  0  0  0  0  0  0  0  0  0
    8.0198   -8.7622    7.5422 O   0  0  0  0  0  0  0  0  0  0  0  0
    9.1188   -9.4675    5.6127 N   0  0  0  0  0  0  0  0  0  0  0  0
    9.2343  -10.7814    5.9502 N   0  0  0  0  0  0  0  0  0  0  0  0
    9.7910  -11.5406    5.0636 C   0  0  0  0  0  0  0  0  0  0  0  0
   10.5027  -11.1519    3.7629 C   0  0  0  0  0  0  0  0  0  0  0  0
   10.8936  -10.0412    3.4779 O   0  0  0  0  0  0  0  0  0  0  0  0
   10.4646  -12.2842    2.9800 N   0  0  0  0  0  0  0  0  0  0  0  0
    9.6806  -13.2518    3.6010 C   0  0  0  0  0  0  0  0  0  0  0  0
    8.9419  -14.2376    2.9900 C   0  0  0  0  0  0  0  0  0  0  0  0
    8.0415  -14.9530    3.7946 C   0  0  0  0  0  0  0  0  0  0  0  0
    7.9772  -14.7507    5.1919 C   0  0  0  0  0  0  0  0  0  0  0  0
    7.1544  -15.4277    6.0491 O   0  0  0  0  0  0  0  0  0  0  0  0
    6.6108  -16.6454    5.5587 C   0  0  0  0  0  0  0  0  0  0  0  0
    8.7075  -13.7252    5.7853 C   0  0  0  0  0  0  0  0  0  0  0  0
    9.4857  -12.9587    4.9472 C   0  0  0  0  0  0  0  0  0  0  0  0
    6.8432   -8.1199    4.3310 C   0  0  0  0  0  0  0  0  0  0  0  0
    6.1748   -7.1788    3.5396 C   0  0  0  0  0  0  0  0  0  0  0  0
    4.6031   -1.4152    2.4606 C   0  0  0  0  0  0  0  0  0  0  0  0
    3.9083   -0.5902    1.5792 C   0  0  0  0  0  0  0  0  0  0  0  0
    2.0009    0.3184   -2.2309 H   0  0  0  0  0  0  0  0  0  0  0  0
    1.7242   -1.3464   -1.7006 H   0  0  0  0  0  0  0  0  0  0  0  0
    3.3329   -0.8362   -2.3477 H   0  0  0  0  0  0  0  0  0  0  0  0
    3.5691   -2.7669   -1.0183 H   0  0  0  0  0  0  0  0  0  0  0  0
    4.8362   -4.1861    0.4864 H   0  0  0  0  0  0  0  0  0  0  0  0
    5.0203   -5.3042    2.2788 H   0  0  0  0  0  0  0  0  0  0  0  0
    6.7904   -4.4190    5.4522 H   0  0  0  0  0  0  0  0  0  0  0  0
    7.9051   -6.0714    6.8453 H   0  0  0  0  0  0  0  0  0  0  0  0
    9.2934   -9.2134    4.6410 H   0  0  0  0  0  0  0  0  0  0  0  0
   10.8541  -12.3310    2.0503 H   0  0  0  0  0  0  0  0  0  0  0  0
    8.9217  -14.3483    1.9108 H   0  0  0  0  0  0  0  0  0  0  0  0
    7.3378  -15.6190    3.3023 H   0  0  0  0  0  0  0  0  0  0  0  0
    6.1603  -17.1755    6.4022 H   0  0  0  0  0  0  0  0  0  0  0  0
    7.3906  -17.2882    5.1361 H   0  0  0  0  0  0  0  0  0  0  0  0
    5.8226  -16.4461    4.8262 H   0  0  0  0  0  0  0  0  0  0  0  0
    8.5868  -13.4704    6.8331 H   0  0  0  0  0  0  0  0  0  0  0  0
    6.8275   -9.1719    4.0471 H   0  0  0  0  0  0  0  0  0  0  0  0
    5.6717   -7.5082    2.6265 H   0  0  0  0  0  0  0  0  0  0  0  0
    4.9014   -1.0221    3.4322 H   0  0  0  0  0  0  0  0  0  0  0  0
    3.6713    0.4284    1.8744 H   0  0  0  0  0  0  0  0  0  0  0  0
  1  2  1  0  0  0  0
  1 34  1  0  0  0  0
  1 35  1  0  0  0  0
  1 36  1  0  0  0  0
  2  3  1  0  0  0  0
  3  4  1  0  0  0  0
  3 33  2  0  0  0  0
  4  5  2  0  0  0  0
  4 37  1  0  0  0  0
  5  6  1  0  0  0  0
  5 38  1  0  0  0  0
  6  7  1  0  0  0  0
  6 32  2  0  0  0  0
  7  8  2  0  0  0  0
  7  9  1  0  0  0  0
  9 10  1  0  0  0  0
  9 39  1  0  0  0  0
 10 11  1  0  0  0  0
 10 31  2  0  0  0  0
 11 12  2  0  0  0  0
 11 40  1  0  0  0  0
 12 13  1  0  0  0  0
 12 41  1  0  0  0  0
 13 14  1  0  0  0  0
 13 30  2  0  0  0  0
 14 15  2  0  0  0  0
 14 16  1  0  0  0  0
 16 17  1  0  0  0  0
 16 42  1  0  0  0  0
 17 18  2  0  0  0  0
 18 19  1  0  0  0  0
 18 29  1  0  0  0  0
 19 20  2  0  0  0  0
 19 21  1  0  0  0  0
 21 22  1  0  0  0  0
 21 43  1  0  0  0  0
 22 23  1  0  0  0  0
 22 29  2  0  0  0  0
 23 24  2  0  0  0  0
 23 44  1  0  0  0  0
 24 25  1  0  0  0  0
 24 45  1  0  0  0  0
 25 26  1  0  0  0  0
 25 28  2  0  0  0  0
 26 27  1  0  0  0  0
 27 46  1  0  0  0  0
 27 47  1  0  0  0  0
 27 48  1  0  0  0  0
 28 29  1  0  0  0  0
 28 49  1  0  0  0  0
 30 31  1  0  0  0  0
 30 50  1  0  0  0  0
 31 51  1  0  0  0  0
 32 33  1  0  0  0  0
 32 52  1  0  0  0  0
 33 53  1  0  0  0  0
M  END
$$$$
