CHEMBL517021
 OpenBabel04072215383D

 51 55  0  0  0  0  0  0  0  0999 V2000
   -0.6964    2.8067   -7.0694 F   0  0  0  0  0  0  0  0  0  0  0  0
    0.6622    2.8761   -7.0853 C   0  0  0  0  0  0  0  0  0  0  0  0
    1.0554    2.2679   -8.2396 F   0  0  0  0  0  0  0  0  0  0  0  0
    0.9734    4.1924   -7.2350 F   0  0  0  0  0  0  0  0  0  0  0  0
    1.3197    2.2642   -5.8723 C   0  0  0  0  0  0  0  0  0  0  0  0
    0.5584    1.7199   -4.8281 C   0  0  0  0  0  0  0  0  0  0  0  0
    1.1843    1.1106   -3.7406 C   0  0  0  0  0  0  0  0  0  0  0  0
    2.5765    1.0214   -3.6945 C   0  0  0  0  0  0  0  0  0  0  0  0
    3.3544    1.5631   -4.7295 C   0  0  0  0  0  0  0  0  0  0  0  0
    4.7629    1.3991   -4.7092 N   0  0  0  0  0  0  0  0  0  0  0  0
    5.7110    1.9186   -5.5646 C   0  0  0  0  0  0  0  0  0  0  0  0
    6.8923    1.3195   -5.1887 C   0  0  0  0  0  0  0  0  0  0  0  0
    8.2327    1.5261   -5.7240 C   0  0  0  0  0  0  0  0  0  0  0  0
    9.2813    1.4120   -4.7820 C   0  0  0  0  0  0  0  0  0  0  0  0
   10.6116    1.5931   -5.1420 C   0  0  0  0  0  0  0  0  0  0  0  0
   10.9179    1.9181   -6.4513 C   0  0  0  0  0  0  0  0  0  0  0  0
    9.8969    2.0275   -7.4005 C   0  0  0  0  0  0  0  0  0  0  0  0
    8.5432    1.7846   -7.0859 C   0  0  0  0  0  0  0  0  0  0  0  0
    7.5536    1.8652   -8.0757 N   0  0  0  0  0  0  0  0  0  0  0  0
    7.8512    1.8372   -9.5090 C   0  0  0  0  0  0  0  0  0  0  0  0
    8.3581    0.5169  -10.0714 C   0  0  0  0  0  0  0  0  0  0  0  0
    8.3229   -0.6702   -9.3292 C   0  0  0  0  0  0  0  0  0  0  0  0
    8.8227   -1.8295   -9.8910 C   0  0  0  0  0  0  0  0  0  0  0  0
    9.3487   -1.8952  -11.1310 N   0  0  0  0  0  0  0  0  0  0  0  0
    9.3835   -0.7764  -11.8632 C   0  0  0  0  0  0  0  0  0  0  0  0
    9.9467   -0.8440  -13.1299 C   0  0  0  0  0  0  0  0  0  0  0  0
   10.0335    0.2693  -13.9660 C   0  0  0  0  0  0  0  0  0  0  0  0
    9.5179    1.4834  -13.5411 C   0  0  0  0  0  0  0  0  0  0  0  0
    8.9400    1.5775  -12.2714 C   0  0  0  0  0  0  0  0  0  0  0  0
    8.8822    0.4669  -11.3975 C   0  0  0  0  0  0  0  0  0  0  0  0
    6.6501    0.5181   -4.1022 N   0  0  0  0  0  0  0  0  0  0  0  0
    5.3638    0.5950   -3.8019 N   0  0  0  0  0  0  0  0  0  0  0  0
    2.7239    2.2043   -5.8034 C   0  0  0  0  0  0  0  0  0  0  0  0
   -0.5299    1.7556   -4.8621 H   0  0  0  0  0  0  0  0  0  0  0  0
    0.5875    0.6862   -2.9360 H   0  0  0  0  0  0  0  0  0  0  0  0
    3.0370    0.5205   -2.8436 H   0  0  0  0  0  0  0  0  0  0  0  0
    5.4811    2.6550   -6.3171 H   0  0  0  0  0  0  0  0  0  0  0  0
    9.0569    1.1775   -3.7416 H   0  0  0  0  0  0  0  0  0  0  0  0
   11.3970    1.4880   -4.3988 H   0  0  0  0  0  0  0  0  0  0  0  0
   11.9517    2.0799   -6.7457 H   0  0  0  0  0  0  0  0  0  0  0  0
   10.2024    2.2844   -8.4103 H   0  0  0  0  0  0  0  0  0  0  0  0
    6.6890    1.3908   -7.8442 H   0  0  0  0  0  0  0  0  0  0  0  0
    8.5569    2.6421   -9.7417 H   0  0  0  0  0  0  0  0  0  0  0  0
    6.9204    2.0806  -10.0371 H   0  0  0  0  0  0  0  0  0  0  0  0
    7.9362   -0.7070   -8.3157 H   0  0  0  0  0  0  0  0  0  0  0  0
    8.8232   -2.7656   -9.3419 H   0  0  0  0  0  0  0  0  0  0  0  0
   10.3406   -1.7987  -13.4751 H   0  0  0  0  0  0  0  0  0  0  0  0
   10.4987    0.1828  -14.9437 H   0  0  0  0  0  0  0  0  0  0  0  0
    9.5659    2.3559  -14.1857 H   0  0  0  0  0  0  0  0  0  0  0  0
    8.5361    2.5439  -11.9827 H   0  0  0  0  0  0  0  0  0  0  0  0
    3.2949    2.6284   -6.6266 H   0  0  0  0  0  0  0  0  0  0  0  0
  1  2  1  0  0  0  0
  2  3  1  0  0  0  0
  2  4  1  0  0  0  0
  2  5  1  0  0  0  0
  5  6  1  0  0  0  0
  5 33  2  0  0  0  0
  6  7  2  0  0  0  0
  6 34  1  0  0  0  0
  7  8  1  0  0  0  0
  7 35  1  0  0  0  0
  8  9  2  0  0  0  0
  8 36  1  0  0  0  0
  9 10  1  0  0  0  0
  9 33  1  0  0  0  0
 10 11  1  0  0  0  0
 10 32  1  0  0  0  0
 11 12  2  0  0  0  0
 11 37  1  0  0  0  0
 12 13  1  0  0  0  0
 12 31  1  0  0  0  0
 13 14  1  0  0  0  0
 13 18  2  0  0  0  0
 14 15  2  0  0  0  0
 14 38  1  0  0  0  0
 15 16  1  0  0  0  0
 15 39  1  0  0  0  0
 16 17  2  0  0  0  0
 16 40  1  0  0  0  0
 17 18  1  0  0  0  0
 17 41  1  0  0  0  0
 18 19  1  0  0  0  0
 19 20  1  0  0  0  0
 19 42  1  0  0  0  0
 20 21  1  0  0  0  0
 20 43  1  0  0  0  0
 20 44  1  0  0  0  0
 21 22  1  0  0  0  0
 21 30  2  0  0  0  0
 22 23  2  0  0  0  0
 22 45  1  0  0  0  0
 23 24  1  0  0  0  0
 23 46  1  0  0  0  0
 24 25  2  0  0  0  0
 25 26  1  0  0  0  0
 25 30  1  0  0  0  0
 26 27  2  0  0  0  0
 26 47  1  0  0  0  0
 27 28  1  0  0  0  0
 27 48  1  0  0  0  0
 28 29  2  0  0  0  0
 28 49  1  0  0  0  0
 29 30  1  0  0  0  0
 29 50  1  0  0  0  0
 31 32  2  0  0  0  0
 33 51  1  0  0  0  0
M  END
$$$$
