CHEMBL2385582
 OpenBabel04072215363D

 52 57  0  0  0  0  0  0  0  0999 V2000
   -1.0303    1.0649   -3.3634 C   0  0  0  0  0  0  0  0  0  0  0  0
   -1.0020   -0.3018   -3.5779 C   0  0  0  0  0  0  0  0  0  0  0  0
   -1.0287   -1.1685   -2.4845 C   0  0  0  0  0  0  0  0  0  0  0  0
   -1.1258   -0.6949   -1.1454 C   0  0  0  0  0  0  0  0  0  0  0  0
   -1.2107   -1.5084    0.0254 C   0  0  0  0  0  0  0  0  0  0  0  0
   -1.2855   -2.9714   -0.0286 C   0  0  0  0  0  0  0  0  0  0  0  0
   -1.9622   -3.8194   -0.9340 C   0  0  0  0  0  0  0  0  0  0  0  0
   -1.7766   -5.1157   -0.6950 N   0  0  0  0  0  0  0  0  0  0  0  0
   -1.0230   -5.1402    0.4279 N   0  0  0  0  0  0  0  0  0  0  0  0
   -0.5693   -6.2671    1.1023 C   0  0  0  0  0  0  0  0  0  0  0  0
    0.1336   -6.1398    2.2365 C   0  0  0  0  0  0  0  0  0  0  0  0
    0.6323   -7.2776    2.9997 C   0  0  0  0  0  0  0  0  0  0  0  0
    1.8929   -7.8109    2.7318 C   0  0  0  0  0  0  0  0  0  0  0  0
    2.3873   -8.8702    3.5029 C   0  0  0  0  0  0  0  0  0  0  0  0
    1.6428   -9.4344    4.5481 C   0  0  0  0  0  0  0  0  0  0  0  0
    2.1377  -10.4535    5.3293 N   0  0  0  0  0  0  0  0  0  0  0  0
    3.5620  -10.6011    5.6597 C   0  0  0  0  0  0  0  0  0  0  0  0
    4.0731  -11.9655    5.1804 C   0  0  0  0  0  0  0  0  0  0  0  0
    3.2751  -13.0417    5.7048 O   0  0  0  0  0  0  0  0  0  0  0  0
    1.9065  -12.8961    5.2867 C   0  0  0  0  0  0  0  0  0  0  0  0
    1.2958  -11.5718    5.7786 C   0  0  0  0  0  0  0  0  0  0  0  0
    0.3645   -8.9022    4.7741 C   0  0  0  0  0  0  0  0  0  0  0  0
   -0.1383   -7.8372    4.0176 C   0  0  0  0  0  0  0  0  0  0  0  0
    0.3645   -4.7299    2.6765 C   0  0  0  0  0  0  0  0  0  0  0  0
   -0.0211   -3.6553    2.0539 N   0  0  0  0  0  0  0  0  0  0  0  0
   -0.7284   -3.8499    0.8919 C   0  0  0  0  0  0  0  0  0  0  0  0
   -1.2579   -0.8815    1.2765 C   0  0  0  0  0  0  0  0  0  0  0  0
   -1.2248    0.4940    1.3385 C   0  0  0  0  0  0  0  0  0  0  0  0
   -1.1706    1.2893    0.2543 N   0  0  0  0  0  0  0  0  0  0  0  0
   -1.1248    0.7094   -0.9543 C   0  0  0  0  0  0  0  0  0  0  0  0
   -1.0779    1.5521   -2.0575 C   0  0  0  0  0  0  0  0  0  0  0  0
   -1.0039    1.7550   -4.2021 H   0  0  0  0  0  0  0  0  0  0  0  0
   -0.9526   -0.6993   -4.5886 H   0  0  0  0  0  0  0  0  0  0  0  0
   -0.9578   -2.2294   -2.7009 H   0  0  0  0  0  0  0  0  0  0  0  0
   -2.5820   -3.5431   -1.7774 H   0  0  0  0  0  0  0  0  0  0  0  0
   -0.8256   -7.2176    0.6541 H   0  0  0  0  0  0  0  0  0  0  0  0
    2.5073   -7.4104    1.9283 H   0  0  0  0  0  0  0  0  0  0  0  0
    3.3665   -9.2678    3.2499 H   0  0  0  0  0  0  0  0  0  0  0  0
    3.6544  -10.5501    6.7518 H   0  0  0  0  0  0  0  0  0  0  0  0
    4.1859   -9.7966    5.2558 H   0  0  0  0  0  0  0  0  0  0  0  0
    5.1006  -12.1190    5.5284 H   0  0  0  0  0  0  0  0  0  0  0  0
    4.0769  -12.0250    4.0864 H   0  0  0  0  0  0  0  0  0  0  0  0
    1.3427  -13.7398    5.6966 H   0  0  0  0  0  0  0  0  0  0  0  0
    1.8627  -12.9637    4.1929 H   0  0  0  0  0  0  0  0  0  0  0  0
    1.2660  -11.5634    6.8744 H   0  0  0  0  0  0  0  0  0  0  0  0
    0.2662  -11.5056    5.4112 H   0  0  0  0  0  0  0  0  0  0  0  0
   -0.2487   -9.2854    5.5861 H   0  0  0  0  0  0  0  0  0  0  0  0
   -1.1269   -7.4463    4.2469 H   0  0  0  0  0  0  0  0  0  0  0  0
    0.9170   -4.6162    3.6256 H   0  0  0  0  0  0  0  0  0  0  0  0
   -1.3248   -1.4468    2.1997 H   0  0  0  0  0  0  0  0  0  0  0  0
   -1.2477    1.0130    2.2925 H   0  0  0  0  0  0  0  0  0  0  0  0
   -1.0797    2.6276   -1.8936 H   0  0  0  0  0  0  0  0  0  0  0  0
  1  2  1  0  0  0  0
  1 31  2  0  0  0  0
  1 32  1  0  0  0  0
  2  3  2  0  0  0  0
  2 33  1  0  0  0  0
  3  4  1  0  0  0  0
  3 34  1  0  0  0  0
  4  5  1  0  0  0  0
  4 30  2  0  0  0  0
  5  6  1  0  0  0  0
  5 27  2  0  0  0  0
  6  7  1  0  0  0  0
  6 26  2  0  0  0  0
  7  8  2  0  0  0  0
  7 35  1  0  0  0  0
  8  9  1  0  0  0  0
  9 10  1  0  0  0  0
  9 26  1  0  0  0  0
 10 11  2  0  0  0  0
 10 36  1  0  0  0  0
 11 12  1  0  0  0  0
 11 24  1  0  0  0  0
 12 13  1  0  0  0  0
 12 23  2  0  0  0  0
 13 14  2  0  0  0  0
 13 37  1  0  0  0  0
 14 15  1  0  0  0  0
 14 38  1  0  0  0  0
 15 16  1  0  0  0  0
 15 22  2  0  0  0  0
 16 17  1  0  0  0  0
 16 21  1  0  0  0  0
 17 18  1  0  0  0  0
 17 39  1  0  0  0  0
 17 40  1  0  0  0  0
 18 19  1  0  0  0  0
 18 41  1  0  0  0  0
 18 42  1  0  0  0  0
 19 20  1  0  0  0  0
 20 21  1  0  0  0  0
 20 43  1  0  0  0  0
 20 44  1  0  0  0  0
 21 45  1  0  0  0  0
 21 46  1  0  0  0  0
 22 23  1  0  0  0  0
 22 47  1  0  0  0  0
 23 48  1  0  0  0  0
 24 25  2  0  0  0  0
 24 49  1  0  0  0  0
 25 26  1  0  0  0  0
 27 28  1  0  0  0  0
 27 50  1  0  0  0  0
 28 29  2  0  0  0  0
 28 51  1  0  0  0  0
 29 30  1  0  0  0  0
 30 31  1  0  0  0  0
 31 52  1  0  0  0  0
M  END
$$$$
