CHEMBL4794096
 OpenBabel04072215383D

 57 59  0  0  0  0  0  0  0  0999 V2000
    4.8407   -0.7347   -2.4607 C   0  0  0  0  0  0  0  0  0  0  0  0
    4.4635   -1.2018   -1.0611 C   0  0  0  0  0  0  0  0  0  0  0  0
    4.8713   -0.3210    0.0500 N   0  0  0  0  0  0  0  0  0  0  0  0
    4.3520    1.0572   -0.0745 C   0  0  0  0  0  0  0  0  0  0  0  0
    2.8341    1.2354   -0.0157 C   0  0  0  0  0  0  0  0  0  0  0  0
    4.4891   -0.9243    1.3513 C   0  0  0  0  0  0  0  0  0  0  0  0
    5.0929   -2.3158    1.6377 C   0  0  0  0  0  0  0  0  0  0  0  0
    6.5352   -2.3437    1.6809 N   0  0  0  0  0  0  0  0  0  0  0  0
    7.1874   -3.5359    1.9146 C   0  0  0  0  0  0  0  0  0  0  0  0
    6.5756   -4.5840    2.1098 O   0  0  0  0  0  0  0  0  0  0  0  0
    8.6511   -3.4834    1.8709 C   0  0  0  0  0  0  0  0  0  0  0  0
    9.4801   -2.4131    2.1888 C   0  0  0  0  0  0  0  0  0  0  0  0
    9.2241   -1.0325    2.6771 C   0  0  0  0  0  0  0  0  0  0  0  0
   10.7815   -2.8313    2.0394 N   0  0  0  0  0  0  0  0  0  0  0  0
   10.8336   -4.1455    1.6615 C   0  0  0  0  0  0  0  0  0  0  0  0
   12.0618   -4.8282    1.4611 C   0  0  0  0  0  0  0  0  0  0  0  0
   13.3220   -4.3948    1.5849 C   0  0  0  0  0  0  0  0  0  0  0  0
   13.9061   -3.0612    1.9719 C   0  0  0  0  0  0  0  0  0  0  0  0
   13.3123   -2.0391    2.2725 O   0  0  0  0  0  0  0  0  0  0  0  0
   15.2826   -3.2322    1.9150 N   0  0  0  0  0  0  0  0  0  0  0  0
   15.6184   -4.5313    1.5352 C   0  0  0  0  0  0  0  0  0  0  0  0
   16.8836   -5.0569    1.3715 C   0  0  0  0  0  0  0  0  0  0  0  0
   16.9777   -6.3982    0.9785 C   0  0  0  0  0  0  0  0  0  0  0  0
   15.8194   -7.1728    0.7641 C   0  0  0  0  0  0  0  0  0  0  0  0
   15.9236   -8.5418    0.3564 C   0  0  0  0  0  0  0  0  0  0  0  0
   15.9850   -9.6528    0.0252 N   0  0  0  0  0  0  0  0  0  0  0  0
   14.5493   -6.6130    0.9375 C   0  0  0  0  0  0  0  0  0  0  0  0
   14.4650   -5.2838    1.3237 C   0  0  0  0  0  0  0  0  0  0  0  0
    9.5217   -4.5897    1.5464 C   0  0  0  0  0  0  0  0  0  0  0  0
    9.0648   -5.9609    1.1587 C   0  0  0  0  0  0  0  0  0  0  0  0
    4.7501   -1.5796   -3.1538 H   0  0  0  0  0  0  0  0  0  0  0  0
    5.8763   -0.3838   -2.5039 H   0  0  0  0  0  0  0  0  0  0  0  0
    4.1769    0.0571   -2.8184 H   0  0  0  0  0  0  0  0  0  0  0  0
    4.9679   -2.1650   -0.9462 H   0  0  0  0  0  0  0  0  0  0  0  0
    3.3867   -1.4034   -1.0260 H   0  0  0  0  0  0  0  0  0  0  0  0
    4.7145    1.4957   -1.0116 H   0  0  0  0  0  0  0  0  0  0  0  0
    4.8027    1.6813    0.7096 H   0  0  0  0  0  0  0  0  0  0  0  0
    2.3053    0.4981   -0.6247 H   0  0  0  0  0  0  0  0  0  0  0  0
    2.5611    2.2244   -0.3997 H   0  0  0  0  0  0  0  0  0  0  0  0
    2.4614    1.1664    1.0116 H   0  0  0  0  0  0  0  0  0  0  0  0
    3.3985   -1.0268    1.4081 H   0  0  0  0  0  0  0  0  0  0  0  0
    4.7945   -0.2503    2.1622 H   0  0  0  0  0  0  0  0  0  0  0  0
    4.7646   -3.0556    0.9003 H   0  0  0  0  0  0  0  0  0  0  0  0
    4.7283   -2.6754    2.6068 H   0  0  0  0  0  0  0  0  0  0  0  0
    7.0489   -1.5961    1.2310 H   0  0  0  0  0  0  0  0  0  0  0  0
    8.1655   -0.8218    2.8331 H   0  0  0  0  0  0  0  0  0  0  0  0
    9.6130   -0.3012    1.9610 H   0  0  0  0  0  0  0  0  0  0  0  0
    9.7216   -0.8752    3.6392 H   0  0  0  0  0  0  0  0  0  0  0  0
   11.5901   -2.2440    2.2216 H   0  0  0  0  0  0  0  0  0  0  0  0
   11.9275   -5.8652    1.1657 H   0  0  0  0  0  0  0  0  0  0  0  0
   15.9333   -2.4910    2.1274 H   0  0  0  0  0  0  0  0  0  0  0  0
   17.7773   -4.4614    1.5370 H   0  0  0  0  0  0  0  0  0  0  0  0
   17.9610   -6.8453    0.8364 H   0  0  0  0  0  0  0  0  0  0  0  0
   13.6582   -7.2090    0.7695 H   0  0  0  0  0  0  0  0  0  0  0  0
    9.8990   -6.6388    0.9562 H   0  0  0  0  0  0  0  0  0  0  0  0
    8.4547   -5.9159    0.2509 H   0  0  0  0  0  0  0  0  0  0  0  0
    8.4727   -6.4119    1.9610 H   0  0  0  0  0  0  0  0  0  0  0  0
  1  2  1  0  0  0  0
  1 31  1  0  0  0  0
  1 32  1  0  0  0  0
  1 33  1  0  0  0  0
  2  3  1  0  0  0  0
  2 34  1  0  0  0  0
  2 35  1  0  0  0  0
  3  4  1  0  0  0  0
  3  6  1  0  0  0  0
  4  5  1  0  0  0  0
  4 36  1  0  0  0  0
  4 37  1  0  0  0  0
  5 38  1  0  0  0  0
  5 39  1  0  0  0  0
  5 40  1  0  0  0  0
  6  7  1  0  0  0  0
  6 41  1  0  0  0  0
  6 42  1  0  0  0  0
  7  8  1  0  0  0  0
  7 43  1  0  0  0  0
  7 44  1  0  0  0  0
  8  9  1  0  0  0  0
  8 45  1  0  0  0  0
  9 10  2  0  0  0  0
  9 11  1  0  0  0  0
 11 12  2  0  0  0  0
 11 29  1  0  0  0  0
 12 13  1  0  0  0  0
 12 14  1  0  0  0  0
 13 46  1  0  0  0  0
 13 47  1  0  0  0  0
 13 48  1  0  0  0  0
 14 15  1  0  0  0  0
 14 49  1  0  0  0  0
 15 16  1  0  0  0  0
 15 29  2  0  0  0  0
 16 17  2  0  0  0  0
 16 50  1  0  0  0  0
 17 18  1  0  0  0  0
 17 28  1  0  0  0  0
 18 19  2  0  0  0  0
 18 20  1  0  0  0  0
 20 21  1  0  0  0  0
 20 51  1  0  0  0  0
 21 22  1  0  0  0  0
 21 28  2  0  0  0  0
 22 23  2  0  0  0  0
 22 52  1  0  0  0  0
 23 24  1  0  0  0  0
 23 53  1  0  0  0  0
 24 25  1  0  0  0  0
 24 27  2  0  0  0  0
 25 26  3  0  0  0  0
 27 28  1  0  0  0  0
 27 54  1  0  0  0  0
 29 30  1  0  0  0  0
 30 55  1  0  0  0  0
 30 56  1  0  0  0  0
 30 57  1  0  0  0  0
M  END
$$$$
