CHEMBL1076466
 OpenBabel04072215353D

 71 75  0  0  0  0  0  0  0  0999 V2000
    0.0531   -1.6611    2.8848 C   0  0  0  0  0  0  0  0  0  0  0  0
    0.7963   -0.6638    2.0366 C   0  0  0  0  0  0  0  0  0  0  0  0
    0.7990    0.6813    2.4151 C   0  0  0  0  0  0  0  0  0  0  0  0
    1.4789    1.6256    1.6517 C   0  0  0  0  0  0  0  0  0  0  0  0
    2.1812    1.2513    0.5034 C   0  0  0  0  0  0  0  0  0  0  0  0
    2.8855    2.1723   -0.3070 N   0  0  0  0  0  0  0  0  0  0  0  0
    2.9705    3.5432   -0.1115 C   0  0  0  0  0  0  0  0  0  0  0  0
    2.4190    4.1914    0.7679 O   0  0  0  0  0  0  0  0  0  0  0  0
    3.7918    4.3035   -1.0930 C   0  0  0  0  0  0  0  0  0  0  0  0
    4.9240    3.7645   -1.7104 C   0  0  0  0  0  0  0  0  0  0  0  0
    5.6864    4.5530   -2.5764 C   0  0  0  0  0  0  0  0  0  0  0  0
    5.3169    5.8788   -2.8353 C   0  0  0  0  0  0  0  0  0  0  0  0
    4.1806    6.4343   -2.2270 C   0  0  0  0  0  0  0  0  0  0  0  0
    3.7504    7.8528   -2.5088 C   0  0  0  0  0  0  0  0  0  0  0  0
    4.5624    8.5015   -3.3899 F   0  0  0  0  0  0  0  0  0  0  0  0
    2.4998    7.9162   -3.0417 F   0  0  0  0  0  0  0  0  0  0  0  0
    3.7223    8.6258   -1.3886 F   0  0  0  0  0  0  0  0  0  0  0  0
    3.4334    5.6376   -1.3478 C   0  0  0  0  0  0  0  0  0  0  0  0
    2.1732   -0.0989    0.1130 C   0  0  0  0  0  0  0  0  0  0  0  0
    1.4801   -1.0513    0.8597 C   0  0  0  0  0  0  0  0  0  0  0  0
    1.2289   -2.3619    0.3897 N   0  0  0  0  0  0  0  0  0  0  0  0
    1.9166   -3.1484   -0.4846 C   0  0  0  0  0  0  0  0  0  0  0  0
    1.2092   -3.9501   -1.2727 N   0  0  0  0  0  0  0  0  0  0  0  0
    1.3787   -5.1760   -0.6714 C   0  0  0  0  0  0  0  0  0  0  0  0
    0.5852   -6.3226   -0.7180 C   0  0  0  0  0  0  0  0  0  0  0  0
    0.8920   -7.3795    0.1538 C   0  0  0  0  0  0  0  0  0  0  0  0
    2.0063   -7.3195    0.9960 C   0  0  0  0  0  0  0  0  0  0  0  0
    2.8664   -6.2167    0.9880 C   0  0  0  0  0  0  0  0  0  0  0  0
    2.5051   -5.1536    0.1523 C   0  0  0  0  0  0  0  0  0  0  0  0
    3.0330   -3.8920   -0.0944 N   0  0  0  0  0  0  0  0  0  0  0  0
    4.4068   -3.5489   -0.2049 C   0  0  0  0  0  0  0  0  0  0  0  0
    5.3014   -4.5595   -0.5275 C   0  0  0  0  0  0  0  0  0  0  0  0
    6.6424   -4.2383   -0.6273 C   0  0  0  0  0  0  0  0  0  0  0  0
    7.5349   -5.2760   -0.9396 N   0  0  0  0  0  0  0  0  0  0  0  0
    8.9593   -4.9729   -0.8595 C   0  0  0  0  0  0  0  0  0  0  0  0
    9.7862   -6.0628   -1.5543 C   0  0  0  0  0  0  0  0  0  0  0  0
    9.7358   -5.9474   -3.0853 C   0  0  0  0  0  0  0  0  0  0  0  0
   10.5749   -7.0090   -3.7990 C   0  0  0  0  0  0  0  0  0  0  0  0
   11.9914   -6.8876   -3.4790 N   0  0  0  0  0  0  0  0  0  0  0  0
    7.0676   -2.9911   -0.3909 N   0  0  0  0  0  0  0  0  0  0  0  0
    6.1234   -2.0694   -0.1176 C   0  0  0  0  0  0  0  0  0  0  0  0
    4.7972   -2.2703   -0.0533 N   0  0  0  0  0  0  0  0  0  0  0  0
   -0.3773   -1.1905    3.7753 H   0  0  0  0  0  0  0  0  0  0  0  0
    0.7357   -2.4459    3.2291 H   0  0  0  0  0  0  0  0  0  0  0  0
   -0.7693   -2.1140    2.3218 H   0  0  0  0  0  0  0  0  0  0  0  0
    0.2573    1.0083    3.2999 H   0  0  0  0  0  0  0  0  0  0  0  0
    1.4247    2.6561    1.9852 H   0  0  0  0  0  0  0  0  0  0  0  0
    3.3206    1.7827   -1.1319 H   0  0  0  0  0  0  0  0  0  0  0  0
    5.2563    2.7528   -1.5022 H   0  0  0  0  0  0  0  0  0  0  0  0
    6.5779    4.1435   -3.0468 H   0  0  0  0  0  0  0  0  0  0  0  0
    5.9267    6.4790   -3.5105 H   0  0  0  0  0  0  0  0  0  0  0  0
    2.5603    6.0615   -0.8513 H   0  0  0  0  0  0  0  0  0  0  0  0
    2.6741   -0.4047   -0.8013 H   0  0  0  0  0  0  0  0  0  0  0  0
    0.2433   -2.3762    0.1212 H   0  0  0  0  0  0  0  0  0  0  0  0
   -0.2978   -6.3528   -1.3473 H   0  0  0  0  0  0  0  0  0  0  0  0
    0.2337   -8.2435    0.1941 H   0  0  0  0  0  0  0  0  0  0  0  0
    2.1992   -8.1393    1.6855 H   0  0  0  0  0  0  0  0  0  0  0  0
    3.7222   -6.1609    1.6542 H   0  0  0  0  0  0  0  0  0  0  0  0
    4.9861   -5.5756   -0.7315 H   0  0  0  0  0  0  0  0  0  0  0  0
    7.2561   -5.7404   -1.7980 H   0  0  0  0  0  0  0  0  0  0  0  0
    9.2409   -4.9518    0.2011 H   0  0  0  0  0  0  0  0  0  0  0  0
    9.2087   -3.9980   -1.2947 H   0  0  0  0  0  0  0  0  0  0  0  0
    9.4427   -7.0581   -1.2460 H   0  0  0  0  0  0  0  0  0  0  0  0
   10.8255   -5.9628   -1.2199 H   0  0  0  0  0  0  0  0  0  0  0  0
   10.0740   -4.9483   -3.3895 H   0  0  0  0  0  0  0  0  0  0  0  0
    8.6999   -6.0452   -3.4302 H   0  0  0  0  0  0  0  0  0  0  0  0
   10.4446   -6.9034   -4.8823 H   0  0  0  0  0  0  0  0  0  0  0  0
   10.2261   -8.0101   -3.5241 H   0  0  0  0  0  0  0  0  0  0  0  0
   12.3357   -5.9747   -3.7741 H   0  0  0  0  0  0  0  0  0  0  0  0
   12.5203   -7.5764   -4.0137 H   0  0  0  0  0  0  0  0  0  0  0  0
    6.4770   -1.0628    0.0758 H   0  0  0  0  0  0  0  0  0  0  0  0
  1  2  1  0  0  0  0
  1 43  1  0  0  0  0
  1 44  1  0  0  0  0
  1 45  1  0  0  0  0
  2  3  1  0  0  0  0
  2 20  2  0  0  0  0
  3  4  2  0  0  0  0
  3 46  1  0  0  0  0
  4  5  1  0  0  0  0
  4 47  1  0  0  0  0
  5  6  1  0  0  0  0
  5 19  2  0  0  0  0
  6  7  1  0  0  0  0
  6 48  1  0  0  0  0
  7  8  2  0  0  0  0
  7  9  1  0  0  0  0
  9 10  1  0  0  0  0
  9 18  2  0  0  0  0
 10 11  2  0  0  0  0
 10 49  1  0  0  0  0
 11 12  1  0  0  0  0
 11 50  1  0  0  0  0
 12 13  2  0  0  0  0
 12 51  1  0  0  0  0
 13 14  1  0  0  0  0
 13 18  1  0  0  0  0
 14 15  1  0  0  0  0
 14 16  1  0  0  0  0
 14 17  1  0  0  0  0
 18 52  1  0  0  0  0
 19 20  1  0  0  0  0
 19 53  1  0  0  0  0
 20 21  1  0  0  0  0
 21 22  1  0  0  0  0
 21 54  1  0  0  0  0
 22 23  2  0  0  0  0
 22 30  1  0  0  0  0
 23 24  1  0  0  0  0
 24 25  1  0  0  0  0
 24 29  2  0  0  0  0
 25 26  2  0  0  0  0
 25 55  1  0  0  0  0
 26 27  1  0  0  0  0
 26 56  1  0  0  0  0
 27 28  2  0  0  0  0
 27 57  1  0  0  0  0
 28 29  1  0  0  0  0
 28 58  1  0  0  0  0
 29 30  1  0  0  0  0
 30 31  1  0  0  0  0
 31 32  1  0  0  0  0
 31 42  2  0  0  0  0
 32 33  2  0  0  0  0
 32 59  1  0  0  0  0
 33 34  1  0  0  0  0
 33 40  1  0  0  0  0
 34 35  1  0  0  0  0
 34 60  1  0  0  0  0
 35 36  1  0  0  0  0
 35 61  1  0  0  0  0
 35 62  1  0  0  0  0
 36 37  1  0  0  0  0
 36 63  1  0  0  0  0
 36 64  1  0  0  0  0
 37 38  1  0  0  0  0
 37 65  1  0  0  0  0
 37 66  1  0  0  0  0
 38 39  1  0  0  0  0
 38 67  1  0  0  0  0
 38 68  1  0  0  0  0
 39 69  1  0  0  0  0
 39 70  1  0  0  0  0
 40 41  2  0  0  0  0
 41 42  1  0  0  0  0
 41 71  1  0  0  0  0
M  END
$$$$
