CHEMBL94191
 OpenBabel04072215383D

 36 38  0  0  0  0  0  0  0  0999 V2000
    3.4134    0.9254    0.8646 C   0  0  0  0  0  0  0  0  0  0  0  0
    2.4801    0.3125   -0.0304 O   0  0  0  0  0  0  0  0  0  0  0  0
    3.0257   -0.5685   -0.9268 C   0  0  0  0  0  0  0  0  0  0  0  0
    4.1742   -1.3176   -0.6058 C   0  0  0  0  0  0  0  0  0  0  0  0
    4.8400   -2.1018   -1.5361 C   0  0  0  0  0  0  0  0  0  0  0  0
    5.9833   -2.6920   -1.1779 N   0  0  0  0  0  0  0  0  0  0  0  0
    6.6208   -3.3791   -2.1318 C   0  0  0  0  0  0  0  0  0  0  0  0
    6.2222   -3.5236   -3.3936 N   0  0  0  0  0  0  0  0  0  0  0  0
    5.0630   -2.9377   -3.7457 C   0  0  0  0  0  0  0  0  0  0  0  0
    4.6011   -3.0205   -5.0864 N   0  0  0  0  0  0  0  0  0  0  0  0
    5.1122   -3.8059   -6.1421 C   0  0  0  0  0  0  0  0  0  0  0  0
    5.8023   -5.0030   -5.9247 C   0  0  0  0  0  0  0  0  0  0  0  0
    6.2837   -5.7627   -6.9910 C   0  0  0  0  0  0  0  0  0  0  0  0
    6.0366   -5.3575   -8.2969 C   0  0  0  0  0  0  0  0  0  0  0  0
    5.2913   -4.2067   -8.5367 C   0  0  0  0  0  0  0  0  0  0  0  0
    4.8204   -3.4421   -7.4660 C   0  0  0  0  0  0  0  0  0  0  0  0
    4.3015   -2.2070   -2.8179 C   0  0  0  0  0  0  0  0  0  0  0  0
    3.0707   -1.5778   -3.1043 C   0  0  0  0  0  0  0  0  0  0  0  0
    2.4368   -0.7417   -2.1820 C   0  0  0  0  0  0  0  0  0  0  0  0
    1.3087   -0.1893   -2.7141 O   0  0  0  0  0  0  0  0  0  0  0  0
    0.6137    0.8262   -2.0146 C   0  0  0  0  0  0  0  0  0  0  0  0
    3.0643    1.9451    1.0725 H   0  0  0  0  0  0  0  0  0  0  0  0
    4.4225    1.0168    0.4514 H   0  0  0  0  0  0  0  0  0  0  0  0
    3.4347    0.3725    1.8086 H   0  0  0  0  0  0  0  0  0  0  0  0
    4.6011   -1.2750    0.3932 H   0  0  0  0  0  0  0  0  0  0  0  0
    7.5571   -3.8520   -1.8547 H   0  0  0  0  0  0  0  0  0  0  0  0
    4.3656   -2.0872   -5.4120 H   0  0  0  0  0  0  0  0  0  0  0  0
    5.9850   -5.3615   -4.9168 H   0  0  0  0  0  0  0  0  0  0  0  0
    6.8469   -6.6697   -6.7916 H   0  0  0  0  0  0  0  0  0  0  0  0
    6.4144   -5.9473   -9.1285 H   0  0  0  0  0  0  0  0  0  0  0  0
    5.0751   -3.9028   -9.5581 H   0  0  0  0  0  0  0  0  0  0  0  0
    4.2329   -2.5540   -7.6795 H   0  0  0  0  0  0  0  0  0  0  0  0
    2.5998   -1.7146   -4.0764 H   0  0  0  0  0  0  0  0  0  0  0  0
   -0.0876    1.2760   -2.7270 H   0  0  0  0  0  0  0  0  0  0  0  0
    1.2756    1.6272   -1.6773 H   0  0  0  0  0  0  0  0  0  0  0  0
    0.0262    0.4008   -1.1965 H   0  0  0  0  0  0  0  0  0  0  0  0
  1  2  1  0  0  0  0
  1 22  1  0  0  0  0
  1 23  1  0  0  0  0
  1 24  1  0  0  0  0
  2  3  1  0  0  0  0
  3  4  1  0  0  0  0
  3 19  2  0  0  0  0
  4  5  2  0  0  0  0
  4 25  1  0  0  0  0
  5  6  1  0  0  0  0
  5 17  1  0  0  0  0
  6  7  2  0  0  0  0
  7  8  1  0  0  0  0
  7 26  1  0  0  0  0
  8  9  2  0  0  0  0
  9 10  1  0  0  0  0
  9 17  1  0  0  0  0
 10 11  1  0  0  0  0
 10 27  1  0  0  0  0
 11 12  1  0  0  0  0
 11 16  2  0  0  0  0
 12 13  2  0  0  0  0
 12 28  1  0  0  0  0
 13 14  1  0  0  0  0
 13 29  1  0  0  0  0
 14 15  2  0  0  0  0
 14 30  1  0  0  0  0
 15 16  1  0  0  0  0
 15 31  1  0  0  0  0
 16 32  1  0  0  0  0
 17 18  2  0  0  0  0
 18 19  1  0  0  0  0
 18 33  1  0  0  0  0
 19 20  1  0  0  0  0
 20 21  1  0  0  0  0
 21 34  1  0  0  0  0
 21 35  1  0  0  0  0
 21 36  1  0  0  0  0
M  END
$$$$
