CHEMBL3937857
 OpenBabel04072215373D

 53 57  0  0  0  0  0  0  0  0999 V2000
    2.5586    0.7980   -0.6797 C   0  0  0  0  0  0  0  0  0  0  0  0
    2.3251   -0.4248    0.0185 O   0  0  0  0  0  0  0  0  0  0  0  0
    3.1629   -0.7492    1.0512 C   0  0  0  0  0  0  0  0  0  0  0  0
    4.3465   -0.0691    1.3353 C   0  0  0  0  0  0  0  0  0  0  0  0
    5.1055   -0.3825    2.4896 C   0  0  0  0  0  0  0  0  0  0  0  0
    6.2194    0.3342    2.9364 C   0  0  0  0  0  0  0  0  0  0  0  0
    6.5950    1.5262    2.2578 N   0  0  0  0  0  0  0  0  0  0  0  0
    7.8789    2.0930    2.3854 C   0  0  0  0  0  0  0  0  0  0  0  0
    9.0108    1.2782    2.2592 C   0  0  0  0  0  0  0  0  0  0  0  0
   10.2877    1.7849    2.4832 C   0  0  0  0  0  0  0  0  0  0  0  0
   10.4485    3.1270    2.8190 C   0  0  0  0  0  0  0  0  0  0  0  0
   12.0511    3.6808    3.1433 Cl  0  0  0  0  0  0  0  0  0  0  0  0
    9.3289    3.9650    2.8956 C   0  0  0  0  0  0  0  0  0  0  0  0
    9.4585    5.6429    3.2907 Cl  0  0  0  0  0  0  0  0  0  0  0  0
    8.0462    3.4504    2.6684 C   0  0  0  0  0  0  0  0  0  0  0  0
    6.9278   -0.0411    4.0202 N   0  0  0  0  0  0  0  0  0  0  0  0
    6.5134   -1.1261    4.6722 C   0  0  0  0  0  0  0  0  0  0  0  0
    5.4537   -1.8677    4.3487 N   0  0  0  0  0  0  0  0  0  0  0  0
    4.7678   -1.4807    3.2718 C   0  0  0  0  0  0  0  0  0  0  0  0
    3.6406   -2.2013    2.9388 C   0  0  0  0  0  0  0  0  0  0  0  0
    2.7929   -1.8124    1.8904 C   0  0  0  0  0  0  0  0  0  0  0  0
    1.5808   -2.4303    1.6755 O   0  0  0  0  0  0  0  0  0  0  0  0
    1.0597   -3.0975    2.8402 C   0  0  0  0  0  0  0  0  0  0  0  0
   -0.3853   -3.3854    2.7346 C   0  0  0  0  0  0  0  0  0  0  0  0
   -1.3236   -2.5292    3.1555 N   0  0  0  0  0  0  0  0  0  0  0  0
   -2.5069   -3.1959    2.8578 O   0  0  0  0  0  0  0  0  0  0  0  0
   -2.1616   -4.4006    2.3053 C   0  0  0  0  0  0  0  0  0  0  0  0
   -3.1301   -5.3743    1.7758 C   0  0  0  0  0  0  0  0  0  0  0  0
   -4.5266   -5.2439    1.6013 C   0  0  0  0  0  0  0  0  0  0  0  0
   -5.4104   -4.0902    1.8821 C   0  0  0  0  0  0  0  0  0  0  0  0
   -5.0383   -6.3583    1.0621 N   0  0  0  0  0  0  0  0  0  0  0  0
   -3.9692   -7.2179    0.8672 O   0  0  0  0  0  0  0  0  0  0  0  0
   -2.8224   -6.6212    1.2905 C   0  0  0  0  0  0  0  0  0  0  0  0
   -1.5715   -7.3908    1.1420 C   0  0  0  0  0  0  0  0  0  0  0  0
   -0.8592   -4.5802    2.2658 N   0  0  0  0  0  0  0  0  0  0  0  0
    3.1968    0.6168   -1.5509 H   0  0  0  0  0  0  0  0  0  0  0  0
    2.9832    1.5916   -0.0558 H   0  0  0  0  0  0  0  0  0  0  0  0
    1.5937    1.1733   -1.0324 H   0  0  0  0  0  0  0  0  0  0  0  0
    4.7128    0.7156    0.6828 H   0  0  0  0  0  0  0  0  0  0  0  0
    5.8414    2.2032    2.3337 H   0  0  0  0  0  0  0  0  0  0  0  0
    8.8929    0.2231    2.0189 H   0  0  0  0  0  0  0  0  0  0  0  0
   11.1409    1.1159    2.4140 H   0  0  0  0  0  0  0  0  0  0  0  0
    7.1829    4.1039    2.7573 H   0  0  0  0  0  0  0  0  0  0  0  0
    7.0832   -1.4290    5.5395 H   0  0  0  0  0  0  0  0  0  0  0  0
    3.4204   -3.0620    3.5619 H   0  0  0  0  0  0  0  0  0  0  0  0
    1.2067   -2.4815    3.7383 H   0  0  0  0  0  0  0  0  0  0  0  0
    1.5876   -4.0515    2.9668 H   0  0  0  0  0  0  0  0  0  0  0  0
   -4.8763   -3.2548    2.3411 H   0  0  0  0  0  0  0  0  0  0  0  0
   -6.2169   -4.3778    2.5630 H   0  0  0  0  0  0  0  0  0  0  0  0
   -5.8523   -3.7200    0.9512 H   0  0  0  0  0  0  0  0  0  0  0  0
   -1.7499   -8.3682    0.6842 H   0  0  0  0  0  0  0  0  0  0  0  0
   -1.1037   -7.5551    2.1183 H   0  0  0  0  0  0  0  0  0  0  0  0
   -0.8606   -6.8484    0.5104 H   0  0  0  0  0  0  0  0  0  0  0  0
  1  2  1  0  0  0  0
  1 36  1  0  0  0  0
  1 37  1  0  0  0  0
  1 38  1  0  0  0  0
  2  3  1  0  0  0  0
  3  4  1  0  0  0  0
  3 21  2  0  0  0  0
  4  5  2  0  0  0  0
  4 39  1  0  0  0  0
  5  6  1  0  0  0  0
  5 19  1  0  0  0  0
  6  7  1  0  0  0  0
  6 16  2  0  0  0  0
  7  8  1  0  0  0  0
  7 40  1  0  0  0  0
  8  9  1  0  0  0  0
  8 15  2  0  0  0  0
  9 10  2  0  0  0  0
  9 41  1  0  0  0  0
 10 11  1  0  0  0  0
 10 42  1  0  0  0  0
 11 12  1  0  0  0  0
 11 13  2  0  0  0  0
 13 14  1  0  0  0  0
 13 15  1  0  0  0  0
 15 43  1  0  0  0  0
 16 17  1  0  0  0  0
 17 18  2  0  0  0  0
 17 44  1  0  0  0  0
 18 19  1  0  0  0  0
 19 20  2  0  0  0  0
 20 21  1  0  0  0  0
 20 45  1  0  0  0  0
 21 22  1  0  0  0  0
 22 23  1  0  0  0  0
 23 24  1  0  0  0  0
 23 46  1  0  0  0  0
 23 47  1  0  0  0  0
 24 25  2  0  0  0  0
 24 35  1  0  0  0  0
 25 26  1  0  0  0  0
 26 27  1  0  0  0  0
 27 28  1  0  0  0  0
 27 35  2  0  0  0  0
 28 29  1  0  0  0  0
 28 33  2  0  0  0  0
 29 30  1  0  0  0  0
 29 31  2  0  0  0  0
 30 48  1  0  0  0  0
 30 49  1  0  0  0  0
 30 50  1  0  0  0  0
 31 32  1  0  0  0  0
 32 33  1  0  0  0  0
 33 34  1  0  0  0  0
 34 51  1  0  0  0  0
 34 52  1  0  0  0  0
 34 53  1  0  0  0  0
M  END
$$$$
