CHEMBL1241579
 OpenBabel04072215363D

 37 39  0  0  1  0  0  0  0  0999 V2000
    1.8086    1.1783   -0.2545 C   0  0  0  0  0  0  0  0  0  0  0  0
    2.5606   -0.1523   -0.1277 C   0  0  2  0  0  0  0  0  0  0  0  0
    3.7240   -0.0792    0.8849 C   0  0  0  0  0  0  0  0  0  0  0  0
    3.3359    0.3019    2.2495 N   0  0  0  0  0  0  0  0  0  0  0  0
    3.0461   -0.6221   -1.4265 N   0  0  0  0  0  0  0  0  0  0  0  0
    3.5408    0.2517   -2.3288 N   0  0  0  0  0  0  0  0  0  0  0  0
    3.8468   -0.5035   -3.4006 C   0  0  0  0  0  0  0  0  0  0  0  0
    4.4015    0.1414   -4.5949 C   0  0  0  0  0  0  0  0  0  0  0  0
    3.9450    1.4143   -4.9832 C   0  0  0  0  0  0  0  0  0  0  0  0
    4.4557    2.0459   -6.1240 C   0  0  0  0  0  0  0  0  0  0  0  0
    5.4202    1.3996   -6.8931 C   0  0  0  0  0  0  0  0  0  0  0  0
    6.0439    2.1678   -8.3035 Cl  0  0  0  0  0  0  0  0  0  0  0  0
    5.8811    0.1391   -6.5105 C   0  0  0  0  0  0  0  0  0  0  0  0
    6.8108   -0.5475   -7.2412 O   0  0  0  0  0  0  0  0  0  0  0  0
    5.3981   -0.4757   -5.3583 C   0  0  0  0  0  0  0  0  0  0  0  0
    3.5337   -1.8829   -3.1698 C   0  0  0  0  0  0  0  0  0  0  0  0
    3.5809   -3.1149   -3.8426 C   0  0  0  0  0  0  0  0  0  0  0  0
    4.0187   -3.3127   -5.1408 N   0  0  0  0  0  0  0  0  0  0  0  0
    3.1600   -4.2229   -3.1958 N   0  0  0  0  0  0  0  0  0  0  0  0
    2.7035   -4.1071   -1.9377 C   0  0  0  0  0  0  0  0  0  0  0  0
    2.5948   -2.9903   -1.2020 N   0  0  0  0  0  0  0  0  0  0  0  0
    3.0285   -1.9130   -1.8780 C   0  0  0  0  0  0  0  0  0  0  0  0
    1.0437    1.1214   -1.0370 H   0  0  0  0  0  0  0  0  0  0  0  0
    2.4875    2.0003   -0.5089 H   0  0  0  0  0  0  0  0  0  0  0  0
    1.3030    1.4384    0.6806 H   0  0  0  0  0  0  0  0  0  0  0  0
    1.8393   -0.9028    0.2184 H   0  0  0  0  0  0  0  0  0  0  0  0
    4.2194   -1.0562    0.9449 H   0  0  0  0  0  0  0  0  0  0  0  0
    4.4852    0.6282    0.5362 H   0  0  0  0  0  0  0  0  0  0  0  0
    2.6310   -0.3407    2.6091 H   0  0  0  0  0  0  0  0  0  0  0  0
    2.9152    1.2304    2.2528 H   0  0  0  0  0  0  0  0  0  0  0  0
    3.1881    1.9267   -4.3901 H   0  0  0  0  0  0  0  0  0  0  0  0
    4.0981    3.0329   -6.3991 H   0  0  0  0  0  0  0  0  0  0  0  0
    7.0494    0.0090   -8.0061 H   0  0  0  0  0  0  0  0  0  0  0  0
    5.8177   -1.4346   -5.0644 H   0  0  0  0  0  0  0  0  0  0  0  0
    3.8632   -2.5534   -5.7905 H   0  0  0  0  0  0  0  0  0  0  0  0
    3.7703   -4.2370   -5.4746 H   0  0  0  0  0  0  0  0  0  0  0  0
    2.3779   -5.0281   -1.4633 H   0  0  0  0  0  0  0  0  0  0  0  0
  1 23  1  0  0  0  0
  1 24  1  0  0  0  0
  1 25  1  0  0  0  0
  2  5  1  0  0  0  0
  2  3  1  0  0  0  0
  2  1  1  0  0  0  0
  2 26  1  1  0  0  0
  3  4  1  0  0  0  0
  3 27  1  0  0  0  0
  3 28  1  0  0  0  0
  4 29  1  0  0  0  0
  4 30  1  0  0  0  0
  5  6  1  0  0  0  0
  5 22  1  0  0  0  0
  6  7  2  0  0  0  0
  7  8  1  0  0  0  0
  7 16  1  0  0  0  0
  8  9  1  0  0  0  0
  8 15  2  0  0  0  0
  9 10  2  0  0  0  0
  9 31  1  0  0  0  0
 10 11  1  0  0  0  0
 10 32  1  0  0  0  0
 11 12  1  0  0  0  0
 11 13  2  0  0  0  0
 13 14  1  0  0  0  0
 13 15  1  0  0  0  0
 14 33  1  0  0  0  0
 15 34  1  0  0  0  0
 16 17  1  0  0  0  0
 16 22  2  0  0  0  0
 17 18  1  0  0  0  0
 17 19  2  0  0  0  0
 18 35  1  0  0  0  0
 18 36  1  0  0  0  0
 19 20  1  0  0  0  0
 20 21  2  0  0  0  0
 20 37  1  0  0  0  0
 21 22  1  0  0  0  0
M  END
$$$$
