CHEMBL3965364
 OpenBabel04072215373D

 58 62  0  0  0  0  0  0  0  0999 V2000
    1.2065    1.5597    0.1222 C   0  0  0  0  0  0  0  0  0  0  0  0
    2.6923    1.8652   -0.0739 C   0  0  0  0  0  0  0  0  0  0  0  0
    2.9407    3.3287    0.3080 C   0  0  0  0  0  0  0  0  0  0  0  0
    3.4269    0.9276    0.7388 O   0  0  0  0  0  0  0  0  0  0  0  0
    4.7726    1.1682    0.8087 C   0  0  0  0  0  0  0  0  0  0  0  0
    5.5941    1.3244   -0.2935 C   0  0  0  0  0  0  0  0  0  0  0  0
    6.9422    1.6251   -0.0939 C   0  0  0  0  0  0  0  0  0  0  0  0
    7.4286    1.8892    1.1949 C   0  0  0  0  0  0  0  0  0  0  0  0
    6.5887    1.8368    2.3121 C   0  0  0  0  0  0  0  0  0  0  0  0
    7.0183    2.2865    3.5780 N   0  0  0  0  0  0  0  0  0  0  0  0
    6.0085    2.2602    4.6926 C   0  0  0  0  0  0  0  0  0  0  0  0
    5.0661    3.4406    4.6345 C   0  0  0  0  0  0  0  0  0  0  0  0
    4.0817    3.6488    5.7650 C   0  0  0  0  0  0  0  0  0  0  0  0
    3.5819    3.2734    4.4030 C   0  0  0  0  0  0  0  0  0  0  0  0
    8.1574    3.0746    3.9609 C   0  0  0  0  0  0  0  0  0  0  0  0
    8.8119    2.6450    5.1106 C   0  0  0  0  0  0  0  0  0  0  0  0
    9.4633    3.5580    5.8971 C   0  0  0  0  0  0  0  0  0  0  0  0
    9.6123    4.8520    5.5155 C   0  0  0  0  0  0  0  0  0  0  0  0
   10.0572    5.6501    6.4797 N   0  0  0  0  0  0  0  0  0  0  0  0
   10.3955    6.8874    6.1391 C   0  0  0  0  0  0  0  0  0  0  0  0
   10.3887    7.3036    4.8176 C   0  0  0  0  0  0  0  0  0  0  0  0
   11.1477    8.5000    4.5443 C   0  0  0  0  0  0  0  0  0  0  0  0
   12.5139    8.6383    4.1766 C   0  0  0  0  0  0  0  0  0  0  0  0
   12.9472    9.9015    4.2591 N   0  0  0  0  0  0  0  0  0  0  0  0
   11.8648   10.5704    4.6908 N   0  0  0  0  0  0  0  0  0  0  0  0
   11.7822   12.0053    4.5587 C   0  0  0  0  0  0  0  0  0  0  0  0
   10.8433    9.7448    5.0691 C   0  0  0  0  0  0  0  0  0  0  0  0
    9.8159    6.5273    3.8275 N   0  0  0  0  0  0  0  0  0  0  0  0
    9.3324    5.2737    4.1980 C   0  0  0  0  0  0  0  0  0  0  0  0
    8.5245    4.3396    3.4372 C   0  0  0  0  0  0  0  0  0  0  0  0
    5.2981    1.3165    2.0905 C   0  0  0  0  0  0  0  0  0  0  0  0
    0.5850    2.2094   -0.5059 H   0  0  0  0  0  0  0  0  0  0  0  0
    0.9111    1.7102    1.1674 H   0  0  0  0  0  0  0  0  0  0  0  0
    0.9834    0.5190   -0.1249 H   0  0  0  0  0  0  0  0  0  0  0  0
    2.9361    1.6974   -1.1301 H   0  0  0  0  0  0  0  0  0  0  0  0
    2.7941    3.4836    1.3832 H   0  0  0  0  0  0  0  0  0  0  0  0
    2.2673    3.9984   -0.2368 H   0  0  0  0  0  0  0  0  0  0  0  0
    3.9639    3.6387    0.0778 H   0  0  0  0  0  0  0  0  0  0  0  0
    5.2081    1.2081   -1.3009 H   0  0  0  0  0  0  0  0  0  0  0  0
    7.6087    1.7088   -0.9473 H   0  0  0  0  0  0  0  0  0  0  0  0
    8.4799    2.1379    1.3157 H   0  0  0  0  0  0  0  0  0  0  0  0
    6.4882    2.2948    5.6784 H   0  0  0  0  0  0  0  0  0  0  0  0
    5.4717    1.3042    4.7291 H   0  0  0  0  0  0  0  0  0  0  0  0
    5.5462    4.3343    4.2523 H   0  0  0  0  0  0  0  0  0  0  0  0
    3.9013    4.6627    6.1049 H   0  0  0  0  0  0  0  0  0  0  0  0
    4.0141    2.9033    6.5495 H   0  0  0  0  0  0  0  0  0  0  0  0
    3.0702    4.0369    3.8277 H   0  0  0  0  0  0  0  0  0  0  0  0
    3.1706    2.2794    4.2754 H   0  0  0  0  0  0  0  0  0  0  0  0
    8.6770    1.6228    5.4729 H   0  0  0  0  0  0  0  0  0  0  0  0
    9.8135    3.2416    6.8963 H   0  0  0  0  0  0  0  0  0  0  0  0
   10.7233    7.5339    6.9459 H   0  0  0  0  0  0  0  0  0  0  0  0
   13.2206    7.8702    3.8895 H   0  0  0  0  0  0  0  0  0  0  0  0
   12.6844   12.3858    4.0738 H   0  0  0  0  0  0  0  0  0  0  0  0
   11.6526   12.4564    5.5446 H   0  0  0  0  0  0  0  0  0  0  0  0
   10.9142   12.2142    3.9265 H   0  0  0  0  0  0  0  0  0  0  0  0
    9.9926   10.1185    5.6223 H   0  0  0  0  0  0  0  0  0  0  0  0
    8.1349    4.6639    2.4838 H   0  0  0  0  0  0  0  0  0  0  0  0
    4.6251    1.0775    2.9050 H   0  0  0  0  0  0  0  0  0  0  0  0
  1  2  1  0  0  0  0
  1 32  1  0  0  0  0
  1 33  1  0  0  0  0
  1 34  1  0  0  0  0
  2  3  1  0  0  0  0
  2  4  1  0  0  0  0
  2 35  1  0  0  0  0
  3 36  1  0  0  0  0
  3 37  1  0  0  0  0
  3 38  1  0  0  0  0
  4  5  1  0  0  0  0
  5  6  1  0  0  0  0
  5 31  2  0  0  0  0
  6  7  2  0  0  0  0
  6 39  1  0  0  0  0
  7  8  1  0  0  0  0
  7 40  1  0  0  0  0
  8  9  2  0  0  0  0
  8 41  1  0  0  0  0
  9 10  1  0  0  0  0
  9 31  1  0  0  0  0
 10 11  1  0  0  0  0
 10 15  1  0  0  0  0
 11 12  1  0  0  0  0
 11 42  1  0  0  0  0
 11 43  1  0  0  0  0
 12 13  1  0  0  0  0
 12 14  1  0  0  0  0
 12 44  1  0  0  0  0
 13 14  1  0  0  0  0
 13 45  1  0  0  0  0
 13 46  1  0  0  0  0
 14 47  1  0  0  0  0
 14 48  1  0  0  0  0
 15 16  1  0  0  0  0
 15 30  2  0  0  0  0
 16 17  2  0  0  0  0
 16 49  1  0  0  0  0
 17 18  1  0  0  0  0
 17 50  1  0  0  0  0
 18 19  1  0  0  0  0
 18 29  2  0  0  0  0
 19 20  2  0  0  0  0
 20 21  1  0  0  0  0
 20 51  1  0  0  0  0
 21 22  1  0  0  0  0
 21 28  2  0  0  0  0
 22 23  1  0  0  0  0
 22 27  2  0  0  0  0
 23 24  2  0  0  0  0
 23 52  1  0  0  0  0
 24 25  1  0  0  0  0
 25 26  1  0  0  0  0
 25 27  1  0  0  0  0
 26 53  1  0  0  0  0
 26 54  1  0  0  0  0
 26 55  1  0  0  0  0
 27 56  1  0  0  0  0
 28 29  1  0  0  0  0
 29 30  1  0  0  0  0
 30 57  1  0  0  0  0
 31 58  1  0  0  0  0
M  END
$$$$
