CHEMBL3895645
 OpenBabel04072215373D

 60 63  0  0  1  0  0  0  0  0999 V2000
    1.0149   -0.0356   -0.0009 C   0  0  0  0  0  0  0  0  0  0  0  0
    2.4209    0.2054    0.0571 O   0  0  0  0  0  0  0  0  0  0  0  0
    2.9567    0.7170   -1.0960 C   0  0  0  0  0  0  0  0  0  0  0  0
    4.0587    0.0243   -1.6111 C   0  0  0  0  0  0  0  0  0  0  0  0
    4.7084    0.4604   -2.7986 C   0  0  0  0  0  0  0  0  0  0  0  0
    5.7937   -0.1636   -3.4442 C   0  0  0  0  0  0  0  0  0  0  0  0
    6.3680   -1.3329   -2.8763 N   0  0  0  0  0  0  0  0  0  0  0  0
    7.5350   -2.0056   -3.3054 C   0  0  0  0  0  0  0  0  0  0  0  0
    8.6005   -1.3482   -3.9351 C   0  0  0  0  0  0  0  0  0  0  0  0
    9.7362   -2.0417   -4.3591 C   0  0  0  0  0  0  0  0  0  0  0  0
    9.8496   -3.4075   -4.1126 C   0  0  0  0  0  0  0  0  0  0  0  0
   11.2675   -4.2121   -4.6802 Cl  0  0  0  0  0  0  0  0  0  0  0  0
    8.8313   -4.0681   -3.4203 C   0  0  0  0  0  0  0  0  0  0  0  0
    8.9160   -5.7523   -3.0395 Cl  0  0  0  0  0  0  0  0  0  0  0  0
    7.6889   -3.3673   -3.0113 C   0  0  0  0  0  0  0  0  0  0  0  0
    6.3197    0.3288   -4.5844 N   0  0  0  0  0  0  0  0  0  0  0  0
    5.7915    1.4483   -5.0758 C   0  0  0  0  0  0  0  0  0  0  0  0
    4.7829    2.1272   -4.5416 N   0  0  0  0  0  0  0  0  0  0  0  0
    4.2589    1.6276   -3.4226 C   0  0  0  0  0  0  0  0  0  0  0  0
    3.2154    2.3327   -2.8618 C   0  0  0  0  0  0  0  0  0  0  0  0
    2.5527    1.9096   -1.7054 C   0  0  0  0  0  0  0  0  0  0  0  0
    1.5513    2.6361   -1.1220 O   0  0  0  0  0  0  0  0  0  0  0  0
    1.1518    3.8264   -1.7953 C   0  0  0  0  0  0  0  0  0  0  0  0
   -0.0209    4.4775   -1.0775 C   0  0  3  0  0  0  0  0  0  0  0  0
   -1.2320    3.5196   -1.0060 C   0  0  0  0  0  0  0  0  0  0  0  0
   -2.4130    4.1268   -0.3308 N   0  0  0  0  0  0  0  0  0  0  0  0
   -2.1488    4.3971    1.1134 C   0  0  3  0  0  0  0  0  0  0  0  0
   -3.3679    4.9519    1.8539 C   0  0  0  0  0  0  0  0  0  0  0  0
   -1.6398    3.1426    1.8427 C   0  0  0  0  0  0  0  0  0  0  0  0
   -2.5307    1.9330    1.9531 C   0  0  0  0  0  0  0  0  0  0  0  0
   -0.4919    3.1040    2.2983 O   0  0  0  0  0  0  0  0  0  0  0  0
   -2.7068    5.3746   -1.0894 C   0  0  0  0  0  0  0  0  0  0  0  0
   -1.5011    6.3263   -1.2246 C   0  0  0  0  0  0  0  0  0  0  0  0
   -0.3709    5.6699   -1.8037 O   0  0  0  0  0  0  0  0  0  0  0  0
    0.6973   -0.3991    0.9817 H   0  0  0  0  0  0  0  0  0  0  0  0
    0.7807   -0.8086   -0.7404 H   0  0  0  0  0  0  0  0  0  0  0  0
    0.4298    0.8607   -0.2024 H   0  0  0  0  0  0  0  0  0  0  0  0
    4.4076   -0.8583   -1.0809 H   0  0  0  0  0  0  0  0  0  0  0  0
    5.6290   -1.9802   -2.6214 H   0  0  0  0  0  0  0  0  0  0  0  0
    8.5614   -0.2775   -4.1193 H   0  0  0  0  0  0  0  0  0  0  0  0
   10.5221   -1.5018   -4.8813 H   0  0  0  0  0  0  0  0  0  0  0  0
    6.9079   -3.8972   -2.4717 H   0  0  0  0  0  0  0  0  0  0  0  0
    6.2247    1.8423   -5.9882 H   0  0  0  0  0  0  0  0  0  0  0  0
    2.9443    3.2547   -3.3667 H   0  0  0  0  0  0  0  0  0  0  0  0
    0.8527    3.6086   -2.8286 H   0  0  0  0  0  0  0  0  0  0  0  0
    1.9848    4.5449   -1.8102 H   0  0  0  0  0  0  0  0  0  0  0  0
    0.3132    4.7510   -0.0694 H   0  0  0  0  0  0  0  0  0  0  0  0
   -0.9737    2.5702   -0.5377 H   0  0  0  0  0  0  0  0  0  0  0  0
   -1.5392    3.2570   -2.0314 H   0  0  0  0  0  0  0  0  0  0  0  0
   -1.3543    5.1421    1.2303 H   0  0  0  0  0  0  0  0  0  0  0  0
   -4.2520    4.3200    1.7218 H   0  0  0  0  0  0  0  0  0  0  0  0
   -3.6178    5.9596    1.5110 H   0  0  0  0  0  0  0  0  0  0  0  0
   -3.1637    5.0184    2.9269 H   0  0  0  0  0  0  0  0  0  0  0  0
   -3.5474    2.1492    1.6224 H   0  0  0  0  0  0  0  0  0  0  0  0
   -2.5652    1.6170    2.9997 H   0  0  0  0  0  0  0  0  0  0  0  0
   -2.1222    1.1290    1.3367 H   0  0  0  0  0  0  0  0  0  0  0  0
   -3.5650    5.9053   -0.6681 H   0  0  0  0  0  0  0  0  0  0  0  0
   -3.0196    5.0754   -2.1000 H   0  0  0  0  0  0  0  0  0  0  0  0
   -1.2093    6.7582   -0.2619 H   0  0  0  0  0  0  0  0  0  0  0  0
   -1.7632    7.1588   -1.8853 H   0  0  0  0  0  0  0  0  0  0  0  0
  1  2  1  0  0  0  0
  1 35  1  0  0  0  0
  1 36  1  0  0  0  0
  1 37  1  0  0  0  0
  2  3  1  0  0  0  0
  3  4  1  0  0  0  0
  3 21  2  0  0  0  0
  4  5  2  0  0  0  0
  4 38  1  0  0  0  0
  5  6  1  0  0  0  0
  5 19  1  0  0  0  0
  6  7  1  0  0  0  0
  6 16  2  0  0  0  0
  7  8  1  0  0  0  0
  7 39  1  0  0  0  0
  8  9  1  0  0  0  0
  8 15  2  0  0  0  0
  9 10  2  0  0  0  0
  9 40  1  0  0  0  0
 10 11  1  0  0  0  0
 10 41  1  0  0  0  0
 11 12  1  0  0  0  0
 11 13  2  0  0  0  0
 13 14  1  0  0  0  0
 13 15  1  0  0  0  0
 15 42  1  0  0  0  0
 16 17  1  0  0  0  0
 17 18  2  0  0  0  0
 17 43  1  0  0  0  0
 18 19  1  0  0  0  0
 19 20  2  0  0  0  0
 20 21  1  0  0  0  0
 20 44  1  0  0  0  0
 21 22  1  0  0  0  0
 22 23  1  0  0  0  0
 23 24  1  0  0  0  0
 23 45  1  0  0  0  0
 23 46  1  0  0  0  0
 24 25  1  0  0  0  0
 24 34  1  0  0  0  0
 24 47  1  0  0  0  0
 25 26  1  0  0  0  0
 25 48  1  0  0  0  0
 25 49  1  0  0  0  0
 26 27  1  0  0  0  0
 26 32  1  0  0  0  0
 27 28  1  0  0  0  0
 27 29  1  0  0  0  0
 27 50  1  0  0  0  0
 28 51  1  0  0  0  0
 28 52  1  0  0  0  0
 28 53  1  0  0  0  0
 29 30  1  0  0  0  0
 29 31  2  0  0  0  0
 30 54  1  0  0  0  0
 30 55  1  0  0  0  0
 30 56  1  0  0  0  0
 32 33  1  0  0  0  0
 32 57  1  0  0  0  0
 32 58  1  0  0  0  0
 33 34  1  0  0  0  0
 33 59  1  0  0  0  0
 33 60  1  0  0  0  0
M  END
$$$$
