CHEMBL2031908
 OpenBabel04072215363D

 68 72  0  0  0  0  0  0  0  0999 V2000
    3.5930    0.1675    0.5623 C   0  0  0  0  0  0  0  0  0  0  0  0
    4.8847    0.0906   -0.0374 O   0  0  0  0  0  0  0  0  0  0  0  0
    5.1365   -1.0761   -0.7068 C   0  0  0  0  0  0  0  0  0  0  0  0
    4.1572   -1.8928   -1.2500 C   0  0  0  0  0  0  0  0  0  0  0  0
    4.5220   -3.0703   -1.8914 C   0  0  0  0  0  0  0  0  0  0  0  0
    5.8761   -3.4087   -2.1033 C   0  0  0  0  0  0  0  0  0  0  0  0
    6.3135   -4.5068   -2.8840 C   0  0  0  0  0  0  0  0  0  0  0  0
    5.4832   -5.3788   -3.5746 O   0  0  0  0  0  0  0  0  0  0  0  0
    4.4956   -4.8941   -4.4110 C   0  0  0  0  0  0  0  0  0  0  0  0
    4.4697   -3.6044   -4.9302 C   0  0  0  0  0  0  0  0  0  0  0  0
    3.3443   -3.1443   -5.6237 C   0  0  0  0  0  0  0  0  0  0  0  0
    2.2581   -3.9766   -5.9257 C   0  0  0  0  0  0  0  0  0  0  0  0
    1.1116   -3.5286   -6.6516 N   0  0  0  0  0  0  0  0  0  0  0  0
    0.9565   -2.2546   -7.1825 C   0  0  0  0  0  0  0  0  0  0  0  0
    1.8197   -1.3773   -7.1611 O   0  0  0  0  0  0  0  0  0  0  0  0
   -0.3048   -1.9476   -7.8932 C   0  0  0  0  0  0  0  0  0  0  0  0
   -0.9335   -0.7479   -8.0485 C   0  0  0  0  0  0  0  0  0  0  0  0
   -0.6962    0.5763   -7.2793 C   0  0  0  0  0  0  0  0  0  0  0  0
   -0.3077    1.7138   -8.2401 C   0  0  0  0  0  0  0  0  0  0  0  0
   -1.9290    0.9405   -6.4222 C   0  0  0  0  0  0  0  0  0  0  0  0
    0.3783    0.5618   -6.2784 N   0  0  0  0  0  0  0  0  0  0  0  0
   -1.8532   -0.8277   -9.1235 N   0  0  0  0  0  0  0  0  0  0  0  0
   -3.0040    0.0149   -9.4245 C   0  0  0  0  0  0  0  0  0  0  0  0
   -1.8954   -2.1706   -9.5371 N   0  0  0  0  0  0  0  0  0  0  0  0
   -2.7705   -2.6422  -10.5266 C   0  0  0  0  0  0  0  0  0  0  0  0
   -3.7518   -3.5811  -10.1986 C   0  0  0  0  0  0  0  0  0  0  0  0
   -4.6479   -4.0239  -11.1755 C   0  0  0  0  0  0  0  0  0  0  0  0
   -4.5395   -3.5639  -12.4849 C   0  0  0  0  0  0  0  0  0  0  0  0
   -3.5486   -2.6404  -12.8230 C   0  0  0  0  0  0  0  0  0  0  0  0
   -2.6755   -2.1666  -11.8375 C   0  0  0  0  0  0  0  0  0  0  0  0
   -1.0353   -2.9188   -8.7473 C   0  0  0  0  0  0  0  0  0  0  0  0
   -0.8477   -4.1254   -8.7136 O   0  0  0  0  0  0  0  0  0  0  0  0
    2.3242   -5.3010   -5.4795 C   0  0  0  0  0  0  0  0  0  0  0  0
    3.4277   -5.7441   -4.7243 C   0  0  0  0  0  0  0  0  0  0  0  0
    3.4308   -7.0079   -4.2743 F   0  0  0  0  0  0  0  0  0  0  0  0
    7.6735   -4.8042   -2.9524 C   0  0  0  0  0  0  0  0  0  0  0  0
    8.5570   -3.9671   -2.3003 C   0  0  0  0  0  0  0  0  0  0  0  0
    8.1818   -2.8660   -1.6178 N   0  0  0  0  0  0  0  0  0  0  0  0
    6.8702   -2.5848   -1.5269 C   0  0  0  0  0  0  0  0  0  0  0  0
    6.4800   -1.4357   -0.8466 C   0  0  0  0  0  0  0  0  0  0  0  0
    3.5600    1.0633    1.1878 H   0  0  0  0  0  0  0  0  0  0  0  0
    3.4094   -0.7009    1.2057 H   0  0  0  0  0  0  0  0  0  0  0  0
    2.8073    0.2659   -0.1944 H   0  0  0  0  0  0  0  0  0  0  0  0
    3.1040   -1.6394   -1.2125 H   0  0  0  0  0  0  0  0  0  0  0  0
    3.7231   -3.7052   -2.2623 H   0  0  0  0  0  0  0  0  0  0  0  0
    5.2781   -2.9007   -4.7518 H   0  0  0  0  0  0  0  0  0  0  0  0
    3.3634   -2.0948   -5.8939 H   0  0  0  0  0  0  0  0  0  0  0  0
    0.3930   -4.2105   -6.8652 H   0  0  0  0  0  0  0  0  0  0  0  0
   -1.0670    1.9145   -8.9990 H   0  0  0  0  0  0  0  0  0  0  0  0
    0.6226    1.4793   -8.7729 H   0  0  0  0  0  0  0  0  0  0  0  0
   -0.1513    2.6573   -7.7023 H   0  0  0  0  0  0  0  0  0  0  0  0
   -2.8367    1.1185   -6.9975 H   0  0  0  0  0  0  0  0  0  0  0  0
   -1.7563    1.8564   -5.8417 H   0  0  0  0  0  0  0  0  0  0  0  0
   -2.1619    0.1399   -5.7073 H   0  0  0  0  0  0  0  0  0  0  0  0
    1.2468    0.2228   -6.7144 H   0  0  0  0  0  0  0  0  0  0  0  0
    0.1804   -0.0991   -5.5319 H   0  0  0  0  0  0  0  0  0  0  0  0
   -2.9546    1.0034   -8.9722 H   0  0  0  0  0  0  0  0  0  0  0  0
   -3.9362   -0.4538   -9.0924 H   0  0  0  0  0  0  0  0  0  0  0  0
   -3.0644    0.2047  -10.5009 H   0  0  0  0  0  0  0  0  0  0  0  0
   -3.8546   -3.9352   -9.1774 H   0  0  0  0  0  0  0  0  0  0  0  0
   -5.4319   -4.7282  -10.9111 H   0  0  0  0  0  0  0  0  0  0  0  0
   -5.2260   -3.9244  -13.2495 H   0  0  0  0  0  0  0  0  0  0  0  0
   -3.4498   -2.2991  -13.8509 H   0  0  0  0  0  0  0  0  0  0  0  0
   -1.9007   -1.4507  -12.1112 H   0  0  0  0  0  0  0  0  0  0  0  0
    1.5264   -6.0099   -5.6819 H   0  0  0  0  0  0  0  0  0  0  0  0
    8.0369   -5.6634   -3.5043 H   0  0  0  0  0  0  0  0  0  0  0  0
    9.6276   -4.1564   -2.3141 H   0  0  0  0  0  0  0  0  0  0  0  0
    7.2472   -0.7976   -0.4132 H   0  0  0  0  0  0  0  0  0  0  0  0
  1  2  1  0  0  0  0
  1 41  1  0  0  0  0
  1 42  1  0  0  0  0
  1 43  1  0  0  0  0
  2  3  1  0  0  0  0
  3  4  1  0  0  0  0
  3 40  2  0  0  0  0
  4  5  2  0  0  0  0
  4 44  1  0  0  0  0
  5  6  1  0  0  0  0
  5 45  1  0  0  0  0
  6  7  1  0  0  0  0
  6 39  2  0  0  0  0
  7  8  1  0  0  0  0
  7 36  2  0  0  0  0
  8  9  1  0  0  0  0
  9 10  1  0  0  0  0
  9 34  2  0  0  0  0
 10 11  2  0  0  0  0
 10 46  1  0  0  0  0
 11 12  1  0  0  0  0
 11 47  1  0  0  0  0
 12 13  1  0  0  0  0
 12 33  2  0  0  0  0
 13 14  1  0  0  0  0
 13 48  1  0  0  0  0
 14 15  2  0  0  0  0
 14 16  1  0  0  0  0
 16 17  2  0  0  0  0
 16 31  1  0  0  0  0
 17 18  1  0  0  0  0
 17 22  1  0  0  0  0
 18 19  1  0  0  0  0
 18 20  1  0  0  0  0
 18 21  1  0  0  0  0
 19 49  1  0  0  0  0
 19 50  1  0  0  0  0
 19 51  1  0  0  0  0
 20 52  1  0  0  0  0
 20 53  1  0  0  0  0
 20 54  1  0  0  0  0
 21 55  1  0  0  0  0
 21 56  1  0  0  0  0
 22 23  1  0  0  0  0
 22 24  1  0  0  0  0
 23 57  1  0  0  0  0
 23 58  1  0  0  0  0
 23 59  1  0  0  0  0
 24 25  1  0  0  0  0
 24 31  1  0  0  0  0
 25 26  1  0  0  0  0
 25 30  2  0  0  0  0
 26 27  2  0  0  0  0
 26 60  1  0  0  0  0
 27 28  1  0  0  0  0
 27 61  1  0  0  0  0
 28 29  2  0  0  0  0
 28 62  1  0  0  0  0
 29 30  1  0  0  0  0
 29 63  1  0  0  0  0
 30 64  1  0  0  0  0
 31 32  2  0  0  0  0
 33 34  1  0  0  0  0
 33 65  1  0  0  0  0
 34 35  1  0  0  0  0
 36 37  1  0  0  0  0
 36 66  1  0  0  0  0
 37 38  2  0  0  0  0
 37 67  1  0  0  0  0
 38 39  1  0  0  0  0
 39 40  1  0  0  0  0
 40 68  1  0  0  0  0
M  END
$$$$
