CHEMBL1241684
 OpenBabel04072215363D

 39 42  0  0  0  0  0  0  0  0999 V2000
    1.0907   -0.0367   -0.0535 C   0  0  0  0  0  0  0  0  0  0  0  0
    2.6153    0.0130    0.0411 C   0  0  0  0  0  0  0  0  0  0  0  0
    3.2443    0.2606   -1.3317 C   0  0  0  0  0  0  0  0  0  0  0  0
    3.0411    1.0146    1.0140 N   0  0  0  0  0  0  0  0  0  0  0  0
    2.6787    2.3047    0.8473 N   0  0  0  0  0  0  0  0  0  0  0  0
    3.2603    2.9388    1.8772 C   0  0  0  0  0  0  0  0  0  0  0  0
    3.1273    4.4261    2.0061 C   0  0  0  0  0  0  0  0  0  0  0  0
    2.0293    5.1321    1.5639 C   0  0  0  0  0  0  0  0  0  0  0  0
    2.1065    6.5326    1.8721 C   0  0  0  0  0  0  0  0  0  0  0  0
    1.1689    7.5742    1.6790 C   0  0  0  0  0  0  0  0  0  0  0  0
    1.4957    8.8847    2.0549 C   0  0  0  0  0  0  0  0  0  0  0  0
    0.5165    9.9735    1.8689 C   0  0  0  0  0  0  0  0  0  0  0  0
   -0.5992    9.7739    1.4071 O   0  0  0  0  0  0  0  0  0  0  0  0
    2.7363    9.1825    2.6094 C   0  0  0  0  0  0  0  0  0  0  0  0
    3.6714    8.1682    2.8174 C   0  0  0  0  0  0  0  0  0  0  0  0
    3.3343    6.8496    2.4572 C   0  0  0  0  0  0  0  0  0  0  0  0
    4.3061    5.4518    2.6693 S   0  0  0  0  0  0  0  0  0  0  0  0
    3.9049    2.0358    2.7673 C   0  0  0  0  0  0  0  0  0  0  0  0
    4.5431    2.0448    4.0157 C   0  0  0  0  0  0  0  0  0  0  0  0
    4.7277    3.1631    4.8112 N   0  0  0  0  0  0  0  0  0  0  0  0
    4.9600    0.8746    4.5413 N   0  0  0  0  0  0  0  0  0  0  0  0
    4.7523   -0.2583    3.8443 C   0  0  0  0  0  0  0  0  0  0  0  0
    4.1501   -0.3932    2.6524 N   0  0  0  0  0  0  0  0  0  0  0  0
    3.7358    0.7931    2.1724 C   0  0  0  0  0  0  0  0  0  0  0  0
    0.7678   -0.8241   -0.7413 H   0  0  0  0  0  0  0  0  0  0  0  0
    0.6782    0.9132   -0.4126 H   0  0  0  0  0  0  0  0  0  0  0  0
    0.6490   -0.2387    0.9284 H   0  0  0  0  0  0  0  0  0  0  0  0
    2.9681   -0.9590    0.4037 H   0  0  0  0  0  0  0  0  0  0  0  0
    2.9443    1.2291   -1.7474 H   0  0  0  0  0  0  0  0  0  0  0  0
    2.9415   -0.5165   -2.0422 H   0  0  0  0  0  0  0  0  0  0  0  0
    4.3382    0.2513   -1.2697 H   0  0  0  0  0  0  0  0  0  0  0  0
    1.1718    4.6593    1.0972 H   0  0  0  0  0  0  0  0  0  0  0  0
    0.1940    7.3558    1.2471 H   0  0  0  0  0  0  0  0  0  0  0  0
    0.8391   10.9824    2.1744 H   0  0  0  0  0  0  0  0  0  0  0  0
    2.9939   10.1999    2.8934 H   0  0  0  0  0  0  0  0  0  0  0  0
    4.6408    8.3892    3.2562 H   0  0  0  0  0  0  0  0  0  0  0  0
    4.1042    3.9418    4.6478 H   0  0  0  0  0  0  0  0  0  0  0  0
    4.9107    2.9168    5.7758 H   0  0  0  0  0  0  0  0  0  0  0  0
    5.1028   -1.1704    4.3145 H   0  0  0  0  0  0  0  0  0  0  0  0
  1  2  1  0  0  0  0
  1 25  1  0  0  0  0
  1 26  1  0  0  0  0
  1 27  1  0  0  0  0
  2  3  1  0  0  0  0
  2  4  1  0  0  0  0
  2 28  1  0  0  0  0
  3 29  1  0  0  0  0
  3 30  1  0  0  0  0
  3 31  1  0  0  0  0
  4  5  1  0  0  0  0
  4 24  1  0  0  0  0
  5  6  2  0  0  0  0
  6  7  1  0  0  0  0
  6 18  1  0  0  0  0
  7  8  2  0  0  0  0
  7 17  1  0  0  0  0
  8  9  1  0  0  0  0
  8 32  1  0  0  0  0
  9 10  1  0  0  0  0
  9 16  2  0  0  0  0
 10 11  2  0  0  0  0
 10 33  1  0  0  0  0
 11 12  1  0  0  0  0
 11 14  1  0  0  0  0
 12 13  2  0  0  0  0
 12 34  1  0  0  0  0
 14 15  2  0  0  0  0
 14 35  1  0  0  0  0
 15 16  1  0  0  0  0
 15 36  1  0  0  0  0
 16 17  1  0  0  0  0
 18 19  1  0  0  0  0
 18 24  2  0  0  0  0
 19 20  1  0  0  0  0
 19 21  2  0  0  0  0
 20 37  1  0  0  0  0
 20 38  1  0  0  0  0
 21 22  1  0  0  0  0
 22 23  2  0  0  0  0
 22 39  1  0  0  0  0
 23 24  1  0  0  0  0
M  END
$$$$
