CHEMBL272691
 OpenBabel04072215363D

 52 56  0  0  0  0  0  0  0  0999 V2000
    4.7644   -0.3504   -1.9542 C   0  0  0  0  0  0  0  0  0  0  0  0
    3.7048   -0.6111   -1.0319 O   0  0  0  0  0  0  0  0  0  0  0  0
    4.0851   -1.0094    0.2211 C   0  0  0  0  0  0  0  0  0  0  0  0
    5.3141   -0.6276    0.7826 C   0  0  0  0  0  0  0  0  0  0  0  0
    5.8017   -1.1799    1.9582 C   0  0  0  0  0  0  0  0  0  0  0  0
    7.0518   -0.8606    2.3342 N   0  0  0  0  0  0  0  0  0  0  0  0
    7.5818   -1.4825    3.4044 C   0  0  0  0  0  0  0  0  0  0  0  0
    6.9176   -2.4574    4.1187 C   0  0  0  0  0  0  0  0  0  0  0  0
    5.6198   -2.7922    3.7335 C   0  0  0  0  0  0  0  0  0  0  0  0
    5.0904   -3.8373    4.4759 O   0  0  0  0  0  0  0  0  0  0  0  0
    4.1809   -4.7135    3.9292 C   0  0  0  0  0  0  0  0  0  0  0  0
    4.1688   -5.1239    2.6022 C   0  0  0  0  0  0  0  0  0  0  0  0
    3.0257   -5.7487    2.0847 C   0  0  0  0  0  0  0  0  0  0  0  0
    1.9351   -6.1378    2.9072 C   0  0  0  0  0  0  0  0  0  0  0  0
    0.7153   -6.7419    2.4675 C   0  0  0  0  0  0  0  0  0  0  0  0
    0.3318   -6.9904    1.0407 C   0  0  0  0  0  0  0  0  0  0  0  0
   -0.8345   -6.7792    0.7244 O   0  0  0  0  0  0  0  0  0  0  0  0
    1.3093   -7.5138    0.2289 N   0  0  0  0  0  0  0  0  0  0  0  0
    1.0770   -7.8182   -1.0857 C   0  0  0  0  0  0  0  0  0  0  0  0
    0.0096   -7.6253   -1.8166 N   0  0  0  0  0  0  0  0  0  0  0  0
    0.2101   -8.1556   -3.0749 C   0  0  0  0  0  0  0  0  0  0  0  0
    1.4458   -8.7301   -3.2847 C   0  0  0  0  0  0  0  0  0  0  0  0
    2.3972   -8.5763   -1.8637 S   0  0  0  0  0  0  0  0  0  0  0  0
   -0.2830   -7.0882    3.3993 C   0  0  0  0  0  0  0  0  0  0  0  0
   -0.1074   -6.8524    4.7559 C   0  0  0  0  0  0  0  0  0  0  0  0
    1.0550   -6.2332    5.1962 C   0  0  0  0  0  0  0  0  0  0  0  0
    2.0633   -5.8604    4.2971 C   0  0  0  0  0  0  0  0  0  0  0  0
    3.1704   -5.1473    4.7842 C   0  0  0  0  0  0  0  0  0  0  0  0
    4.9990   -2.0834    2.6731 C   0  0  0  0  0  0  0  0  0  0  0  0
    3.6568   -2.2297    2.2378 C   0  0  0  0  0  0  0  0  0  0  0  0
    3.2242   -1.7952    0.9832 C   0  0  0  0  0  0  0  0  0  0  0  0
    1.9839   -2.2815    0.6845 O   0  0  0  0  0  0  0  0  0  0  0  0
    1.5263   -2.2639   -0.6574 C   0  0  0  0  0  0  0  0  0  0  0  0
    4.4314   -0.6566   -2.9502 H   0  0  0  0  0  0  0  0  0  0  0  0
    5.6817   -0.9133   -1.7424 H   0  0  0  0  0  0  0  0  0  0  0  0
    4.9727    0.7235   -1.9732 H   0  0  0  0  0  0  0  0  0  0  0  0
    5.9580    0.0837    0.2704 H   0  0  0  0  0  0  0  0  0  0  0  0
    8.5871   -1.1832    3.6761 H   0  0  0  0  0  0  0  0  0  0  0  0
    7.4020   -2.9586    4.9490 H   0  0  0  0  0  0  0  0  0  0  0  0
    4.9685   -4.8402    1.9229 H   0  0  0  0  0  0  0  0  0  0  0  0
    2.9875   -5.8510    1.0046 H   0  0  0  0  0  0  0  0  0  0  0  0
    2.2079   -7.7779    0.5980 H   0  0  0  0  0  0  0  0  0  0  0  0
   -0.5894   -8.1022   -3.8045 H   0  0  0  0  0  0  0  0  0  0  0  0
    1.8213   -9.2149   -4.1740 H   0  0  0  0  0  0  0  0  0  0  0  0
   -1.2171   -7.5346    3.0582 H   0  0  0  0  0  0  0  0  0  0  0  0
   -0.8882   -7.1209    5.4626 H   0  0  0  0  0  0  0  0  0  0  0  0
    1.1570   -6.0206    6.2603 H   0  0  0  0  0  0  0  0  0  0  0  0
    3.2203   -4.8611    5.8330 H   0  0  0  0  0  0  0  0  0  0  0  0
    2.9431   -2.7832    2.8431 H   0  0  0  0  0  0  0  0  0  0  0  0
    0.6968   -2.9770   -0.7266 H   0  0  0  0  0  0  0  0  0  0  0  0
    2.2863   -2.5961   -1.3713 H   0  0  0  0  0  0  0  0  0  0  0  0
    1.1351   -1.2744   -0.9064 H   0  0  0  0  0  0  0  0  0  0  0  0
  1  2  1  0  0  0  0
  1 34  1  0  0  0  0
  1 35  1  0  0  0  0
  1 36  1  0  0  0  0
  2  3  1  0  0  0  0
  3  4  1  0  0  0  0
  3 31  2  0  0  0  0
  4  5  2  0  0  0  0
  4 37  1  0  0  0  0
  5  6  1  0  0  0  0
  5 29  1  0  0  0  0
  6  7  2  0  0  0  0
  7  8  1  0  0  0  0
  7 38  1  0  0  0  0
  8  9  2  0  0  0  0
  8 39  1  0  0  0  0
  9 10  1  0  0  0  0
  9 29  1  0  0  0  0
 10 11  1  0  0  0  0
 11 12  1  0  0  0  0
 11 28  2  0  0  0  0
 12 13  2  0  0  0  0
 12 40  1  0  0  0  0
 13 14  1  0  0  0  0
 13 41  1  0  0  0  0
 14 15  1  0  0  0  0
 14 27  2  0  0  0  0
 15 16  1  0  0  0  0
 15 24  2  0  0  0  0
 16 17  2  0  0  0  0
 16 18  1  0  0  0  0
 18 19  1  0  0  0  0
 18 42  1  0  0  0  0
 19 20  2  0  0  0  0
 19 23  1  0  0  0  0
 20 21  1  0  0  0  0
 21 22  2  0  0  0  0
 21 43  1  0  0  0  0
 22 23  1  0  0  0  0
 22 44  1  0  0  0  0
 24 25  1  0  0  0  0
 24 45  1  0  0  0  0
 25 26  2  0  0  0  0
 25 46  1  0  0  0  0
 26 27  1  0  0  0  0
 26 47  1  0  0  0  0
 27 28  1  0  0  0  0
 28 48  1  0  0  0  0
 29 30  2  0  0  0  0
 30 31  1  0  0  0  0
 30 49  1  0  0  0  0
 31 32  1  0  0  0  0
 32 33  1  0  0  0  0
 33 50  1  0  0  0  0
 33 51  1  0  0  0  0
 33 52  1  0  0  0  0
M  END
$$$$
