CHEMBL2420866
 OpenBabel04072215363D

 42 45  0  0  0  0  0  0  0  0999 V2000
    1.0251    0.0712   -0.3638 C   0  0  0  0  0  0  0  0  0  0  0  0
    2.3771    0.1425    0.0849 O   0  0  0  0  0  0  0  0  0  0  0  0
    2.8765   -1.0138    0.6189 C   0  0  0  0  0  0  0  0  0  0  0  0
    2.3793   -2.2858    0.3635 C   0  0  0  0  0  0  0  0  0  0  0  0
    2.9966   -3.3992    0.9295 C   0  0  0  0  0  0  0  0  0  0  0  0
    4.1709   -3.2774    1.6880 C   0  0  0  0  0  0  0  0  0  0  0  0
    4.6301   -1.9875    2.0064 C   0  0  0  0  0  0  0  0  0  0  0  0
    3.9825   -0.8666    1.4599 C   0  0  0  0  0  0  0  0  0  0  0  0
    5.7923   -1.7888    2.9471 C   0  0  0  0  0  0  0  0  0  0  0  0
    6.5938   -3.0645    3.1921 C   0  0  0  0  0  0  0  0  0  0  0  0
    5.6716   -4.2755    3.2971 C   0  0  0  0  0  0  0  0  0  0  0  0
    4.9464   -4.4171    2.0331 N   0  0  0  0  0  0  0  0  0  0  0  0
    5.0208   -5.6692    1.3804 C   0  0  0  0  0  0  0  0  0  0  0  0
    5.1715   -6.7628    2.1588 N   0  0  0  0  0  0  0  0  0  0  0  0
    5.0984   -7.9656    1.5726 C   0  0  0  0  0  0  0  0  0  0  0  0
    5.2553   -9.1771    2.4365 C   0  0  0  0  0  0  0  0  0  0  0  0
    4.8614   -8.1732    0.2705 N   0  0  0  0  0  0  0  0  0  0  0  0
    4.7449   -7.0983   -0.5093 C   0  0  0  0  0  0  0  0  0  0  0  0
    4.4473   -7.2980   -1.8534 C   0  0  0  0  0  0  0  0  0  0  0  0
    4.2937   -6.2365   -2.7484 C   0  0  0  0  0  0  0  0  0  0  0  0
    4.5249   -4.9440   -2.3155 C   0  0  0  0  0  0  0  0  0  0  0  0
    4.8731   -4.7321   -0.9854 C   0  0  0  0  0  0  0  0  0  0  0  0
    4.8878   -5.7911   -0.0308 C   0  0  0  0  0  0  0  0  0  0  0  0
    0.7185    1.0792   -0.6576 H   0  0  0  0  0  0  0  0  0  0  0  0
    0.3668   -0.2624    0.4431 H   0  0  0  0  0  0  0  0  0  0  0  0
    0.9294   -0.5704   -1.2456 H   0  0  0  0  0  0  0  0  0  0  0  0
    1.5448   -2.4599   -0.3062 H   0  0  0  0  0  0  0  0  0  0  0  0
    2.5831   -4.3822    0.7156 H   0  0  0  0  0  0  0  0  0  0  0  0
    4.3492    0.1339    1.6780 H   0  0  0  0  0  0  0  0  0  0  0  0
    5.3911   -1.4293    3.9032 H   0  0  0  0  0  0  0  0  0  0  0  0
    6.4658   -1.0156    2.5590 H   0  0  0  0  0  0  0  0  0  0  0  0
    7.1923   -2.9578    4.1044 H   0  0  0  0  0  0  0  0  0  0  0  0
    7.2966   -3.2196    2.3631 H   0  0  0  0  0  0  0  0  0  0  0  0
    4.9661   -4.1554    4.1305 H   0  0  0  0  0  0  0  0  0  0  0  0
    6.2904   -5.1473    3.5365 H   0  0  0  0  0  0  0  0  0  0  0  0
    5.3718   -8.9003    3.4884 H   0  0  0  0  0  0  0  0  0  0  0  0
    6.1375   -9.7452    2.1259 H   0  0  0  0  0  0  0  0  0  0  0  0
    4.3724   -9.8162    2.3424 H   0  0  0  0  0  0  0  0  0  0  0  0
    4.3084   -8.3148   -2.2136 H   0  0  0  0  0  0  0  0  0  0  0  0
    4.0045   -6.4260   -3.7780 H   0  0  0  0  0  0  0  0  0  0  0  0
    4.4229   -4.1003   -2.9932 H   0  0  0  0  0  0  0  0  0  0  0  0
    5.0971   -3.7126   -0.6795 H   0  0  0  0  0  0  0  0  0  0  0  0
  1  2  1  0  0  0  0
  1 24  1  0  0  0  0
  1 25  1  0  0  0  0
  1 26  1  0  0  0  0
  2  3  1  0  0  0  0
  3  4  1  0  0  0  0
  3  8  2  0  0  0  0
  4  5  2  0  0  0  0
  4 27  1  0  0  0  0
  5  6  1  0  0  0  0
  5 28  1  0  0  0  0
  6  7  2  0  0  0  0
  6 12  1  0  0  0  0
  7  8  1  0  0  0  0
  7  9  1  0  0  0  0
  8 29  1  0  0  0  0
  9 10  1  0  0  0  0
  9 30  1  0  0  0  0
  9 31  1  0  0  0  0
 10 11  1  0  0  0  0
 10 32  1  0  0  0  0
 10 33  1  0  0  0  0
 11 12  1  0  0  0  0
 11 34  1  0  0  0  0
 11 35  1  0  0  0  0
 12 13  1  0  0  0  0
 13 14  1  0  0  0  0
 13 23  2  0  0  0  0
 14 15  2  0  0  0  0
 15 16  1  0  0  0  0
 15 17  1  0  0  0  0
 16 36  1  0  0  0  0
 16 37  1  0  0  0  0
 16 38  1  0  0  0  0
 17 18  2  0  0  0  0
 18 19  1  0  0  0  0
 18 23  1  0  0  0  0
 19 20  2  0  0  0  0
 19 39  1  0  0  0  0
 20 21  1  0  0  0  0
 20 40  1  0  0  0  0
 21 22  2  0  0  0  0
 21 41  1  0  0  0  0
 22 23  1  0  0  0  0
 22 42  1  0  0  0  0
M  END
$$$$
