CHEMBL371890
 OpenBabel04072215373D

 53 56  0  0  0  0  0  0  0  0999 V2000
    2.4062   -0.4531    1.6131 C   0  0  0  0  0  0  0  0  0  0  0  0
    0.9138   -0.3135    1.5851 C   0  0  0  0  0  0  0  0  0  0  0  0
    0.3107    0.8740    2.0083 C   0  0  0  0  0  0  0  0  0  0  0  0
   -1.0685    1.0024    1.9903 C   0  0  0  0  0  0  0  0  0  0  0  0
   -1.8589   -0.0559    1.5460 C   0  0  0  0  0  0  0  0  0  0  0  0
   -1.2838   -1.2545    1.1058 C   0  0  0  0  0  0  0  0  0  0  0  0
   -2.0410   -2.3586    0.6487 N   0  0  0  0  0  0  0  0  0  0  0  0
   -3.4058   -2.3651    0.4537 C   0  0  0  0  0  0  0  0  0  0  0  0
   -4.1326   -1.3805    0.5699 O   0  0  0  0  0  0  0  0  0  0  0  0
   -3.8861   -3.6296    0.1302 N   0  0  0  0  0  0  0  0  0  0  0  0
   -5.2629   -3.8068   -0.1342 C   0  0  0  0  0  0  0  0  0  0  0  0
   -5.9788   -2.8507   -0.8328 C   0  0  0  0  0  0  0  0  0  0  0  0
   -7.3750   -2.8969   -0.8652 C   0  0  0  0  0  0  0  0  0  0  0  0
   -8.1288   -3.9354   -0.3063 C   0  0  0  0  0  0  0  0  0  0  0  0
   -9.6400   -3.9254   -0.2124 C   0  0  0  0  0  0  0  0  0  0  0  0
  -10.4463   -2.9981   -0.9269 C   0  0  0  0  0  0  0  0  0  0  0  0
  -10.1198   -1.8722   -1.9214 C   0  0  0  0  0  0  0  0  0  0  0  0
  -11.1802   -1.5946   -2.9995 C   0  0  0  0  0  0  0  0  0  0  0  0
   -9.8177   -0.5550   -1.1837 C   0  0  0  0  0  0  0  0  0  0  0  0
  -12.1122   -3.1710   -0.5472 S   0  0  0  0  0  0  0  0  0  0  0  0
  -11.8569   -4.5098    0.4325 C   0  0  0  0  0  0  0  0  0  0  0  0
  -12.9452   -5.1107    0.9462 N   0  0  0  0  0  0  0  0  0  0  0  0
  -12.6501   -6.1249    1.7282 C   0  0  0  0  0  0  0  0  0  0  0  0
  -11.4280   -6.5386    2.0620 N   0  0  0  0  0  0  0  0  0  0  0  0
  -10.3592   -5.8879    1.5615 C   0  0  0  0  0  0  0  0  0  0  0  0
   -9.1743   -6.3696    2.1203 N   0  0  0  0  0  0  0  0  0  0  0  0
  -10.5222   -4.8233    0.6282 C   0  0  0  0  0  0  0  0  0  0  0  0
   -7.3483   -4.9872    0.1946 C   0  0  0  0  0  0  0  0  0  0  0  0
   -5.9465   -4.9149    0.3357 C   0  0  0  0  0  0  0  0  0  0  0  0
    0.1091   -1.3750    1.1341 C   0  0  0  0  0  0  0  0  0  0  0  0
    2.8813    0.4419    2.0255 H   0  0  0  0  0  0  0  0  0  0  0  0
    2.7887   -0.6009    0.5989 H   0  0  0  0  0  0  0  0  0  0  0  0
    2.6953   -1.3035    2.2397 H   0  0  0  0  0  0  0  0  0  0  0  0
    0.9153    1.7118    2.3596 H   0  0  0  0  0  0  0  0  0  0  0  0
   -1.5451    1.9251    2.3173 H   0  0  0  0  0  0  0  0  0  0  0  0
   -2.9332    0.0987    1.5682 H   0  0  0  0  0  0  0  0  0  0  0  0
   -1.5320   -3.1595    0.3085 H   0  0  0  0  0  0  0  0  0  0  0  0
   -3.4034   -4.3995    0.5691 H   0  0  0  0  0  0  0  0  0  0  0  0
   -5.4790   -2.0049   -1.3034 H   0  0  0  0  0  0  0  0  0  0  0  0
   -7.7938   -2.0288   -1.3357 H   0  0  0  0  0  0  0  0  0  0  0  0
   -9.2605   -2.1901   -2.5173 H   0  0  0  0  0  0  0  0  0  0  0  0
  -12.1123   -1.1975   -2.5847 H   0  0  0  0  0  0  0  0  0  0  0  0
  -11.4110   -2.5047   -3.5665 H   0  0  0  0  0  0  0  0  0  0  0  0
  -10.8057   -0.8495   -3.7085 H   0  0  0  0  0  0  0  0  0  0  0  0
  -10.7185   -0.1292   -0.7312 H   0  0  0  0  0  0  0  0  0  0  0  0
   -9.4063    0.1857   -1.8790 H   0  0  0  0  0  0  0  0  0  0  0  0
   -9.0928   -0.6812   -0.3716 H   0  0  0  0  0  0  0  0  0  0  0  0
  -13.4792   -6.6772    2.1632 H   0  0  0  0  0  0  0  0  0  0  0  0
   -9.4295   -7.0765    2.8049 H   0  0  0  0  0  0  0  0  0  0  0  0
   -8.6285   -5.6108    2.5248 H   0  0  0  0  0  0  0  0  0  0  0  0
   -7.8004   -5.9168    0.5004 H   0  0  0  0  0  0  0  0  0  0  0  0
   -5.4296   -5.7053    0.8691 H   0  0  0  0  0  0  0  0  0  0  0  0
    0.5863   -2.2939    0.8041 H   0  0  0  0  0  0  0  0  0  0  0  0
  1  2  1  0  0  0  0
  1 31  1  0  0  0  0
  1 32  1  0  0  0  0
  1 33  1  0  0  0  0
  2  3  1  0  0  0  0
  2 30  2  0  0  0  0
  3  4  2  0  0  0  0
  3 34  1  0  0  0  0
  4  5  1  0  0  0  0
  4 35  1  0  0  0  0
  5  6  2  0  0  0  0
  5 36  1  0  0  0  0
  6  7  1  0  0  0  0
  6 30  1  0  0  0  0
  7  8  1  0  0  0  0
  7 37  1  0  0  0  0
  8  9  2  0  0  0  0
  8 10  1  0  0  0  0
 10 11  1  0  0  0  0
 10 38  1  0  0  0  0
 11 12  1  0  0  0  0
 11 29  2  0  0  0  0
 12 13  2  0  0  0  0
 12 39  1  0  0  0  0
 13 14  1  0  0  0  0
 13 40  1  0  0  0  0
 14 15  1  0  0  0  0
 14 28  2  0  0  0  0
 15 16  2  0  0  0  0
 15 27  1  0  0  0  0
 16 17  1  0  0  0  0
 16 20  1  0  0  0  0
 17 18  1  0  0  0  0
 17 19  1  0  0  0  0
 17 41  1  0  0  0  0
 18 42  1  0  0  0  0
 18 43  1  0  0  0  0
 18 44  1  0  0  0  0
 19 45  1  0  0  0  0
 19 46  1  0  0  0  0
 19 47  1  0  0  0  0
 20 21  1  0  0  0  0
 21 22  1  0  0  0  0
 21 27  2  0  0  0  0
 22 23  2  0  0  0  0
 23 24  1  0  0  0  0
 23 48  1  0  0  0  0
 24 25  2  0  0  0  0
 25 26  1  0  0  0  0
 25 27  1  0  0  0  0
 26 49  1  0  0  0  0
 26 50  1  0  0  0  0
 28 29  1  0  0  0  0
 28 51  1  0  0  0  0
 29 52  1  0  0  0  0
 30 53  1  0  0  0  0
M  END
$$$$
