CHEMBL359795
 OpenBabel04072215363D

 47 50  0  0  0  0  0  0  0  0999 V2000
   -4.5812   -5.1477    7.2636 C   0  0  0  0  0  0  0  0  0  0  0  0
   -3.6727   -4.7320    6.1442 C   0  0  0  0  0  0  0  0  0  0  0  0
   -2.2998   -4.6029    6.3679 C   0  0  0  0  0  0  0  0  0  0  0  0
   -1.4539   -4.2254    5.3323 C   0  0  0  0  0  0  0  0  0  0  0  0
   -1.9662   -3.9972    4.0563 C   0  0  0  0  0  0  0  0  0  0  0  0
   -3.3300   -4.1472    3.7978 C   0  0  0  0  0  0  0  0  0  0  0  0
   -3.8880   -3.9604    2.5135 N   0  0  0  0  0  0  0  0  0  0  0  0
   -3.1837   -3.8834    1.3250 C   0  0  0  0  0  0  0  0  0  0  0  0
   -1.9656   -4.0314    1.2088 O   0  0  0  0  0  0  0  0  0  0  0  0
   -3.9833   -3.6252    0.0626 C   0  0  0  0  0  0  0  0  0  0  0  0
   -5.4704   -3.4417    0.1893 C   0  0  0  0  0  0  0  0  0  0  0  0
   -6.0266   -2.1753    0.3779 C   0  0  0  0  0  0  0  0  0  0  0  0
   -7.4163   -2.0129    0.4157 C   0  0  0  0  0  0  0  0  0  0  0  0
   -8.2942   -3.0992    0.2374 C   0  0  0  0  0  0  0  0  0  0  0  0
   -9.7629   -2.9013    0.1465 C   0  0  0  0  0  0  0  0  0  0  0  0
  -10.2908   -1.7260   -0.4479 C   0  0  0  0  0  0  0  0  0  0  0  0
  -11.6735   -1.4976   -0.6008 C   0  0  0  0  0  0  0  0  0  0  0  0
  -12.5916   -2.4449   -0.1700 C   0  0  0  0  0  0  0  0  0  0  0  0
  -12.0835   -3.5853    0.4170 C   0  0  0  0  0  0  0  0  0  0  0  0
  -10.7113   -3.8299    0.5853 C   0  0  0  0  0  0  0  0  0  0  0  0
  -10.5489   -5.1577    1.2603 C   0  0  0  0  0  0  0  0  0  0  0  0
  -11.9038   -5.5889    1.4853 N   0  0  0  0  0  0  0  0  0  0  0  0
  -12.8307   -4.7274    0.9519 C   0  0  0  0  0  0  0  0  0  0  0  0
  -14.0335   -4.8833    0.9089 O   0  0  0  0  0  0  0  0  0  0  0  0
   -7.7030   -4.3635    0.0791 C   0  0  0  0  0  0  0  0  0  0  0  0
   -6.3189   -4.5419    0.0819 C   0  0  0  0  0  0  0  0  0  0  0  0
   -4.1841   -4.4870    4.8567 C   0  0  0  0  0  0  0  0  0  0  0  0
   -4.0251   -5.2801    8.1988 H   0  0  0  0  0  0  0  0  0  0  0  0
   -5.0620   -6.1016    7.0259 H   0  0  0  0  0  0  0  0  0  0  0  0
   -5.3464   -4.3854    7.4372 H   0  0  0  0  0  0  0  0  0  0  0  0
   -1.8752   -4.7962    7.3513 H   0  0  0  0  0  0  0  0  0  0  0  0
   -0.3872   -4.1191    5.5066 H   0  0  0  0  0  0  0  0  0  0  0  0
   -1.2660   -3.6900    3.2868 H   0  0  0  0  0  0  0  0  0  0  0  0
   -4.8996   -3.9797    2.4624 H   0  0  0  0  0  0  0  0  0  0  0  0
   -3.7902   -4.4643   -0.6192 H   0  0  0  0  0  0  0  0  0  0  0  0
   -3.5564   -2.7363   -0.4185 H   0  0  0  0  0  0  0  0  0  0  0  0
   -5.3874   -1.2981    0.4648 H   0  0  0  0  0  0  0  0  0  0  0  0
   -7.8024   -1.0047    0.5570 H   0  0  0  0  0  0  0  0  0  0  0  0
   -9.6201   -0.9585   -0.8337 H   0  0  0  0  0  0  0  0  0  0  0  0
  -12.0192   -0.5786   -1.0688 H   0  0  0  0  0  0  0  0  0  0  0  0
  -13.6605   -2.3033   -0.2869 H   0  0  0  0  0  0  0  0  0  0  0  0
  -10.0320   -5.0843    2.2201 H   0  0  0  0  0  0  0  0  0  0  0  0
  -10.0926   -5.9088    0.6135 H   0  0  0  0  0  0  0  0  0  0  0  0
  -12.1790   -6.5027    1.8193 H   0  0  0  0  0  0  0  0  0  0  0  0
   -8.3008   -5.2459   -0.1135 H   0  0  0  0  0  0  0  0  0  0  0  0
   -5.9152   -5.5439   -0.0535 H   0  0  0  0  0  0  0  0  0  0  0  0
   -5.2528   -4.5954    4.6867 H   0  0  0  0  0  0  0  0  0  0  0  0
  1  2  1  0  0  0  0
  1 28  1  0  0  0  0
  1 29  1  0  0  0  0
  1 30  1  0  0  0  0
  2  3  1  0  0  0  0
  2 27  2  0  0  0  0
  3  4  2  0  0  0  0
  3 31  1  0  0  0  0
  4  5  1  0  0  0  0
  4 32  1  0  0  0  0
  5  6  2  0  0  0  0
  5 33  1  0  0  0  0
  6  7  1  0  0  0  0
  6 27  1  0  0  0  0
  7  8  1  0  0  0  0
  7 34  1  0  0  0  0
  8  9  2  0  0  0  0
  8 10  1  0  0  0  0
 10 11  1  0  0  0  0
 10 35  1  0  0  0  0
 10 36  1  0  0  0  0
 11 12  1  0  0  0  0
 11 26  2  0  0  0  0
 12 13  2  0  0  0  0
 12 37  1  0  0  0  0
 13 14  1  0  0  0  0
 13 38  1  0  0  0  0
 14 15  1  0  0  0  0
 14 25  2  0  0  0  0
 15 16  1  0  0  0  0
 15 20  2  0  0  0  0
 16 17  2  0  0  0  0
 16 39  1  0  0  0  0
 17 18  1  0  0  0  0
 17 40  1  0  0  0  0
 18 19  2  0  0  0  0
 18 41  1  0  0  0  0
 19 20  1  0  0  0  0
 19 23  1  0  0  0  0
 20 21  1  0  0  0  0
 21 22  1  0  0  0  0
 21 42  1  0  0  0  0
 21 43  1  0  0  0  0
 22 23  1  0  0  0  0
 22 44  1  0  0  0  0
 23 24  2  0  0  0  0
 25 26  1  0  0  0  0
 25 45  1  0  0  0  0
 26 46  1  0  0  0  0
 27 47  1  0  0  0  0
M  END
$$$$
