CHEMBL3896052
 OpenBabel04072215373D

 65 67  0  0  0  0  0  0  0  0999 V2000
    3.5376   -2.3925   -2.4678 C   0  0  0  0  0  0  0  0  0  0  0  0
    4.4014   -1.2331   -2.2475 N   0  0  0  0  0  0  0  0  0  0  0  0
    3.5955   -0.1547   -1.6782 C   0  0  0  0  0  0  0  0  0  0  0  0
    4.4664    1.0952   -1.3718 C   0  0  0  0  0  0  0  0  0  0  0  0
    5.2235    1.7151   -2.5307 N   0  0  0  0  0  0  0  0  0  0  0  0
    4.3467    2.3310   -3.5457 C   0  0  0  0  0  0  0  0  0  0  0  0
    2.9256    2.2831   -3.3665 C   0  0  0  0  0  0  0  0  0  0  0  0
    1.9936    2.6967   -4.3073 C   0  0  0  0  0  0  0  0  0  0  0  0
    0.6501    2.4746   -4.1468 O   0  0  0  0  0  0  0  0  0  0  0  0
    0.0657    1.7208   -3.1301 C   0  0  0  0  0  0  0  0  0  0  0  0
    2.4436    3.3194   -5.4483 C   0  0  0  0  0  0  0  0  0  0  0  0
    3.8240    3.5298   -5.6435 C   0  0  0  0  0  0  0  0  0  0  0  0
    4.2548    4.2465   -6.7164 O   0  0  0  0  0  0  0  0  0  0  0  0
    3.4322    4.7861   -7.6910 C   0  0  0  0  0  0  0  0  0  0  0  0
    4.7741    3.0163   -4.7053 C   0  0  0  0  0  0  0  0  0  0  0  0
    6.7268    1.6015   -2.4723 C   0  0  0  0  0  0  0  0  0  0  0  0
    7.2406    1.4587   -1.1647 C   0  0  0  0  0  0  0  0  0  0  0  0
    8.5115    1.1448   -0.8689 C   0  0  0  0  0  0  0  0  0  0  0  0
    9.4520    1.0282   -1.8245 C   0  0  0  0  0  0  0  0  0  0  0  0
   10.6514    0.6843   -1.3629 N   0  0  0  0  0  0  0  0  0  0  0  0
   11.7015    0.5453   -2.1506 C   0  0  0  0  0  0  0  0  0  0  0  0
   11.6076    0.7746   -3.5214 C   0  0  0  0  0  0  0  0  0  0  0  0
   12.9813    0.5784   -4.2079 C   0  0  0  0  0  0  0  0  0  0  0  0
   13.4857    0.9572   -5.4472 C   0  0  0  0  0  0  0  0  0  0  0  0
   14.7710    0.5102   -5.5736 N   0  0  0  0  0  0  0  0  0  0  0  0
   15.1224   -0.1371   -4.4707 N   0  0  0  0  0  0  0  0  0  0  0  0
   16.4125   -0.8696   -4.2876 C   0  0  0  0  0  0  0  0  0  0  0  0
   17.3313   -0.3434   -3.1539 C   0  0  0  0  0  0  0  0  0  0  0  0
   16.1397   -2.3617   -4.0257 C   0  0  0  0  0  0  0  0  0  0  0  0
   14.0801   -0.1060   -3.6194 C   0  0  0  0  0  0  0  0  0  0  0  0
   10.3308    1.1516   -4.0433 N   0  0  0  0  0  0  0  0  0  0  0  0
    9.2059    1.2517   -3.2010 C   0  0  0  0  0  0  0  0  0  0  0  0
    7.7781    1.5625   -3.5459 C   0  0  0  0  0  0  0  0  0  0  0  0
    0.8178   -2.7573    0.2465 Cl  0  0  0  0  0  0  0  0  0  0  0  0
    4.1236   -3.2047   -2.9396 H   0  0  0  0  0  0  0  0  0  0  0  0
    2.6865   -2.1339   -3.1386 H   0  0  0  0  0  0  0  0  0  0  0  0
    3.1360   -2.7591   -1.5004 H   0  0  0  0  0  0  0  0  0  0  0  0
    4.7562   -0.9087   -3.1759 H   0  0  0  0  0  0  0  0  0  0  0  0
    3.1664   -0.4843   -0.6998 H   0  0  0  0  0  0  0  0  0  0  0  0
    2.7153   -0.0174   -2.3222 H   0  0  0  0  0  0  0  0  0  0  0  0
    5.0616    0.6212   -0.5931 H   0  0  0  0  0  0  0  0  0  0  0  0
    3.8818    1.8790   -0.8467 H   0  0  0  0  0  0  0  0  0  0  0  0
    2.4711    1.9195   -2.4837 H   0  0  0  0  0  0  0  0  0  0  0  0
   -1.0228    1.6135   -3.3148 H   0  0  0  0  0  0  0  0  0  0  0  0
    0.2101    2.2156   -2.1464 H   0  0  0  0  0  0  0  0  0  0  0  0
    0.5010    0.6980   -3.1012 H   0  0  0  0  0  0  0  0  0  0  0  0
    1.7006    3.6440   -6.1589 H   0  0  0  0  0  0  0  0  0  0  0  0
    4.0237    5.4311   -8.3716 H   0  0  0  0  0  0  0  0  0  0  0  0
    2.6401    5.4253   -7.2349 H   0  0  0  0  0  0  0  0  0  0  0  0
    2.9562    3.9741   -8.2798 H   0  0  0  0  0  0  0  0  0  0  0  0
    5.8240    3.1832   -4.8879 H   0  0  0  0  0  0  0  0  0  0  0  0
    6.6812    1.5649   -0.2643 H   0  0  0  0  0  0  0  0  0  0  0  0
    8.7809    0.9767    0.1689 H   0  0  0  0  0  0  0  0  0  0  0  0
   12.6023    0.2790   -1.6376 H   0  0  0  0  0  0  0  0  0  0  0  0
   12.9802    1.5220   -6.2144 H   0  0  0  0  0  0  0  0  0  0  0  0
   17.0021   -0.7917   -5.2257 H   0  0  0  0  0  0  0  0  0  0  0  0
   16.8647   -0.4208   -2.1488 H   0  0  0  0  0  0  0  0  0  0  0  0
   17.6540    0.7014   -3.3395 H   0  0  0  0  0  0  0  0  0  0  0  0
   18.2627   -0.9591   -3.1236 H   0  0  0  0  0  0  0  0  0  0  0  0
   15.6173   -2.5065   -3.0550 H   0  0  0  0  0  0  0  0  0  0  0  0
   17.0906   -2.9369   -3.9886 H   0  0  0  0  0  0  0  0  0  0  0  0
   15.5108   -2.7778   -4.8399 H   0  0  0  0  0  0  0  0  0  0  0  0
   14.1352   -0.5960   -2.6598 H   0  0  0  0  0  0  0  0  0  0  0  0
    7.5023    1.7018   -4.5822 H   0  0  0  0  0  0  0  0  0  0  0  0
    1.3912   -1.9798    1.2254 H   0  0  0  0  0  0  0  0  0  0  0  0
  1  2  1  0  0  0  0
  1 35  1  0  0  0  0
  1 36  1  0  0  0  0
  1 37  1  0  0  0  0
  2  3  1  0  0  0  0
  2 38  1  0  0  0  0
  3  4  1  0  0  0  0
  3 39  1  0  0  0  0
  3 40  1  0  0  0  0
  4  5  1  0  0  0  0
  4 41  1  0  0  0  0
  4 42  1  0  0  0  0
  5  6  1  0  0  0  0
  5 16  1  0  0  0  0
  6  7  1  0  0  0  0
  6 15  2  0  0  0  0
  7  8  2  0  0  0  0
  7 43  1  0  0  0  0
  8  9  1  0  0  0  0
  8 11  1  0  0  0  0
  9 10  1  0  0  0  0
 10 44  1  0  0  0  0
 10 45  1  0  0  0  0
 10 46  1  0  0  0  0
 11 12  2  0  0  0  0
 11 47  1  0  0  0  0
 12 13  1  0  0  0  0
 12 15  1  0  0  0  0
 13 14  1  0  0  0  0
 14 48  1  0  0  0  0
 14 49  1  0  0  0  0
 14 50  1  0  0  0  0
 15 51  1  0  0  0  0
 16 17  1  0  0  0  0
 16 33  2  0  0  0  0
 17 18  2  0  0  0  0
 17 52  1  0  0  0  0
 18 19  1  0  0  0  0
 18 53  1  0  0  0  0
 19 20  1  0  0  0  0
 19 32  2  0  0  0  0
 20 21  2  0  0  0  0
 21 22  1  0  0  0  0
 21 54  1  0  0  0  0
 22 23  1  0  0  0  0
 22 31  2  0  0  0  0
 23 24  1  0  0  0  0
 23 30  2  0  0  0  0
 24 25  2  0  0  0  0
 24 55  1  0  0  0  0
 25 26  1  0  0  0  0
 26 27  1  0  0  0  0
 26 30  1  0  0  0  0
 27 28  1  0  0  0  0
 27 29  1  0  0  0  0
 27 56  1  0  0  0  0
 28 57  1  0  0  0  0
 28 58  1  0  0  0  0
 28 59  1  0  0  0  0
 29 60  1  0  0  0  0
 29 61  1  0  0  0  0
 29 62  1  0  0  0  0
 30 63  1  0  0  0  0
 31 32  1  0  0  0  0
 32 33  1  0  0  0  0
 33 64  1  0  0  0  0
 34 65  1  0  0  0  0
M  END
$$$$
