CHEMBL603545
 OpenBabel04072215383D

 38 41  0  0  0  0  0  0  0  0999 V2000
    1.1637   -0.4976    0.4443 O   0  0  0  0  0  0  0  0  0  0  0  0
    2.3011   -0.1929    0.0903 C   0  0  0  0  0  0  0  0  0  0  0  0
    2.9938   -0.9080   -1.0499 C   0  0  0  0  0  0  0  0  0  0  0  0
    4.2374   -1.5655   -0.5731 C   0  0  0  0  0  0  0  0  0  0  0  0
    4.3885   -2.9311   -0.5038 C   0  0  0  0  0  0  0  0  0  0  0  0
    5.4914   -3.5372   -0.0283 N   0  0  0  0  0  0  0  0  0  0  0  0
    6.4890   -2.7445    0.3831 C   0  0  0  0  0  0  0  0  0  0  0  0
    7.6448   -3.3824    0.8360 N   0  0  0  0  0  0  0  0  0  0  0  0
    8.9604   -2.8852    0.8718 C   0  0  0  0  0  0  0  0  0  0  0  0
    9.2571   -1.5279    1.0376 C   0  0  0  0  0  0  0  0  0  0  0  0
   10.5661   -1.0563    0.9503 C   0  0  0  0  0  0  0  0  0  0  0  0
   11.6133   -1.9484    0.7428 C   0  0  0  0  0  0  0  0  0  0  0  0
   11.3545   -3.3156    0.6486 C   0  0  0  0  0  0  0  0  0  0  0  0
   10.0375   -3.7735    0.7165 C   0  0  0  0  0  0  0  0  0  0  0  0
    9.7638   -5.1129    0.5950 O   0  0  0  0  0  0  0  0  0  0  0  0
    6.4214   -1.4045    0.3375 N   0  0  0  0  0  0  0  0  0  0  0  0
    5.3008   -0.8186   -0.1236 C   0  0  0  0  0  0  0  0  0  0  0  0
    5.2914    0.6592   -0.1082 C   0  0  0  0  0  0  0  0  0  0  0  0
    6.4462    1.3631   -0.5103 C   0  0  0  0  0  0  0  0  0  0  0  0
    6.4973    2.7593   -0.4941 C   0  0  0  0  0  0  0  0  0  0  0  0
    5.4144    3.4858   -0.0148 C   0  0  0  0  0  0  0  0  0  0  0  0
    4.2756    2.8176    0.4270 C   0  0  0  0  0  0  0  0  0  0  0  0
    4.1833    1.4207    0.3296 C   0  0  0  0  0  0  0  0  0  0  0  0
    2.9313    0.8763    0.6714 N   0  0  0  0  0  0  0  0  0  0  0  0
    3.2110   -0.1921   -1.8539 H   0  0  0  0  0  0  0  0  0  0  0  0
    2.3003   -1.6409   -1.4756 H   0  0  0  0  0  0  0  0  0  0  0  0
    3.6022   -3.6064   -0.8303 H   0  0  0  0  0  0  0  0  0  0  0  0
    7.5930   -4.3772    0.6511 H   0  0  0  0  0  0  0  0  0  0  0  0
    8.4687   -0.8067    1.2303 H   0  0  0  0  0  0  0  0  0  0  0  0
   10.7554    0.0100    1.0375 H   0  0  0  0  0  0  0  0  0  0  0  0
   12.6297   -1.5748    0.6592 H   0  0  0  0  0  0  0  0  0  0  0  0
   12.1831   -4.0003    0.5043 H   0  0  0  0  0  0  0  0  0  0  0  0
   10.6080   -5.5898    0.5319 H   0  0  0  0  0  0  0  0  0  0  0  0
    7.3209    0.8115   -0.8555 H   0  0  0  0  0  0  0  0  0  0  0  0
    7.3852    3.2755   -0.8503 H   0  0  0  0  0  0  0  0  0  0  0  0
    5.4472    4.5723   -0.0001 H   0  0  0  0  0  0  0  0  0  0  0  0
    3.4326    3.4049    0.7843 H   0  0  0  0  0  0  0  0  0  0  0  0
    2.3149    1.4166    1.2654 H   0  0  0  0  0  0  0  0  0  0  0  0
  1  2  2  0  0  0  0
  2  3  1  0  0  0  0
  2 24  1  0  0  0  0
  3  4  1  0  0  0  0
  3 25  1  0  0  0  0
  3 26  1  0  0  0  0
  4  5  1  0  0  0  0
  4 17  2  0  0  0  0
  5  6  2  0  0  0  0
  5 27  1  0  0  0  0
  6  7  1  0  0  0  0
  7  8  1  0  0  0  0
  7 16  2  0  0  0  0
  8  9  1  0  0  0  0
  8 28  1  0  0  0  0
  9 10  1  0  0  0  0
  9 14  2  0  0  0  0
 10 11  2  0  0  0  0
 10 29  1  0  0  0  0
 11 12  1  0  0  0  0
 11 30  1  0  0  0  0
 12 13  2  0  0  0  0
 12 31  1  0  0  0  0
 13 14  1  0  0  0  0
 13 32  1  0  0  0  0
 14 15  1  0  0  0  0
 15 33  1  0  0  0  0
 16 17  1  0  0  0  0
 17 18  1  0  0  0  0
 18 19  1  0  0  0  0
 18 23  2  0  0  0  0
 19 20  2  0  0  0  0
 19 34  1  0  0  0  0
 20 21  1  0  0  0  0
 20 35  1  0  0  0  0
 21 22  2  0  0  0  0
 21 36  1  0  0  0  0
 22 23  1  0  0  0  0
 22 37  1  0  0  0  0
 23 24  1  0  0  0  0
 24 38  1  0  0  0  0
M  END
$$$$
