CHEMBL1254278
 OpenBabel04072215363D

 46 49  0  0  0  0  0  0  0  0999 V2000
    3.5501   -0.9165   -1.0606 C   0  0  0  0  0  0  0  0  0  0  0  0
    3.3159   -0.5861    0.3274 N   0  0  0  0  0  0  0  0  0  0  0  0
    3.9106    0.4618    0.9880 C   0  0  0  0  0  0  0  0  0  0  0  0
    3.4405    0.4729    2.2813 C   0  0  0  0  0  0  0  0  0  0  0  0
    2.5256   -0.5995    2.4022 C   0  0  0  0  0  0  0  0  0  0  0  0
    1.8170   -0.9841    3.4830 N   0  0  0  0  0  0  0  0  0  0  0  0
    1.0266   -2.0384    3.2535 C   0  0  0  0  0  0  0  0  0  0  0  0
    0.8864   -2.7285    2.1103 N   0  0  0  0  0  0  0  0  0  0  0  0
    1.6422   -2.3640    1.0493 C   0  0  0  0  0  0  0  0  0  0  0  0
    1.5686   -3.0977   -0.1316 O   0  0  0  0  0  0  0  0  0  0  0  0
    1.4022   -4.4635   -0.0177 C   0  0  0  0  0  0  0  0  0  0  0  0
    1.9664   -5.2125    1.0186 C   0  0  0  0  0  0  0  0  0  0  0  0
    1.7582   -6.5902    1.0936 C   0  0  0  0  0  0  0  0  0  0  0  0
    1.0125   -7.2645    0.1213 C   0  0  0  0  0  0  0  0  0  0  0  0
    0.7923   -8.6674    0.1839 N   0  0  0  0  0  0  0  0  0  0  0  0
    1.0676   -9.4838    1.2673 C   0  0  0  0  0  0  0  0  0  0  0  0
    1.4279   -9.0989    2.3729 O   0  0  0  0  0  0  0  0  0  0  0  0
    0.9416  -10.8298    0.9469 N   0  0  0  0  0  0  0  0  0  0  0  0
    1.2102  -11.8277    1.9162 C   0  0  0  0  0  0  0  0  0  0  0  0
    2.0067  -12.9097    1.5613 C   0  0  0  0  0  0  0  0  0  0  0  0
    2.3127  -13.8374    2.5407 C   0  0  0  0  0  0  0  0  0  0  0  0
    1.8326  -13.7903    3.8011 N   0  0  0  0  0  0  0  0  0  0  0  0
    1.0161  -12.7487    4.1331 C   0  0  0  0  0  0  0  0  0  0  0  0
    0.3984  -12.6919    5.5246 C   0  0  0  0  0  0  0  0  0  0  0  0
    0.6886  -13.7686    6.3108 F   0  0  0  0  0  0  0  0  0  0  0  0
    0.7877  -11.5966    6.2393 F   0  0  0  0  0  0  0  0  0  0  0  0
   -0.9669  -12.6320    5.4813 F   0  0  0  0  0  0  0  0  0  0  0  0
    0.7036  -11.7450    3.2116 C   0  0  0  0  0  0  0  0  0  0  0  0
    0.5055   -6.5099   -0.9514 C   0  0  0  0  0  0  0  0  0  0  0  0
   -0.3774   -7.2781   -2.2307 Cl  0  0  0  0  0  0  0  0  0  0  0  0
    0.6980   -5.1222   -1.0244 C   0  0  0  0  0  0  0  0  0  0  0  0
    2.4627   -1.2526    1.1757 C   0  0  0  0  0  0  0  0  0  0  0  0
    4.2648   -0.2082   -1.4880 H   0  0  0  0  0  0  0  0  0  0  0  0
    2.6000   -0.8473   -1.5961 H   0  0  0  0  0  0  0  0  0  0  0  0
    3.9579   -1.9286   -1.1132 H   0  0  0  0  0  0  0  0  0  0  0  0
    4.6255    1.1105    0.4967 H   0  0  0  0  0  0  0  0  0  0  0  0
    3.7174    1.1678    3.0622 H   0  0  0  0  0  0  0  0  0  0  0  0
    0.4351   -2.3852    4.0949 H   0  0  0  0  0  0  0  0  0  0  0  0
    2.5538   -4.7408    1.8019 H   0  0  0  0  0  0  0  0  0  0  0  0
    2.2036   -7.1004    1.9409 H   0  0  0  0  0  0  0  0  0  0  0  0
    0.2268   -9.0582   -0.5595 H   0  0  0  0  0  0  0  0  0  0  0  0
    1.1824  -11.0499   -0.0093 H   0  0  0  0  0  0  0  0  0  0  0  0
    2.4412  -13.0033    0.5745 H   0  0  0  0  0  0  0  0  0  0  0  0
    2.9823  -14.6679    2.3342 H   0  0  0  0  0  0  0  0  0  0  0  0
    0.0642  -10.9182    3.5148 H   0  0  0  0  0  0  0  0  0  0  0  0
    0.2943   -4.5517   -1.8569 H   0  0  0  0  0  0  0  0  0  0  0  0
  1  2  1  0  0  0  0
  1 33  1  0  0  0  0
  1 34  1  0  0  0  0
  1 35  1  0  0  0  0
  2  3  1  0  0  0  0
  2 32  1  0  0  0  0
  3  4  2  0  0  0  0
  3 36  1  0  0  0  0
  4  5  1  0  0  0  0
  4 37  1  0  0  0  0
  5  6  1  0  0  0  0
  5 32  2  0  0  0  0
  6  7  2  0  0  0  0
  7  8  1  0  0  0  0
  7 38  1  0  0  0  0
  8  9  2  0  0  0  0
  9 10  1  0  0  0  0
  9 32  1  0  0  0  0
 10 11  1  0  0  0  0
 11 12  1  0  0  0  0
 11 31  2  0  0  0  0
 12 13  2  0  0  0  0
 12 39  1  0  0  0  0
 13 14  1  0  0  0  0
 13 40  1  0  0  0  0
 14 15  1  0  0  0  0
 14 29  2  0  0  0  0
 15 16  1  0  0  0  0
 15 41  1  0  0  0  0
 16 17  2  0  0  0  0
 16 18  1  0  0  0  0
 18 19  1  0  0  0  0
 18 42  1  0  0  0  0
 19 20  1  0  0  0  0
 19 28  2  0  0  0  0
 20 21  2  0  0  0  0
 20 43  1  0  0  0  0
 21 22  1  0  0  0  0
 21 44  1  0  0  0  0
 22 23  2  0  0  0  0
 23 24  1  0  0  0  0
 23 28  1  0  0  0  0
 24 25  1  0  0  0  0
 24 26  1  0  0  0  0
 24 27  1  0  0  0  0
 28 45  1  0  0  0  0
 29 30  1  0  0  0  0
 29 31  1  0  0  0  0
 31 46  1  0  0  0  0
M  END
$$$$
