CHEMBL511910
 OpenBabel04072215383D

 52 56  0  0  0  0  0  0  0  0999 V2000
    5.6729  -11.8490   -6.3449 C   0  0  0  0  0  0  0  0  0  0  0  0
    5.3371  -11.5655   -4.9892 O   0  0  0  0  0  0  0  0  0  0  0  0
    5.3840  -10.2391   -4.6464 C   0  0  0  0  0  0  0  0  0  0  0  0
    5.1563   -9.1906   -5.5329 C   0  0  0  0  0  0  0  0  0  0  0  0
    5.2105   -7.8614   -5.0969 C   0  0  0  0  0  0  0  0  0  0  0  0
    5.4489   -7.5711   -3.7373 C   0  0  0  0  0  0  0  0  0  0  0  0
    5.4584   -6.3719   -2.9440 C   0  0  0  0  0  0  0  0  0  0  0  0
    5.1239   -4.9879   -3.2952 C   0  0  0  0  0  0  0  0  0  0  0  0
    5.6506   -4.0421   -2.7107 O   0  0  0  0  0  0  0  0  0  0  0  0
    4.1332   -4.6946   -4.3763 C   0  0  0  0  0  0  0  0  0  0  0  0
    4.4225   -3.5719   -5.1778 C   0  0  0  0  0  0  0  0  0  0  0  0
    3.6233   -3.2501   -6.2721 C   0  0  0  0  0  0  0  0  0  0  0  0
    2.5529   -4.0697   -6.5996 C   0  0  0  0  0  0  0  0  0  0  0  0
    2.2385   -5.1631   -5.7893 C   0  0  0  0  0  0  0  0  0  0  0  0
    2.9739   -5.4664   -4.6271 C   0  0  0  0  0  0  0  0  0  0  0  0
    2.4984   -6.4324   -3.7392 N   0  0  0  0  0  0  0  0  0  0  0  0
    1.8412   -7.6472   -4.2042 C   0  0  0  0  0  0  0  0  0  0  0  0
    0.3351   -7.5731   -4.1014 C   0  0  0  0  0  0  0  0  0  0  0  0
   -0.4135   -8.6563   -4.5725 C   0  0  0  0  0  0  0  0  0  0  0  0
   -1.8080   -8.6330   -4.5290 C   0  0  0  0  0  0  0  0  0  0  0  0
   -2.5008   -7.5550   -3.9934 C   0  0  0  0  0  0  0  0  0  0  0  0
   -3.8433   -7.5938   -3.9623 N   0  0  0  0  0  0  0  0  0  0  0  0
   -4.4899   -6.5468   -3.4085 C   0  0  0  0  0  0  0  0  0  0  0  0
   -3.8580   -5.4406   -2.8782 C   0  0  0  0  0  0  0  0  0  0  0  0
   -2.4683   -5.3953   -2.9307 C   0  0  0  0  0  0  0  0  0  0  0  0
   -1.7596   -6.4655   -3.4928 C   0  0  0  0  0  0  0  0  0  0  0  0
   -0.3552   -6.4767   -3.5563 C   0  0  0  0  0  0  0  0  0  0  0  0
    5.8479   -6.7540   -1.6712 C   0  0  0  0  0  0  0  0  0  0  0  0
    5.9708   -8.1155   -1.6375 N   0  0  0  0  0  0  0  0  0  0  0  0
    5.6956   -8.6444   -2.8769 C   0  0  0  0  0  0  0  0  0  0  0  0
    5.6533   -9.9809   -3.2981 C   0  0  0  0  0  0  0  0  0  0  0  0
    5.7647  -12.9329   -6.4505 H   0  0  0  0  0  0  0  0  0  0  0  0
    6.6366  -11.4006   -6.6129 H   0  0  0  0  0  0  0  0  0  0  0  0
    4.8832  -11.5177   -7.0272 H   0  0  0  0  0  0  0  0  0  0  0  0
    4.9066   -9.3686   -6.5734 H   0  0  0  0  0  0  0  0  0  0  0  0
    5.0263   -7.0650   -5.8124 H   0  0  0  0  0  0  0  0  0  0  0  0
    5.2785   -2.9403   -4.9444 H   0  0  0  0  0  0  0  0  0  0  0  0
    3.8401   -2.3683   -6.8691 H   0  0  0  0  0  0  0  0  0  0  0  0
    1.9337   -3.8443   -7.4645 H   0  0  0  0  0  0  0  0  0  0  0  0
    1.3631   -5.7491   -6.0588 H   0  0  0  0  0  0  0  0  0  0  0  0
    3.0120   -6.5655   -2.8749 H   0  0  0  0  0  0  0  0  0  0  0  0
    2.1752   -8.4788   -3.5710 H   0  0  0  0  0  0  0  0  0  0  0  0
    2.1335   -7.8984   -5.2317 H   0  0  0  0  0  0  0  0  0  0  0  0
    0.0835   -9.5255   -4.9950 H   0  0  0  0  0  0  0  0  0  0  0  0
   -2.3718   -9.4763   -4.9076 H   0  0  0  0  0  0  0  0  0  0  0  0
   -5.5728   -6.6312   -3.4019 H   0  0  0  0  0  0  0  0  0  0  0  0
   -4.4322   -4.6345   -2.4333 H   0  0  0  0  0  0  0  0  0  0  0  0
   -1.9464   -4.5344   -2.5231 H   0  0  0  0  0  0  0  0  0  0  0  0
    0.2043   -5.6204   -3.1825 H   0  0  0  0  0  0  0  0  0  0  0  0
    6.0147   -6.1618   -0.7804 H   0  0  0  0  0  0  0  0  0  0  0  0
    6.2174   -8.6609   -0.8219 H   0  0  0  0  0  0  0  0  0  0  0  0
    5.8312  -10.7982   -2.6057 H   0  0  0  0  0  0  0  0  0  0  0  0
  1  2  1  0  0  0  0
  1 32  1  0  0  0  0
  1 33  1  0  0  0  0
  1 34  1  0  0  0  0
  2  3  1  0  0  0  0
  3  4  1  0  0  0  0
  3 31  2  0  0  0  0
  4  5  2  0  0  0  0
  4 35  1  0  0  0  0
  5  6  1  0  0  0  0
  5 36  1  0  0  0  0
  6  7  1  0  0  0  0
  6 30  2  0  0  0  0
  7  8  1  0  0  0  0
  7 28  2  0  0  0  0
  8  9  2  0  0  0  0
  8 10  1  0  0  0  0
 10 11  1  0  0  0  0
 10 15  2  0  0  0  0
 11 12  2  0  0  0  0
 11 37  1  0  0  0  0
 12 13  1  0  0  0  0
 12 38  1  0  0  0  0
 13 14  2  0  0  0  0
 13 39  1  0  0  0  0
 14 15  1  0  0  0  0
 14 40  1  0  0  0  0
 15 16  1  0  0  0  0
 16 17  1  0  0  0  0
 16 41  1  0  0  0  0
 17 18  1  0  0  0  0
 17 42  1  0  0  0  0
 17 43  1  0  0  0  0
 18 19  1  0  0  0  0
 18 27  2  0  0  0  0
 19 20  2  0  0  0  0
 19 44  1  0  0  0  0
 20 21  1  0  0  0  0
 20 45  1  0  0  0  0
 21 22  1  0  0  0  0
 21 26  2  0  0  0  0
 22 23  2  0  0  0  0
 23 24  1  0  0  0  0
 23 46  1  0  0  0  0
 24 25  2  0  0  0  0
 24 47  1  0  0  0  0
 25 26  1  0  0  0  0
 25 48  1  0  0  0  0
 26 27  1  0  0  0  0
 27 49  1  0  0  0  0
 28 29  1  0  0  0  0
 28 50  1  0  0  0  0
 29 30  1  0  0  0  0
 29 51  1  0  0  0  0
 30 31  1  0  0  0  0
 31 52  1  0  0  0  0
M  END
$$$$
