CHEMBL3959341
 OpenBabel04072215373D

 53 56  0  0  0  0  0  0  0  0999 V2000
    2.5207   -1.2787   -0.1744 O   0  0  0  0  0  0  0  0  0  0  0  0
    2.1552   -0.1191   -0.3547 C   0  0  0  0  0  0  0  0  0  0  0  0
    0.8309    0.2819   -0.3381 N   0  0  0  0  0  0  0  0  0  0  0  0
   -0.2750   -0.5802   -0.1243 C   0  0  0  0  0  0  0  0  0  0  0  0
   -0.1501   -1.8709    0.3971 C   0  0  0  0  0  0  0  0  0  0  0  0
   -1.2569   -2.7089    0.5107 C   0  0  0  0  0  0  0  0  0  0  0  0
   -2.5170   -2.2565    0.1343 C   0  0  0  0  0  0  0  0  0  0  0  0
   -2.6822   -0.9425   -0.2970 C   0  0  0  0  0  0  0  0  0  0  0  0
   -3.8687   -0.3702   -0.6412 O   0  0  0  0  0  0  0  0  0  0  0  0
   -5.0644   -0.8108   -0.0072 C   0  0  0  0  0  0  0  0  0  0  0  0
   -4.8765   -1.6577    1.0257 F   0  0  0  0  0  0  0  0  0  0  0  0
   -5.7166    0.2740    0.4716 F   0  0  0  0  0  0  0  0  0  0  0  0
   -5.8598   -1.4091   -0.9205 F   0  0  0  0  0  0  0  0  0  0  0  0
   -1.5541   -0.1192   -0.4552 C   0  0  0  0  0  0  0  0  0  0  0  0
    3.0239    0.9264   -0.6227 N   0  0  0  0  0  0  0  0  0  0  0  0
    4.4258    0.8140   -0.7955 C   0  0  0  0  0  0  0  0  0  0  0  0
    5.1106   -0.4063   -0.7633 C   0  0  0  0  0  0  0  0  0  0  0  0
    6.4915   -0.4717   -0.9576 C   0  0  0  0  0  0  0  0  0  0  0  0
    7.2314    0.6950   -1.1328 C   0  0  0  0  0  0  0  0  0  0  0  0
    8.6012    0.7032   -1.2930 O   0  0  0  0  0  0  0  0  0  0  0  0
    9.3645   -0.2009   -0.5784 C   0  0  0  0  0  0  0  0  0  0  0  0
    9.0224   -0.6563    0.6929 C   0  0  0  0  0  0  0  0  0  0  0  0
    9.8409   -1.5877    1.2847 C   0  0  0  0  0  0  0  0  0  0  0  0
   10.9760   -2.0349    0.7195 N   0  0  0  0  0  0  0  0  0  0  0  0
   11.3432   -1.5554   -0.4794 C   0  0  0  0  0  0  0  0  0  0  0  0
   12.5446   -1.9957   -1.0543 N   0  0  0  0  0  0  0  0  0  0  0  0
   13.4014   -2.8961   -0.4470 C   0  0  0  0  0  0  0  0  0  0  0  0
   13.2613   -3.4403    0.6405 O   0  0  0  0  0  0  0  0  0  0  0  0
   14.6505   -3.2344   -1.1914 C   0  0  0  0  0  0  0  0  0  0  0  0
   15.6734   -2.1506   -1.4453 C   0  0  0  0  0  0  0  0  0  0  0  0
   15.0065   -2.8418   -2.6011 C   0  0  0  0  0  0  0  0  0  0  0  0
   10.5597   -0.6295   -1.1665 C   0  0  0  0  0  0  0  0  0  0  0  0
    6.5494    1.9104   -1.1993 C   0  0  0  0  0  0  0  0  0  0  0  0
    7.2241    3.0484   -1.4225 F   0  0  0  0  0  0  0  0  0  0  0  0
    5.1622    1.9789   -1.0313 C   0  0  0  0  0  0  0  0  0  0  0  0
    0.6224    1.2092   -0.6738 H   0  0  0  0  0  0  0  0  0  0  0  0
    0.8036   -2.2701    0.7269 H   0  0  0  0  0  0  0  0  0  0  0  0
   -1.1278   -3.7190    0.8917 H   0  0  0  0  0  0  0  0  0  0  0  0
   -3.3429   -2.9580    0.1973 H   0  0  0  0  0  0  0  0  0  0  0  0
   -1.6925    0.8819   -0.8564 H   0  0  0  0  0  0  0  0  0  0  0  0
    2.6315    1.8544   -0.6579 H   0  0  0  0  0  0  0  0  0  0  0  0
    4.6084   -1.3525   -0.5911 H   0  0  0  0  0  0  0  0  0  0  0  0
    6.9658   -1.4495   -0.9422 H   0  0  0  0  0  0  0  0  0  0  0  0
    8.1304   -0.3296    1.2123 H   0  0  0  0  0  0  0  0  0  0  0  0
    9.6093   -2.0204    2.2522 H   0  0  0  0  0  0  0  0  0  0  0  0
   12.8030   -1.6082   -1.9443 H   0  0  0  0  0  0  0  0  0  0  0  0
   15.0498   -4.1963   -0.8701 H   0  0  0  0  0  0  0  0  0  0  0  0
   16.7072   -2.3877   -1.2207 H   0  0  0  0  0  0  0  0  0  0  0  0
   15.4017   -1.1241   -1.2297 H   0  0  0  0  0  0  0  0  0  0  0  0
   15.6026   -3.5478   -3.1720 H   0  0  0  0  0  0  0  0  0  0  0  0
   14.3134   -2.2818   -3.2110 H   0  0  0  0  0  0  0  0  0  0  0  0
   10.8496   -0.2487   -2.1365 H   0  0  0  0  0  0  0  0  0  0  0  0
    4.6834    2.9506   -1.0886 H   0  0  0  0  0  0  0  0  0  0  0  0
  1  2  2  0  0  0  0
  2  3  1  0  0  0  0
  2 15  1  0  0  0  0
  3  4  1  0  0  0  0
  3 36  1  0  0  0  0
  4  5  1  0  0  0  0
  4 14  2  0  0  0  0
  5  6  2  0  0  0  0
  5 37  1  0  0  0  0
  6  7  1  0  0  0  0
  6 38  1  0  0  0  0
  7  8  2  0  0  0  0
  7 39  1  0  0  0  0
  8  9  1  0  0  0  0
  8 14  1  0  0  0  0
  9 10  1  0  0  0  0
 10 11  1  0  0  0  0
 10 12  1  0  0  0  0
 10 13  1  0  0  0  0
 14 40  1  0  0  0  0
 15 16  1  0  0  0  0
 15 41  1  0  0  0  0
 16 17  1  0  0  0  0
 16 35  2  0  0  0  0
 17 18  2  0  0  0  0
 17 42  1  0  0  0  0
 18 19  1  0  0  0  0
 18 43  1  0  0  0  0
 19 20  1  0  0  0  0
 19 33  2  0  0  0  0
 20 21  1  0  0  0  0
 21 22  1  0  0  0  0
 21 32  2  0  0  0  0
 22 23  2  0  0  0  0
 22 44  1  0  0  0  0
 23 24  1  0  0  0  0
 23 45  1  0  0  0  0
 24 25  2  0  0  0  0
 25 26  1  0  0  0  0
 25 32  1  0  0  0  0
 26 27  1  0  0  0  0
 26 46  1  0  0  0  0
 27 28  2  0  0  0  0
 27 29  1  0  0  0  0
 29 30  1  0  0  0  0
 29 31  1  0  0  0  0
 29 47  1  0  0  0  0
 30 31  1  0  0  0  0
 30 48  1  0  0  0  0
 30 49  1  0  0  0  0
 31 50  1  0  0  0  0
 31 51  1  0  0  0  0
 32 52  1  0  0  0  0
 33 34  1  0  0  0  0
 33 35  1  0  0  0  0
 35 53  1  0  0  0  0
M  END
$$$$
