CHEMBL2325100
 OpenBabel04072215363D

 50 54  0  0  1  0  0  0  0  0999 V2000
    2.0570   -0.8709   -0.4340 C   0  0  0  0  0  0  0  0  0  0  0  0
    0.5783   -0.6172   -0.4546 C   0  0  0  0  0  0  0  0  0  0  0  0
   -0.3014   -1.4131   -1.2021 C   0  0  0  0  0  0  0  0  0  0  0  0
   -1.6730   -1.1151   -1.2630 C   0  0  0  0  0  0  0  0  0  0  0  0
   -2.1889   -0.0254   -0.5661 C   0  0  0  0  0  0  0  0  0  0  0  0
   -3.6339    0.3471   -0.6551 C   0  0  0  0  0  0  0  0  0  0  0  0
   -4.5502   -0.2050   -1.3965 N   0  0  0  0  0  0  0  0  0  0  0  0
   -5.7414    0.5021   -1.1617 N   0  0  0  0  0  0  0  0  0  0  0  0
   -6.9910   -0.0633   -1.5103 C   0  0  0  0  0  0  0  0  0  0  0  0
   -8.1973    0.2910   -0.8744 C   0  0  0  0  0  0  0  0  0  0  0  0
   -9.4459   -0.1993   -1.2952 C   0  0  0  0  0  0  0  0  0  0  0  0
   -9.5160   -1.0820   -2.3721 C   0  0  0  0  0  0  0  0  0  0  0  0
   -8.3434   -1.4679   -3.0057 C   0  0  0  0  0  0  0  0  0  0  0  0
   -7.0978   -0.9684   -2.5788 C   0  0  0  0  0  0  0  0  0  0  0  0
   -5.6103    1.3095    0.0450 C   0  0  3  0  0  0  0  0  0  0  0  0
   -6.2610    2.6768    0.0962 C   0  0  0  0  0  0  0  0  0  0  0  0
   -6.5168    3.2017    1.3728 C   0  0  0  0  0  0  0  0  0  0  0  0
   -6.8883    4.5294    1.5301 C   0  0  0  0  0  0  0  0  0  0  0  0
   -7.1363    5.3226    0.4098 C   0  0  0  0  0  0  0  0  0  0  0  0
   -7.5206    6.6529    0.5685 C   0  0  0  0  0  0  0  0  0  0  0  0
   -8.2449    7.2788   -0.4333 C   0  0  0  0  0  0  0  0  0  0  0  0
   -8.2551    6.7231   -1.7066 C   0  0  0  0  0  0  0  0  0  0  0  0
   -7.5638    5.5308   -1.9538 C   0  0  0  0  0  0  0  0  0  0  0  0
   -7.0678    4.7658   -0.8830 C   0  0  0  0  0  0  0  0  0  0  0  0
   -6.5329    3.4682   -1.0321 C   0  0  0  0  0  0  0  0  0  0  0  0
   -4.1128    1.5290    0.1336 C   0  0  0  0  0  0  0  0  0  0  0  0
   -1.3089    0.7450    0.2130 C   0  0  0  0  0  0  0  0  0  0  0  0
    0.0558    0.4546    0.2683 C   0  0  0  0  0  0  0  0  0  0  0  0
    2.3254   -1.7376   -1.0452 H   0  0  0  0  0  0  0  0  0  0  0  0
    2.4016   -1.0558    0.5891 H   0  0  0  0  0  0  0  0  0  0  0  0
    2.5940   -0.0032   -0.8339 H   0  0  0  0  0  0  0  0  0  0  0  0
    0.0766   -2.2589   -1.7727 H   0  0  0  0  0  0  0  0  0  0  0  0
   -2.3321   -1.7454   -1.8547 H   0  0  0  0  0  0  0  0  0  0  0  0
   -8.2452    0.9945   -0.0421 H   0  0  0  0  0  0  0  0  0  0  0  0
  -10.3503    0.1334   -0.7996 H   0  0  0  0  0  0  0  0  0  0  0  0
  -10.4813   -1.4528   -2.7069 H   0  0  0  0  0  0  0  0  0  0  0  0
   -8.3927   -2.1547   -3.8471 H   0  0  0  0  0  0  0  0  0  0  0  0
   -6.2021   -1.2771   -3.1125 H   0  0  0  0  0  0  0  0  0  0  0  0
   -5.9402    0.7048    0.9035 H   0  0  0  0  0  0  0  0  0  0  0  0
   -6.4077    2.5792    2.2596 H   0  0  0  0  0  0  0  0  0  0  0  0
   -7.0670    4.9173    2.5307 H   0  0  0  0  0  0  0  0  0  0  0  0
   -7.2575    7.1996    1.4694 H   0  0  0  0  0  0  0  0  0  0  0  0
   -8.7800    8.1991   -0.2170 H   0  0  0  0  0  0  0  0  0  0  0  0
   -8.7691    7.2396   -2.5117 H   0  0  0  0  0  0  0  0  0  0  0  0
   -7.4839    5.1693   -2.9754 H   0  0  0  0  0  0  0  0  0  0  0  0
   -6.3574    3.0649   -2.0291 H   0  0  0  0  0  0  0  0  0  0  0  0
   -3.7791    1.5401    1.1733 H   0  0  0  0  0  0  0  0  0  0  0  0
   -3.7740    2.4399   -0.3788 H   0  0  0  0  0  0  0  0  0  0  0  0
   -1.6470    1.6094    0.7747 H   0  0  0  0  0  0  0  0  0  0  0  0
    0.7122    1.0899    0.8592 H   0  0  0  0  0  0  0  0  0  0  0  0
  1  2  1  0  0  0  0
  1 29  1  0  0  0  0
  1 30  1  0  0  0  0
  1 31  1  0  0  0  0
  2  3  1  0  0  0  0
  2 28  2  0  0  0  0
  3  4  2  0  0  0  0
  3 32  1  0  0  0  0
  4  5  1  0  0  0  0
  4 33  1  0  0  0  0
  5  6  1  0  0  0  0
  5 27  2  0  0  0  0
  6  7  2  0  0  0  0
  6 26  1  0  0  0  0
  7  8  1  0  0  0  0
  8  9  1  0  0  0  0
  8 15  1  0  0  0  0
  9 10  1  0  0  0  0
  9 14  2  0  0  0  0
 10 11  2  0  0  0  0
 10 34  1  0  0  0  0
 11 12  1  0  0  0  0
 11 35  1  0  0  0  0
 12 13  2  0  0  0  0
 12 36  1  0  0  0  0
 13 14  1  0  0  0  0
 13 37  1  0  0  0  0
 14 38  1  0  0  0  0
 15 16  1  0  0  0  0
 15 26  1  0  0  0  0
 15 39  1  0  0  0  0
 16 17  1  0  0  0  0
 16 25  2  0  0  0  0
 17 18  2  0  0  0  0
 17 40  1  0  0  0  0
 18 19  1  0  0  0  0
 18 41  1  0  0  0  0
 19 20  1  0  0  0  0
 19 24  2  0  0  0  0
 20 21  2  0  0  0  0
 20 42  1  0  0  0  0
 21 22  1  0  0  0  0
 21 43  1  0  0  0  0
 22 23  2  0  0  0  0
 22 44  1  0  0  0  0
 23 24  1  0  0  0  0
 23 45  1  0  0  0  0
 24 25  1  0  0  0  0
 25 46  1  0  0  0  0
 26 47  1  0  0  0  0
 26 48  1  0  0  0  0
 27 28  1  0  0  0  0
 27 49  1  0  0  0  0
 28 50  1  0  0  0  0
M  END
$$$$
