CHEMBL391104
 OpenBabel04072215373D

 42 44  0  0  0  0  0  0  0  0999 V2000
    2.3985    0.9935   -0.3629 O   0  0  0  0  0  0  0  0  0  0  0  0
    2.1948   -0.1872   -0.1079 C   0  0  0  0  0  0  0  0  0  0  0  0
    1.1346   -0.9396   -0.6022 N   0  0  0  0  0  0  0  0  0  0  0  0
    0.0803   -0.5088   -1.4314 C   0  0  0  0  0  0  0  0  0  0  0  0
   -0.0359    0.7926   -1.9211 C   0  0  0  0  0  0  0  0  0  0  0  0
   -1.1316    1.1825   -2.7063 C   0  0  0  0  0  0  0  0  0  0  0  0
   -2.1118    0.2603   -3.0529 C   0  0  0  0  0  0  0  0  0  0  0  0
   -3.2064    0.4870   -3.8281 O   0  0  0  0  0  0  0  0  0  0  0  0
   -3.2432    1.6031   -4.7057 C   0  0  0  0  0  0  0  0  0  0  0  0
   -2.0253    2.0765   -5.0417 F   0  0  0  0  0  0  0  0  0  0  0  0
   -3.8576    1.2195   -5.8487 F   0  0  0  0  0  0  0  0  0  0  0  0
   -3.9692    2.5990   -4.1542 F   0  0  0  0  0  0  0  0  0  0  0  0
   -2.0083   -1.0423   -2.5567 C   0  0  0  0  0  0  0  0  0  0  0  0
   -0.9220   -1.4280   -1.7589 C   0  0  0  0  0  0  0  0  0  0  0  0
    3.0571   -0.9596    0.7827 C   0  0  0  0  0  0  0  0  0  0  0  0
    2.8161   -2.2295    1.0765 N   0  0  0  0  0  0  0  0  0  0  0  0
    3.7775   -2.5935    1.9752 C   0  0  0  0  0  0  0  0  0  0  0  0
    4.6224   -1.5453    2.2411 C   0  0  0  0  0  0  0  0  0  0  0  0
    4.1784   -0.5062    1.4630 N   0  0  0  0  0  0  0  0  0  0  0  0
    4.7577    0.8368    1.4022 C   0  0  0  0  0  0  0  0  0  0  0  0
    6.2510    0.8996    1.7629 C   0  0  0  0  0  0  0  0  0  0  0  0
    6.9391    2.2448    1.6964 C   0  0  0  0  0  0  0  0  0  0  0  0
    8.0219    2.4867    2.5546 C   0  0  0  0  0  0  0  0  0  0  0  0
    8.7201    3.6804    2.4494 C   0  0  0  0  0  0  0  0  0  0  0  0
    8.4226    4.6416    1.5541 N   0  0  0  0  0  0  0  0  0  0  0  0
    7.3849    4.3922    0.7273 C   0  0  0  0  0  0  0  0  0  0  0  0
    6.6262    3.2281    0.7556 C   0  0  0  0  0  0  0  0  0  0  0  0
    1.1290   -1.9034   -0.2759 H   0  0  0  0  0  0  0  0  0  0  0  0
    0.7110    1.5492   -1.7075 H   0  0  0  0  0  0  0  0  0  0  0  0
   -1.1731    2.2215   -3.0184 H   0  0  0  0  0  0  0  0  0  0  0  0
   -2.7812   -1.7710   -2.7951 H   0  0  0  0  0  0  0  0  0  0  0  0
   -0.8808   -2.4538   -1.3981 H   0  0  0  0  0  0  0  0  0  0  0  0
    3.8139   -3.5911    2.3979 H   0  0  0  0  0  0  0  0  0  0  0  0
    5.4760   -1.4751    2.9010 H   0  0  0  0  0  0  0  0  0  0  0  0
    4.1636    1.4631    2.0785 H   0  0  0  0  0  0  0  0  0  0  0  0
    4.6258    1.1961    0.3790 H   0  0  0  0  0  0  0  0  0  0  0  0
    6.8077    0.2158    1.1091 H   0  0  0  0  0  0  0  0  0  0  0  0
    6.3701    0.5273    2.7878 H   0  0  0  0  0  0  0  0  0  0  0  0
    8.3333    1.7535    3.2923 H   0  0  0  0  0  0  0  0  0  0  0  0
    9.5672    3.8932    3.0957 H   0  0  0  0  0  0  0  0  0  0  0  0
    7.1768    5.1768    0.0047 H   0  0  0  0  0  0  0  0  0  0  0  0
    5.8244    3.1089    0.0353 H   0  0  0  0  0  0  0  0  0  0  0  0
  1  2  2  0  0  0  0
  2  3  1  0  0  0  0
  2 15  1  0  0  0  0
  3  4  1  0  0  0  0
  3 28  1  0  0  0  0
  4  5  1  0  0  0  0
  4 14  2  0  0  0  0
  5  6  2  0  0  0  0
  5 29  1  0  0  0  0
  6  7  1  0  0  0  0
  6 30  1  0  0  0  0
  7  8  1  0  0  0  0
  7 13  2  0  0  0  0
  8  9  1  0  0  0  0
  9 10  1  0  0  0  0
  9 11  1  0  0  0  0
  9 12  1  0  0  0  0
 13 14  1  0  0  0  0
 13 31  1  0  0  0  0
 14 32  1  0  0  0  0
 15 16  2  0  0  0  0
 15 19  1  0  0  0  0
 16 17  1  0  0  0  0
 17 18  2  0  0  0  0
 17 33  1  0  0  0  0
 18 19  1  0  0  0  0
 18 34  1  0  0  0  0
 19 20  1  0  0  0  0
 20 21  1  0  0  0  0
 20 35  1  0  0  0  0
 20 36  1  0  0  0  0
 21 22  1  0  0  0  0
 21 37  1  0  0  0  0
 21 38  1  0  0  0  0
 22 23  1  0  0  0  0
 22 27  2  0  0  0  0
 23 24  2  0  0  0  0
 23 39  1  0  0  0  0
 24 25  1  0  0  0  0
 24 40  1  0  0  0  0
 25 26  2  0  0  0  0
 26 27  1  0  0  0  0
 26 41  1  0  0  0  0
 27 42  1  0  0  0  0
M  END
$$$$
