CHEMBL3944320
 OpenBabel04072215373D

 71 73  0  0  0  0  0  0  0  0999 V2000
   -0.7593    0.6263   -1.6091 C   0  0  0  0  0  0  0  0  0  0  0  0
    0.7596    0.7524   -1.4909 C   0  0  0  0  0  0  0  0  0  0  0  0
    1.2653    2.1544   -1.3685 N   0  0  0  0  0  0  0  0  0  0  0  0
    0.5858    2.9354   -0.2639 C   0  0  0  0  0  0  0  0  0  0  0  0
    1.0941    2.4992    1.1386 C   0  0  0  0  0  0  0  0  0  0  0  0
    0.4212    3.0892    2.3757 N   0  0  0  0  0  0  0  0  0  0  0  0
    1.4223    3.6486    3.2961 C   0  0  0  0  0  0  0  0  0  0  0  0
    2.8267    3.3069    3.1804 C   0  0  0  0  0  0  0  0  0  0  0  0
    3.8298    3.8812    3.9373 C   0  0  0  0  0  0  0  0  0  0  0  0
    5.1184    3.5379    3.6444 O   0  0  0  0  0  0  0  0  0  0  0  0
    6.2717    4.0630    4.1867 C   0  0  0  0  0  0  0  0  0  0  0  0
    3.4730    4.7958    4.9132 C   0  0  0  0  0  0  0  0  0  0  0  0
    2.1227    5.1156    5.1194 C   0  0  0  0  0  0  0  0  0  0  0  0
    1.8187    6.0264    6.0789 O   0  0  0  0  0  0  0  0  0  0  0  0
    0.5686    6.4869    6.3060 C   0  0  0  0  0  0  0  0  0  0  0  0
    1.1018    4.5344    4.3141 C   0  0  0  0  0  0  0  0  0  0  0  0
   -1.0755    2.8447    2.5849 C   0  0  0  0  0  0  0  0  0  0  0  0
   -1.3968    1.6758    1.9241 C   0  0  0  0  0  0  0  0  0  0  0  0
   -2.5975    1.2288    1.6851 C   0  0  0  0  0  0  0  0  0  0  0  0
   -3.6791    1.8254    2.1490 C   0  0  0  0  0  0  0  0  0  0  0  0
   -4.7562    1.3287    1.5971 N   0  0  0  0  0  0  0  0  0  0  0  0
   -5.9512    1.6358    1.9633 C   0  0  0  0  0  0  0  0  0  0  0  0
   -6.1868    2.3479    3.1253 C   0  0  0  0  0  0  0  0  0  0  0  0
   -7.7038    1.9390    3.5281 C   0  0  0  0  0  0  0  0  0  0  0  0
   -8.0776    0.6082    3.1648 C   0  0  0  0  0  0  0  0  0  0  0  0
   -9.3383    0.3333    3.4154 N   0  0  0  0  0  0  0  0  0  0  0  0
   -9.8829    1.3734    3.9822 N   0  0  0  0  0  0  0  0  0  0  0  0
  -11.3128    1.2595    4.3152 C   0  0  0  0  0  0  0  0  0  0  0  0
   -8.9311    2.3775    4.1409 C   0  0  0  0  0  0  0  0  0  0  0  0
   -5.0400    3.1019    3.6244 N   0  0  0  0  0  0  0  0  0  0  0  0
   -3.7030    2.8646    3.0726 C   0  0  0  0  0  0  0  0  0  0  0  0
   -2.2999    3.4692    3.2876 C   0  0  0  0  0  0  0  0  0  0  0  0
    2.7819    2.1608   -1.3280 C   0  0  0  0  0  0  0  0  0  0  0  0
    3.4366    1.4698   -2.5518 C   0  0  0  0  0  0  0  0  0  0  0  0
    3.3558    3.5907   -1.2700 C   0  0  0  0  0  0  0  0  0  0  0  0
    1.0962   -1.3888    2.1119 Cl  0  0  0  0  0  0  0  0  0  0  0  0
   -1.0290   -0.4344   -1.7968 H   0  0  0  0  0  0  0  0  0  0  0  0
   -1.1322    1.2540   -2.4420 H   0  0  0  0  0  0  0  0  0  0  0  0
   -1.2694    0.9082   -0.6801 H   0  0  0  0  0  0  0  0  0  0  0  0
    1.1234    0.3104   -2.4387 H   0  0  0  0  0  0  0  0  0  0  0  0
    1.1215    0.1141   -0.6575 H   0  0  0  0  0  0  0  0  0  0  0  0
   -0.5111    2.8682   -0.3546 H   0  0  0  0  0  0  0  0  0  0  0  0
    0.7903    4.0150   -0.3864 H   0  0  0  0  0  0  0  0  0  0  0  0
    2.0780    2.7941    1.0101 H   0  0  0  0  0  0  0  0  0  0  0  0
    1.1616    1.4072    1.2337 H   0  0  0  0  0  0  0  0  0  0  0  0
    3.2509    2.5910    2.4982 H   0  0  0  0  0  0  0  0  0  0  0  0
    7.1484    3.6079    3.6727 H   0  0  0  0  0  0  0  0  0  0  0  0
    6.3235    3.8217    5.2667 H   0  0  0  0  0  0  0  0  0  0  0  0
    6.3102    5.1601    4.0203 H   0  0  0  0  0  0  0  0  0  0  0  0
    4.2424    5.2628    5.5199 H   0  0  0  0  0  0  0  0  0  0  0  0
    0.5998    7.2866    7.0770 H   0  0  0  0  0  0  0  0  0  0  0  0
   -0.0910    5.6666    6.6478 H   0  0  0  0  0  0  0  0  0  0  0  0
    0.1610    6.9325    5.3669 H   0  0  0  0  0  0  0  0  0  0  0  0
    0.0662    4.7891    4.4495 H   0  0  0  0  0  0  0  0  0  0  0  0
   -0.7192    1.0101    1.4789 H   0  0  0  0  0  0  0  0  0  0  0  0
   -2.7114    0.3457    1.0764 H   0  0  0  0  0  0  0  0  0  0  0  0
   -6.6922    1.1557    1.3565 H   0  0  0  0  0  0  0  0  0  0  0  0
   -7.4786   -0.1601    2.6977 H   0  0  0  0  0  0  0  0  0  0  0  0
  -11.7083    0.2796    3.9403 H   0  0  0  0  0  0  0  0  0  0  0  0
  -11.9304    2.0282    3.8012 H   0  0  0  0  0  0  0  0  0  0  0  0
  -11.4849    1.2492    5.4094 H   0  0  0  0  0  0  0  0  0  0  0  0
   -9.1646    3.3355    4.5887 H   0  0  0  0  0  0  0  0  0  0  0  0
   -2.1857    4.3669    3.9097 H   0  0  0  0  0  0  0  0  0  0  0  0
    3.1508    1.5967   -0.4411 H   0  0  0  0  0  0  0  0  0  0  0  0
    3.1160    1.9503   -3.4994 H   0  0  0  0  0  0  0  0  0  0  0  0
    3.2317    0.3814   -2.5927 H   0  0  0  0  0  0  0  0  0  0  0  0
    4.5458    1.5397   -2.4813 H   0  0  0  0  0  0  0  0  0  0  0  0
    3.0314    4.1716   -2.1567 H   0  0  0  0  0  0  0  0  0  0  0  0
    4.4678    3.5538   -1.2512 H   0  0  0  0  0  0  0  0  0  0  0  0
    3.0598    4.1364   -0.3559 H   0  0  0  0  0  0  0  0  0  0  0  0
    2.0050   -0.6872    1.3561 H   0  0  0  0  0  0  0  0  0  0  0  0
  1  2  1  0  0  0  0
  1 37  1  0  0  0  0
  1 38  1  0  0  0  0
  1 39  1  0  0  0  0
  2  3  1  0  0  0  0
  2 40  1  0  0  0  0
  2 41  1  0  0  0  0
  3  4  1  0  0  0  0
  3 33  1  0  0  0  0
  4  5  1  0  0  0  0
  4 42  1  0  0  0  0
  4 43  1  0  0  0  0
  5  6  1  0  0  0  0
  5 44  1  0  0  0  0
  5 45  1  0  0  0  0
  6  7  1  0  0  0  0
  6 17  1  0  0  0  0
  7  8  1  0  0  0  0
  7 16  2  0  0  0  0
  8  9  2  0  0  0  0
  8 46  1  0  0  0  0
  9 10  1  0  0  0  0
  9 12  1  0  0  0  0
 10 11  1  0  0  0  0
 11 47  1  0  0  0  0
 11 48  1  0  0  0  0
 11 49  1  0  0  0  0
 12 13  2  0  0  0  0
 12 50  1  0  0  0  0
 13 14  1  0  0  0  0
 13 16  1  0  0  0  0
 14 15  1  0  0  0  0
 15 51  1  0  0  0  0
 15 52  1  0  0  0  0
 15 53  1  0  0  0  0
 16 54  1  0  0  0  0
 17 18  1  0  0  0  0
 17 32  2  0  0  0  0
 18 19  2  0  0  0  0
 18 55  1  0  0  0  0
 19 20  1  0  0  0  0
 19 56  1  0  0  0  0
 20 21  1  0  0  0  0
 20 31  2  0  0  0  0
 21 22  2  0  0  0  0
 22 23  1  0  0  0  0
 22 57  1  0  0  0  0
 23 24  1  0  0  0  0
 23 30  2  0  0  0  0
 24 25  1  0  0  0  0
 24 29  2  0  0  0  0
 25 26  2  0  0  0  0
 25 58  1  0  0  0  0
 26 27  1  0  0  0  0
 27 28  1  0  0  0  0
 27 29  1  0  0  0  0
 28 59  1  0  0  0  0
 28 60  1  0  0  0  0
 28 61  1  0  0  0  0
 29 62  1  0  0  0  0
 30 31  1  0  0  0  0
 31 32  1  0  0  0  0
 32 63  1  0  0  0  0
 33 34  1  0  0  0  0
 33 35  1  0  0  0  0
 33 64  1  0  0  0  0
 34 65  1  0  0  0  0
 34 66  1  0  0  0  0
 34 67  1  0  0  0  0
 35 68  1  0  0  0  0
 35 69  1  0  0  0  0
 35 70  1  0  0  0  0
 36 71  1  0  0  0  0
M  END
$$$$
