CHEMBL3288506
 OpenBabel04072215363D

 53 57  0  0  0  0  0  0  0  0999 V2000
    7.7570   -2.1750   -8.4283 C   0  0  0  0  0  0  0  0  0  0  0  0
    8.4415   -2.2354   -7.0697 C   0  0  0  0  0  0  0  0  0  0  0  0
    7.4477   -2.3134   -5.9394 C   0  0  0  0  0  0  0  0  0  0  0  0
    6.9946   -1.1324   -5.3270 C   0  0  0  0  0  0  0  0  0  0  0  0
    6.0660   -1.2139   -4.3092 C   0  0  0  0  0  0  0  0  0  0  0  0
    5.5773   -2.4415   -3.8753 C   0  0  0  0  0  0  0  0  0  0  0  0
    6.0159   -3.6289   -4.4627 C   0  0  0  0  0  0  0  0  0  0  0  0
    5.5505   -4.9152   -4.0946 N   0  0  0  0  0  0  0  0  0  0  0  0
    4.6546   -5.2040   -3.0763 C   0  0  0  0  0  0  0  0  0  0  0  0
    4.2283   -4.4029   -2.2525 O   0  0  0  0  0  0  0  0  0  0  0  0
    4.0573   -6.5731   -3.0687 C   0  0  0  0  0  0  0  0  0  0  0  0
    2.7399   -6.6506   -2.5547 C   0  0  0  0  0  0  0  0  0  0  0  0
    2.0327   -7.8530   -2.5622 C   0  0  0  0  0  0  0  0  0  0  0  0
    2.5125   -8.8733   -3.3448 C   0  0  0  0  0  0  0  0  0  0  0  0
    3.7034   -8.6646   -4.0295 C   0  0  0  0  0  0  0  0  0  0  0  0
    4.0684   -9.4629   -5.0739 C   0  0  0  0  0  0  0  0  0  0  0  0
    5.0205  -10.3562   -4.6975 C   0  0  0  0  0  0  0  0  0  0  0  0
    4.5649  -11.7650   -4.6648 C   0  0  0  0  0  0  0  0  0  0  0  0
    4.9789  -12.6322   -3.6266 C   0  0  0  0  0  0  0  0  0  0  0  0
    4.3604  -13.8626   -3.3930 C   0  0  0  0  0  0  0  0  0  0  0  0
    3.2711  -14.2770   -4.1521 C   0  0  0  0  0  0  0  0  0  0  0  0
    2.8283  -13.4202   -5.1593 C   0  0  0  0  0  0  0  0  0  0  0  0
    1.7373  -13.5348   -5.9735 N   0  0  0  0  0  0  0  0  0  0  0  0
    1.6046  -12.5502   -6.8569 N   0  0  0  0  0  0  0  0  0  0  0  0
    2.6444  -11.7602   -6.6127 C   0  0  0  0  0  0  0  0  0  0  0  0
    2.8113  -10.6986   -7.4170 N   0  0  0  0  0  0  0  0  0  0  0  0
    3.4448  -12.2097   -5.4870 C   0  0  0  0  0  0  0  0  0  0  0  0
    6.1261   -9.6984   -4.1241 C   0  0  0  0  0  0  0  0  0  0  0  0
    5.9826   -8.3072   -3.7410 C   0  0  0  0  0  0  0  0  0  0  0  0
    4.6494   -7.7476   -3.6267 C   0  0  0  0  0  0  0  0  0  0  0  0
    6.9495   -3.5429   -5.5106 C   0  0  0  0  0  0  0  0  0  0  0  0
    8.5037   -2.1223   -9.2268 H   0  0  0  0  0  0  0  0  0  0  0  0
    7.1091   -1.2956   -8.5106 H   0  0  0  0  0  0  0  0  0  0  0  0
    7.1409   -3.0637   -8.5971 H   0  0  0  0  0  0  0  0  0  0  0  0
    9.0813   -1.3470   -6.9450 H   0  0  0  0  0  0  0  0  0  0  0  0
    9.1134   -3.0967   -7.0267 H   0  0  0  0  0  0  0  0  0  0  0  0
    7.3619   -0.1594   -5.6546 H   0  0  0  0  0  0  0  0  0  0  0  0
    5.7066   -0.2945   -3.8260 H   0  0  0  0  0  0  0  0  0  0  0  0
    4.8495   -2.4322   -3.0727 H   0  0  0  0  0  0  0  0  0  0  0  0
    5.8409   -5.6774   -4.6867 H   0  0  0  0  0  0  0  0  0  0  0  0
    2.2549   -5.7743   -2.1330 H   0  0  0  0  0  0  0  0  0  0  0  0
    1.0813   -7.9603   -2.0545 H   0  0  0  0  0  0  0  0  0  0  0  0
    1.9744   -9.8115   -3.4574 H   0  0  0  0  0  0  0  0  0  0  0  0
    4.4827   -8.8384   -5.9034 H   0  0  0  0  0  0  0  0  0  0  0  0
    5.7434  -12.3083   -2.9231 H   0  0  0  0  0  0  0  0  0  0  0  0
    4.6933  -14.4871   -2.5676 H   0  0  0  0  0  0  0  0  0  0  0  0
    2.7672  -15.2175   -3.9465 H   0  0  0  0  0  0  0  0  0  0  0  0
    1.0301  -14.2593   -5.9668 H   0  0  0  0  0  0  0  0  0  0  0  0
    2.0119  -10.4822   -8.0022 H   0  0  0  0  0  0  0  0  0  0  0  0
    3.3036   -9.8729   -7.1302 H   0  0  0  0  0  0  0  0  0  0  0  0
    7.0368  -10.2377   -3.8645 H   0  0  0  0  0  0  0  0  0  0  0  0
    6.8352   -7.7779   -3.3123 H   0  0  0  0  0  0  0  0  0  0  0  0
    7.2929   -4.4494   -6.0014 H   0  0  0  0  0  0  0  0  0  0  0  0
  1  2  1  0  0  0  0
  1 32  1  0  0  0  0
  1 33  1  0  0  0  0
  1 34  1  0  0  0  0
  2  3  1  0  0  0  0
  2 35  1  0  0  0  0
  2 36  1  0  0  0  0
  3  4  1  0  0  0  0
  3 31  2  0  0  0  0
  4  5  2  0  0  0  0
  4 37  1  0  0  0  0
  5  6  1  0  0  0  0
  5 38  1  0  0  0  0
  6  7  2  0  0  0  0
  6 39  1  0  0  0  0
  7  8  1  0  0  0  0
  7 31  1  0  0  0  0
  8  9  1  0  0  0  0
  8 40  1  0  0  0  0
  9 10  2  0  0  0  0
  9 11  1  0  0  0  0
 11 12  1  0  0  0  0
 11 30  2  0  0  0  0
 12 13  2  0  0  0  0
 12 41  1  0  0  0  0
 13 14  1  0  0  0  0
 13 42  1  0  0  0  0
 14 15  2  0  0  0  0
 14 43  1  0  0  0  0
 15 16  1  0  0  0  0
 15 30  1  0  0  0  0
 16 17  2  0  0  0  0
 16 44  1  0  0  0  0
 17 18  1  0  0  0  0
 17 28  1  0  0  0  0
 18 19  1  0  0  0  0
 18 27  2  0  0  0  0
 19 20  2  0  0  0  0
 19 45  1  0  0  0  0
 20 21  1  0  0  0  0
 20 46  1  0  0  0  0
 21 22  2  0  0  0  0
 21 47  1  0  0  0  0
 22 23  1  0  0  0  0
 22 27  1  0  0  0  0
 23 24  1  0  0  0  0
 23 48  1  0  0  0  0
 24 25  2  0  0  0  0
 25 26  1  0  0  0  0
 25 27  1  0  0  0  0
 26 49  1  0  0  0  0
 26 50  1  0  0  0  0
 28 29  2  0  0  0  0
 28 51  1  0  0  0  0
 29 30  1  0  0  0  0
 29 52  1  0  0  0  0
 31 53  1  0  0  0  0
M  END
$$$$
