CHEMBL3660289
 OpenBabel04072215373D

 67 71  0  0  0  0  0  0  0  0999 V2000
   -9.1255   16.3689    1.9474 C   0  0  0  0  0  0  0  0  0  0  0  0
   -8.7283   15.1003    1.2479 C   0  0  0  0  0  0  0  0  0  0  0  0
   -8.3579   15.1450   -0.0997 C   0  0  0  0  0  0  0  0  0  0  0  0
   -7.9630   13.9836   -0.7492 C   0  0  0  0  0  0  0  0  0  0  0  0
   -7.9459   12.7710   -0.0658 C   0  0  0  0  0  0  0  0  0  0  0  0
   -7.4192   11.7361   -0.7305 F   0  0  0  0  0  0  0  0  0  0  0  0
   -8.3642   12.6736    1.2710 C   0  0  0  0  0  0  0  0  0  0  0  0
   -8.4388   11.4569    2.0064 N   0  0  0  0  0  0  0  0  0  0  0  0
   -8.5014   10.1928    1.4433 C   0  0  0  0  0  0  0  0  0  0  0  0
   -8.5415    9.9513    0.2442 O   0  0  0  0  0  0  0  0  0  0  0  0
   -8.6076    9.1846    2.4004 N   0  0  0  0  0  0  0  0  0  0  0  0
   -8.6831    7.8447    1.9370 C   0  0  0  0  0  0  0  0  0  0  0  0
   -7.6840    7.3064    1.1145 C   0  0  0  0  0  0  0  0  0  0  0  0
   -7.8159    6.0148    0.5944 C   0  0  0  0  0  0  0  0  0  0  0  0
   -8.9555    5.2660    0.8829 C   0  0  0  0  0  0  0  0  0  0  0  0
   -9.0271    4.0058    0.3287 O   0  0  0  0  0  0  0  0  0  0  0  0
   -9.6989    3.0191    1.0168 C   0  0  0  0  0  0  0  0  0  0  0  0
   -9.6791    2.8947    2.4039 C   0  0  0  0  0  0  0  0  0  0  0  0
  -10.4385    1.8947    2.9795 C   0  0  0  0  0  0  0  0  0  0  0  0
  -11.1454    0.9898    2.2722 N   0  0  0  0  0  0  0  0  0  0  0  0
  -11.0933    1.0943    0.9204 C   0  0  0  0  0  0  0  0  0  0  0  0
  -11.8372    0.0623    0.2137 C   0  0  0  0  0  0  0  0  0  0  0  0
  -12.0194   -0.1864   -1.1353 C   0  0  0  0  0  0  0  0  0  0  0  0
  -12.8176   -1.3559   -1.2845 C   0  0  0  0  0  0  0  0  0  0  0  0
  -13.1844   -1.9761   -2.5604 C   0  0  0  0  0  0  0  0  0  0  0  0
  -13.4700   -1.2687   -3.5191 O   0  0  0  0  0  0  0  0  0  0  0  0
  -13.1388   -3.3722   -2.6498 N   0  0  0  0  0  0  0  0  0  0  0  0
  -13.4887   -4.0045   -3.9206 C   0  0  0  0  0  0  0  0  0  0  0  0
  -12.2785   -4.7049   -4.5400 C   0  0  0  0  0  0  0  0  0  0  0  0
  -11.5772   -5.6343   -3.5472 C   0  0  0  0  0  0  0  0  0  0  0  0
  -12.3568   -6.8058   -3.3109 O   0  0  0  0  0  0  0  0  0  0  0  0
  -11.2797   -4.9262   -2.2313 C   0  0  0  0  0  0  0  0  0  0  0  0
  -12.5271   -4.2635   -1.6640 C   0  0  0  0  0  0  0  0  0  0  0  0
  -13.1788   -1.7332   -0.0021 C   0  0  0  0  0  0  0  0  0  0  0  0
  -12.5223   -0.9234    0.8857 N   0  0  0  0  0  0  0  0  0  0  0  0
  -10.3935    2.0895    0.2549 C   0  0  0  0  0  0  0  0  0  0  0  0
   -9.9746    5.8275    1.6612 C   0  0  0  0  0  0  0  0  0  0  0  0
   -9.8140    7.0887    2.2378 C   0  0  0  0  0  0  0  0  0  0  0  0
   -8.7291   13.8635    1.9275 C   0  0  0  0  0  0  0  0  0  0  0  0
   -9.0460   17.2327    1.2766 H   0  0  0  0  0  0  0  0  0  0  0  0
   -8.4672   16.5549    2.8013 H   0  0  0  0  0  0  0  0  0  0  0  0
  -10.1633   16.3088    2.2879 H   0  0  0  0  0  0  0  0  0  0  0  0
   -8.3553   16.0836   -0.6489 H   0  0  0  0  0  0  0  0  0  0  0  0
   -7.6446   14.0048   -1.7867 H   0  0  0  0  0  0  0  0  0  0  0  0
   -8.5987   11.5250    2.9997 H   0  0  0  0  0  0  0  0  0  0  0  0
   -9.2471    9.4165    3.1456 H   0  0  0  0  0  0  0  0  0  0  0  0
   -6.8067    7.8960    0.8580 H   0  0  0  0  0  0  0  0  0  0  0  0
   -7.0394    5.6098   -0.0499 H   0  0  0  0  0  0  0  0  0  0  0  0
   -9.1140    3.5750    3.0297 H   0  0  0  0  0  0  0  0  0  0  0  0
  -10.5022    1.7985    4.0592 H   0  0  0  0  0  0  0  0  0  0  0  0
  -11.6019    0.3915   -1.9506 H   0  0  0  0  0  0  0  0  0  0  0  0
  -13.8926   -3.2774   -4.6329 H   0  0  0  0  0  0  0  0  0  0  0  0
  -14.2877   -4.7260   -3.7171 H   0  0  0  0  0  0  0  0  0  0  0  0
  -11.5628   -3.9440   -4.8759 H   0  0  0  0  0  0  0  0  0  0  0  0
  -12.6026   -5.2714   -5.4201 H   0  0  0  0  0  0  0  0  0  0  0  0
  -10.6334   -5.9795   -3.9823 H   0  0  0  0  0  0  0  0  0  0  0  0
  -13.2159   -6.5504   -2.9367 H   0  0  0  0  0  0  0  0  0  0  0  0
  -10.5142   -4.1575   -2.3984 H   0  0  0  0  0  0  0  0  0  0  0  0
  -10.8883   -5.6332   -1.4915 H   0  0  0  0  0  0  0  0  0  0  0  0
  -12.2163   -3.7541   -0.7566 H   0  0  0  0  0  0  0  0  0  0  0  0
  -13.2830   -5.0025   -1.3766 H   0  0  0  0  0  0  0  0  0  0  0  0
  -13.8056   -2.5382    0.3565 H   0  0  0  0  0  0  0  0  0  0  0  0
  -12.5313   -0.9999    1.8962 H   0  0  0  0  0  0  0  0  0  0  0  0
  -10.3891    2.1530   -0.8270 H   0  0  0  0  0  0  0  0  0  0  0  0
  -10.9073    5.2939    1.8212 H   0  0  0  0  0  0  0  0  0  0  0  0
  -10.6176    7.4943    2.8431 H   0  0  0  0  0  0  0  0  0  0  0  0
   -9.0408   13.8417    2.9694 H   0  0  0  0  0  0  0  0  0  0  0  0
  1  2  1  0  0  0  0
  1 40  1  0  0  0  0
  1 41  1  0  0  0  0
  1 42  1  0  0  0  0
  2  3  1  0  0  0  0
  2 39  2  0  0  0  0
  3  4  2  0  0  0  0
  3 43  1  0  0  0  0
  4  5  1  0  0  0  0
  4 44  1  0  0  0  0
  5  6  1  0  0  0  0
  5  7  2  0  0  0  0
  7  8  1  0  0  0  0
  7 39  1  0  0  0  0
  8  9  1  0  0  0  0
  8 45  1  0  0  0  0
  9 10  2  0  0  0  0
  9 11  1  0  0  0  0
 11 12  1  0  0  0  0
 11 46  1  0  0  0  0
 12 13  1  0  0  0  0
 12 38  2  0  0  0  0
 13 14  2  0  0  0  0
 13 47  1  0  0  0  0
 14 15  1  0  0  0  0
 14 48  1  0  0  0  0
 15 16  1  0  0  0  0
 15 37  2  0  0  0  0
 16 17  1  0  0  0  0
 17 18  1  0  0  0  0
 17 36  2  0  0  0  0
 18 19  2  0  0  0  0
 18 49  1  0  0  0  0
 19 20  1  0  0  0  0
 19 50  1  0  0  0  0
 20 21  2  0  0  0  0
 21 22  1  0  0  0  0
 21 36  1  0  0  0  0
 22 23  2  0  0  0  0
 22 35  1  0  0  0  0
 23 24  1  0  0  0  0
 23 51  1  0  0  0  0
 24 25  1  0  0  0  0
 24 34  2  0  0  0  0
 25 26  2  0  0  0  0
 25 27  1  0  0  0  0
 27 28  1  0  0  0  0
 27 33  1  0  0  0  0
 28 29  1  0  0  0  0
 28 52  1  0  0  0  0
 28 53  1  0  0  0  0
 29 30  1  0  0  0  0
 29 54  1  0  0  0  0
 29 55  1  0  0  0  0
 30 31  1  0  0  0  0
 30 32  1  0  0  0  0
 30 56  1  0  0  0  0
 31 57  1  0  0  0  0
 32 33  1  0  0  0  0
 32 58  1  0  0  0  0
 32 59  1  0  0  0  0
 33 60  1  0  0  0  0
 33 61  1  0  0  0  0
 34 35  1  0  0  0  0
 34 62  1  0  0  0  0
 35 63  1  0  0  0  0
 36 64  1  0  0  0  0
 37 38  1  0  0  0  0
 37 65  1  0  0  0  0
 38 66  1  0  0  0  0
 39 67  1  0  0  0  0
M  END
$$$$
