CHEMBL96150
 OpenBabel04072215383D

 33 36  0  0  0  0  0  0  0  0999 V2000
    0.5635   -1.8602    0.1343 F   0  0  0  0  0  0  0  0  0  0  0  0
   -0.2475   -0.7926    0.1266 C   0  0  0  0  0  0  0  0  0  0  0  0
   -0.6603   -0.2761   -1.0967 C   0  0  0  0  0  0  0  0  0  0  0  0
   -1.5014    0.8405   -1.1292 C   0  0  0  0  0  0  0  0  0  0  0  0
   -1.9308    1.4470    0.0625 C   0  0  0  0  0  0  0  0  0  0  0  0
   -2.7830    2.6267    0.0167 C   0  0  0  0  0  0  0  0  0  0  0  0
   -2.8559    3.6517   -0.9523 C   0  0  0  0  0  0  0  0  0  0  0  0
   -3.7635    4.5845   -0.6673 N   0  0  0  0  0  0  0  0  0  0  0  0
   -4.3053    4.1781    0.5054 N   0  0  0  0  0  0  0  0  0  0  0  0
   -5.3177    4.8035    1.2260 C   0  0  0  0  0  0  0  0  0  0  0  0
   -5.7583    4.2773    2.3800 C   0  0  0  0  0  0  0  0  0  0  0  0
   -6.8338    4.8746    3.1664 C   0  0  0  0  0  0  0  0  0  0  0  0
   -8.1593    4.4966    2.9479 C   0  0  0  0  0  0  0  0  0  0  0  0
   -9.1475    5.1034    3.7051 C   0  0  0  0  0  0  0  0  0  0  0  0
   -8.9010    6.0398    4.6449 N   0  0  0  0  0  0  0  0  0  0  0  0
   -7.6113    6.3880    4.8384 C   0  0  0  0  0  0  0  0  0  0  0  0
   -6.5527    5.8402    4.1333 C   0  0  0  0  0  0  0  0  0  0  0  0
   -5.0686    3.0180    2.7954 C   0  0  0  0  0  0  0  0  0  0  0  0
   -4.1257    2.4068    2.1436 N   0  0  0  0  0  0  0  0  0  0  0  0
   -3.7248    2.9873    0.9654 C   0  0  0  0  0  0  0  0  0  0  0  0
   -1.5038    0.9084    1.2867 C   0  0  0  0  0  0  0  0  0  0  0  0
   -0.6669   -0.2082    1.3175 C   0  0  0  0  0  0  0  0  0  0  0  0
   -0.1566   -0.8404    2.8354 Cl  0  0  0  0  0  0  0  0  0  0  0  0
   -0.3250   -0.7456   -2.0166 H   0  0  0  0  0  0  0  0  0  0  0  0
   -1.8216    1.2206   -2.0973 H   0  0  0  0  0  0  0  0  0  0  0  0
   -2.2729    3.7588   -1.8574 H   0  0  0  0  0  0  0  0  0  0  0  0
   -5.7099    5.7109    0.7861 H   0  0  0  0  0  0  0  0  0  0  0  0
   -8.4268    3.7519    2.2053 H   0  0  0  0  0  0  0  0  0  0  0  0
  -10.1949    4.8468    3.5710 H   0  0  0  0  0  0  0  0  0  0  0  0
   -7.4465    7.1459    5.5995 H   0  0  0  0  0  0  0  0  0  0  0  0
   -5.5384    6.1665    4.3378 H   0  0  0  0  0  0  0  0  0  0  0  0
   -5.4081    2.5857    3.7529 H   0  0  0  0  0  0  0  0  0  0  0  0
   -1.8130    1.3597    2.2257 H   0  0  0  0  0  0  0  0  0  0  0  0
  1  2  1  0  0  0  0
  2  3  1  0  0  0  0
  2 22  2  0  0  0  0
  3  4  2  0  0  0  0
  3 24  1  0  0  0  0
  4  5  1  0  0  0  0
  4 25  1  0  0  0  0
  5  6  1  0  0  0  0
  5 21  2  0  0  0  0
  6  7  1  0  0  0  0
  6 20  2  0  0  0  0
  7  8  2  0  0  0  0
  7 26  1  0  0  0  0
  8  9  1  0  0  0  0
  9 10  1  0  0  0  0
  9 20  1  0  0  0  0
 10 11  2  0  0  0  0
 10 27  1  0  0  0  0
 11 12  1  0  0  0  0
 11 18  1  0  0  0  0
 12 13  1  0  0  0  0
 12 17  2  0  0  0  0
 13 14  2  0  0  0  0
 13 28  1  0  0  0  0
 14 15  1  0  0  0  0
 14 29  1  0  0  0  0
 15 16  2  0  0  0  0
 16 17  1  0  0  0  0
 16 30  1  0  0  0  0
 17 31  1  0  0  0  0
 18 19  2  0  0  0  0
 18 32  1  0  0  0  0
 19 20  1  0  0  0  0
 21 22  1  0  0  0  0
 21 33  1  0  0  0  0
 22 23  1  0  0  0  0
M  END
$$$$
