CHEMBL3961868
 OpenBabel04072215373D

 53 56  0  0  0  0  0  0  0  0999 V2000
    8.2105    7.3378   -1.3780 N   0  0  0  0  0  0  0  0  0  0  0  0
    7.7361    6.3128   -1.1081 C   0  0  0  0  0  0  0  0  0  0  0  0
    7.2000    5.0189   -0.7880 C   0  0  0  0  0  0  0  0  0  0  0  0
    8.0902    3.9435   -0.7933 C   0  0  0  0  0  0  0  0  0  0  0  0
    7.6563    2.6475   -0.5160 C   0  0  0  0  0  0  0  0  0  0  0  0
    6.3190    2.3682   -0.2205 C   0  0  0  0  0  0  0  0  0  0  0  0
    5.8524    1.0500    0.0311 N   0  0  0  0  0  0  0  0  0  0  0  0
    6.6486   -0.0857    0.1238 C   0  0  0  0  0  0  0  0  0  0  0  0
    7.8784   -0.0846    0.0919 O   0  0  0  0  0  0  0  0  0  0  0  0
    5.9199   -1.2616    0.2214 N   0  0  0  0  0  0  0  0  0  0  0  0
    6.5950   -2.5157    0.3096 C   0  0  0  0  0  0  0  0  0  0  0  0
    7.6802   -2.7223    1.1679 C   0  0  0  0  0  0  0  0  0  0  0  0
    8.3527   -3.9553    1.1803 C   0  0  0  0  0  0  0  0  0  0  0  0
    7.9578   -4.9940    0.3299 C   0  0  0  0  0  0  0  0  0  0  0  0
    8.6656   -6.1770    0.4378 O   0  0  0  0  0  0  0  0  0  0  0  0
    8.9001   -6.9689   -0.6706 C   0  0  0  0  0  0  0  0  0  0  0  0
    8.9934   -6.4756   -1.9656 C   0  0  0  0  0  0  0  0  0  0  0  0
    9.2098   -7.3808   -2.9817 C   0  0  0  0  0  0  0  0  0  0  0  0
    9.3893   -8.6979   -2.7781 N   0  0  0  0  0  0  0  0  0  0  0  0
    9.3749   -9.1765   -1.5221 C   0  0  0  0  0  0  0  0  0  0  0  0
    9.6309  -10.5497   -1.3084 N   0  0  0  0  0  0  0  0  0  0  0  0
    9.8791  -11.4478   -2.3338 C   0  0  0  0  0  0  0  0  0  0  0  0
    9.8660  -11.2155   -3.5342 O   0  0  0  0  0  0  0  0  0  0  0  0
   10.1993  -12.8626   -1.9555 C   0  0  0  0  0  0  0  0  0  0  0  0
    9.5093  -13.6054   -0.8391 C   0  0  0  0  0  0  0  0  0  0  0  0
   10.9679  -13.2484   -0.7167 C   0  0  0  0  0  0  0  0  0  0  0  0
    9.1299   -8.3364   -0.4376 C   0  0  0  0  0  0  0  0  0  0  0  0
    6.8432   -4.8076   -0.4921 C   0  0  0  0  0  0  0  0  0  0  0  0
    6.1802   -3.5761   -0.4994 C   0  0  0  0  0  0  0  0  0  0  0  0
    5.1599   -3.3925   -1.3523 F   0  0  0  0  0  0  0  0  0  0  0  0
    5.4232    3.4491   -0.2038 C   0  0  0  0  0  0  0  0  0  0  0  0
    5.8491    4.7837   -0.4843 C   0  0  0  0  0  0  0  0  0  0  0  0
    4.8226    5.8949   -0.4445 C   0  0  0  0  0  0  0  0  0  0  0  0
    5.2990    7.1355   -0.7176 F   0  0  0  0  0  0  0  0  0  0  0  0
    3.8131    5.6850   -1.3332 F   0  0  0  0  0  0  0  0  0  0  0  0
    4.2279    5.9915    0.7764 F   0  0  0  0  0  0  0  0  0  0  0  0
    9.1473    4.0974   -1.0199 H   0  0  0  0  0  0  0  0  0  0  0  0
    8.4158    1.8739   -0.5522 H   0  0  0  0  0  0  0  0  0  0  0  0
    4.8682    0.9358    0.2656 H   0  0  0  0  0  0  0  0  0  0  0  0
    5.0654   -1.2782   -0.3232 H   0  0  0  0  0  0  0  0  0  0  0  0
    8.0182   -1.9296    1.8327 H   0  0  0  0  0  0  0  0  0  0  0  0
    9.1956   -4.0931    1.8550 H   0  0  0  0  0  0  0  0  0  0  0  0
    8.8981   -5.4238   -2.2033 H   0  0  0  0  0  0  0  0  0  0  0  0
    9.2518   -7.0697   -4.0201 H   0  0  0  0  0  0  0  0  0  0  0  0
    9.6479  -10.8819   -0.3593 H   0  0  0  0  0  0  0  0  0  0  0  0
   10.4202  -13.4594   -2.8381 H   0  0  0  0  0  0  0  0  0  0  0  0
    9.2561  -14.6473   -1.0315 H   0  0  0  0  0  0  0  0  0  0  0  0
    8.7950  -13.0945   -0.2150 H   0  0  0  0  0  0  0  0  0  0  0  0
   11.6988  -14.0484   -0.8303 H   0  0  0  0  0  0  0  0  0  0  0  0
   11.2590  -12.4968   -0.0037 H   0  0  0  0  0  0  0  0  0  0  0  0
    9.1191   -8.7166    0.5776 H   0  0  0  0  0  0  0  0  0  0  0  0
    6.4829   -5.5933   -1.1467 H   0  0  0  0  0  0  0  0  0  0  0  0
    4.3708    3.2792    0.0243 H   0  0  0  0  0  0  0  0  0  0  0  0
  1  2  3  0  0  0  0
  2  3  1  0  0  0  0
  3  4  1  0  0  0  0
  3 32  2  0  0  0  0
  4  5  2  0  0  0  0
  4 37  1  0  0  0  0
  5  6  1  0  0  0  0
  5 38  1  0  0  0  0
  6  7  1  0  0  0  0
  6 31  2  0  0  0  0
  7  8  1  0  0  0  0
  7 39  1  0  0  0  0
  8  9  2  0  0  0  0
  8 10  1  0  0  0  0
 10 11  1  0  0  0  0
 10 40  1  0  0  0  0
 11 12  1  0  0  0  0
 11 29  2  0  0  0  0
 12 13  2  0  0  0  0
 12 41  1  0  0  0  0
 13 14  1  0  0  0  0
 13 42  1  0  0  0  0
 14 15  1  0  0  0  0
 14 28  2  0  0  0  0
 15 16  1  0  0  0  0
 16 17  1  0  0  0  0
 16 27  2  0  0  0  0
 17 18  2  0  0  0  0
 17 43  1  0  0  0  0
 18 19  1  0  0  0  0
 18 44  1  0  0  0  0
 19 20  2  0  0  0  0
 20 21  1  0  0  0  0
 20 27  1  0  0  0  0
 21 22  1  0  0  0  0
 21 45  1  0  0  0  0
 22 23  2  0  0  0  0
 22 24  1  0  0  0  0
 24 25  1  0  0  0  0
 24 26  1  0  0  0  0
 24 46  1  0  0  0  0
 25 26  1  0  0  0  0
 25 47  1  0  0  0  0
 25 48  1  0  0  0  0
 26 49  1  0  0  0  0
 26 50  1  0  0  0  0
 27 51  1  0  0  0  0
 28 29  1  0  0  0  0
 28 52  1  0  0  0  0
 29 30  1  0  0  0  0
 31 32  1  0  0  0  0
 31 53  1  0  0  0  0
 32 33  1  0  0  0  0
 33 34  1  0  0  0  0
 33 35  1  0  0  0  0
 33 36  1  0  0  0  0
M  END
$$$$
