CHEMBL1721885
 OpenBabel04072215363D

 59 62  0  0  1  0  0  0  0  0999 V2000
    5.2192    8.9774   -2.7230 C   0  0  0  0  0  0  0  0  0  0  0  0
    5.2680    8.1085   -3.9264 C   0  0  0  0  0  0  0  0  0  0  0  0
    5.6108    8.7564   -5.0860 N   0  0  0  0  0  0  0  0  0  0  0  0
    6.1129    7.8920   -6.0088 C   0  0  0  0  0  0  0  0  0  0  0  0
    6.8539    8.3643   -7.1330 C   0  0  0  0  0  0  0  0  0  0  0  0
    7.1616    9.6270   -7.4621 C   0  0  0  0  0  0  0  0  0  0  0  0
    6.8139   10.9573   -6.8088 C   0  0  0  0  0  0  0  0  0  0  0  0
    6.1666   11.1648   -5.8026 O   0  0  0  0  0  0  0  0  0  0  0  0
    7.3974   11.9264   -7.5968 N   0  0  0  0  0  0  0  0  0  0  0  0
    8.0760   11.3809   -8.6727 C   0  0  0  0  0  0  0  0  0  0  0  0
    8.7533   12.0641   -9.6538 C   0  0  0  0  0  0  0  0  0  0  0  0
    9.3779   11.3086  -10.6467 C   0  0  0  0  0  0  0  0  0  0  0  0
    9.2966    9.9042  -10.6160 C   0  0  0  0  0  0  0  0  0  0  0  0
    9.9029    9.2009  -11.5835 F   0  0  0  0  0  0  0  0  0  0  0  0
    8.6049    9.2214   -9.6265 C   0  0  0  0  0  0  0  0  0  0  0  0
    7.9804    9.9760   -8.6407 C   0  0  0  0  0  0  0  0  0  0  0  0
    5.7368    6.6290   -5.5675 C   0  0  0  0  0  0  0  0  0  0  0  0
    5.9883    5.3304   -6.2681 C   0  0  0  0  0  0  0  0  0  0  0  0
    5.0823    6.7660   -4.2586 C   0  0  0  0  0  0  0  0  0  0  0  0
    4.4949    5.6200   -3.5263 C   0  0  0  0  0  0  0  0  0  0  0  0
    4.6418    4.4681   -3.9369 O   0  0  0  0  0  0  0  0  0  0  0  0
    3.6932    5.8399   -2.4190 N   0  0  0  0  0  0  0  0  0  0  0  0
    3.2288    4.7100   -1.5933 C   0  0  0  0  0  0  0  0  0  0  0  0
    1.8788    4.0436   -1.9612 C   0  0  2  0  0  0  0  0  0  0  0  0
    1.8560    3.5960   -3.3257 O   0  0  0  0  0  0  0  0  0  0  0  0
    0.5856    4.8517   -1.7239 C   0  0  0  0  0  0  0  0  0  0  0  0
    0.2881    5.4079   -0.3881 N   0  0  0  0  0  0  0  0  0  0  0  0
    0.2306    4.4167    0.7103 C   0  0  0  0  0  0  0  0  0  0  0  0
   -1.0245    3.5173    0.7544 C   0  0  0  0  0  0  0  0  0  0  0  0
   -2.2504    4.2474    0.6168 O   0  0  0  0  0  0  0  0  0  0  0  0
   -2.2215    5.1110   -0.5234 C   0  0  0  0  0  0  0  0  0  0  0  0
   -1.0369    6.0892   -0.4159 C   0  0  0  0  0  0  0  0  0  0  0  0
    6.0444    9.7076   -2.7866 H   0  0  0  0  0  0  0  0  0  0  0  0
    5.3654    8.4334   -1.7901 H   0  0  0  0  0  0  0  0  0  0  0  0
    4.2955    9.5611   -2.6923 H   0  0  0  0  0  0  0  0  0  0  0  0
    5.6685    9.7660   -5.1505 H   0  0  0  0  0  0  0  0  0  0  0  0
    7.2350    7.5737   -7.7759 H   0  0  0  0  0  0  0  0  0  0  0  0
    7.3142   12.9174   -7.3951 H   0  0  0  0  0  0  0  0  0  0  0  0
    8.8124   13.1512   -9.6635 H   0  0  0  0  0  0  0  0  0  0  0  0
    9.9290   11.7885  -11.4511 H   0  0  0  0  0  0  0  0  0  0  0  0
    8.5619    8.1407   -9.6346 H   0  0  0  0  0  0  0  0  0  0  0  0
    6.5400    5.4633   -7.2016 H   0  0  0  0  0  0  0  0  0  0  0  0
    5.0406    4.8384   -6.5104 H   0  0  0  0  0  0  0  0  0  0  0  0
    6.5834    4.6655   -5.6330 H   0  0  0  0  0  0  0  0  0  0  0  0
    3.6252    6.7774   -2.0491 H   0  0  0  0  0  0  0  0  0  0  0  0
    3.2228    5.0364   -0.5498 H   0  0  0  0  0  0  0  0  0  0  0  0
    3.9927    3.9248   -1.6752 H   0  0  0  0  0  0  0  0  0  0  0  0
    1.7983    3.1258   -1.3652 H   0  0  0  0  0  0  0  0  0  0  0  0
    2.4051    4.2119   -3.8465 H   0  0  0  0  0  0  0  0  0  0  0  0
   -0.2315    4.1957   -2.0493 H   0  0  0  0  0  0  0  0  0  0  0  0
    0.5837    5.6793   -2.4458 H   0  0  0  0  0  0  0  0  0  0  0  0
    0.2470    4.9943    1.6456 H   0  0  0  0  0  0  0  0  0  0  0  0
    1.1353    3.8011    0.7407 H   0  0  0  0  0  0  0  0  0  0  0  0
   -1.0707    3.0227    1.7317 H   0  0  0  0  0  0  0  0  0  0  0  0
   -0.9812    2.7347   -0.0097 H   0  0  0  0  0  0  0  0  0  0  0  0
   -3.1638    5.6674   -0.5448 H   0  0  0  0  0  0  0  0  0  0  0  0
   -2.1957    4.5078   -1.4380 H   0  0  0  0  0  0  0  0  0  0  0  0
   -1.1424    6.6497    0.5230 H   0  0  0  0  0  0  0  0  0  0  0  0
   -1.0714    6.8292   -1.2227 H   0  0  0  0  0  0  0  0  0  0  0  0
  1  2  1  0  0  0  0
  1 33  1  0  0  0  0
  1 34  1  0  0  0  0
  1 35  1  0  0  0  0
  2  3  1  0  0  0  0
  2 19  2  0  0  0  0
  3  4  1  0  0  0  0
  3 36  1  0  0  0  0
  4  5  1  0  0  0  0
  4 17  2  0  0  0  0
  5  6  2  0  0  0  0
  5 37  1  0  0  0  0
  6  7  1  0  0  0  0
  6 16  1  0  0  0  0
  7  8  2  0  0  0  0
  7  9  1  0  0  0  0
  9 10  1  0  0  0  0
  9 38  1  0  0  0  0
 10 11  1  0  0  0  0
 10 16  2  0  0  0  0
 11 12  2  0  0  0  0
 11 39  1  0  0  0  0
 12 13  1  0  0  0  0
 12 40  1  0  0  0  0
 13 14  1  0  0  0  0
 13 15  2  0  0  0  0
 15 16  1  0  0  0  0
 15 41  1  0  0  0  0
 17 18  1  0  0  0  0
 17 19  1  0  0  0  0
 18 42  1  0  0  0  0
 18 43  1  0  0  0  0
 18 44  1  0  0  0  0
 19 20  1  0  0  0  0
 20 21  2  0  0  0  0
 20 22  1  0  0  0  0
 22 23  1  0  0  0  0
 22 45  1  0  0  0  0
 23 46  1  0  0  0  0
 23 47  1  0  0  0  0
 24 26  1  0  0  0  0
 24 25  1  0  0  0  0
 24 23  1  0  0  0  0
 24 48  1  1  0  0  0
 25 49  1  0  0  0  0
 26 27  1  0  0  0  0
 26 50  1  0  0  0  0
 26 51  1  0  0  0  0
 27 28  1  0  0  0  0
 27 32  1  0  0  0  0
 28 29  1  0  0  0  0
 28 52  1  0  0  0  0
 28 53  1  0  0  0  0
 29 30  1  0  0  0  0
 29 54  1  0  0  0  0
 29 55  1  0  0  0  0
 30 31  1  0  0  0  0
 31 32  1  0  0  0  0
 31 56  1  0  0  0  0
 31 57  1  0  0  0  0
 32 58  1  0  0  0  0
 32 59  1  0  0  0  0
M  END
$$$$
