CHEMBL513169
 OpenBabel04072215383D

 49 53  0  0  0  0  0  0  0  0999 V2000
    0.7854    1.5457    3.8966 C   0  0  0  0  0  0  0  0  0  0  0  0
    0.6114    0.4661    2.8669 C   0  0  0  0  0  0  0  0  0  0  0  0
    1.7197   -0.2960    2.4521 C   0  0  0  0  0  0  0  0  0  0  0  0
    1.5987   -1.2912    1.4878 C   0  0  0  0  0  0  0  0  0  0  0  0
    0.3571   -1.5765    0.9139 C   0  0  0  0  0  0  0  0  0  0  0  0
   -0.7947   -0.8765    1.3391 C   0  0  0  0  0  0  0  0  0  0  0  0
   -2.2060   -0.9905    1.0569 C   0  0  0  0  0  0  0  0  0  0  0  0
   -2.9561   -1.9766    0.2537 C   0  0  0  0  0  0  0  0  0  0  0  0
   -3.9871   -1.6599   -0.3418 O   0  0  0  0  0  0  0  0  0  0  0  0
   -2.5159   -3.4156    0.2429 C   0  0  0  0  0  0  0  0  0  0  0  0
   -1.8183   -3.9097    1.3603 C   0  0  0  0  0  0  0  0  0  0  0  0
   -1.3464   -5.2159    1.4005 C   0  0  0  0  0  0  0  0  0  0  0  0
   -1.6237   -6.0692    0.3482 C   0  0  0  0  0  0  0  0  0  0  0  0
   -2.3776   -5.6176   -0.7299 C   0  0  0  0  0  0  0  0  0  0  0  0
   -2.8773   -4.3062   -0.8068 C   0  0  0  0  0  0  0  0  0  0  0  0
   -3.5574   -3.8676   -1.9729 N   0  0  0  0  0  0  0  0  0  0  0  0
   -4.4138   -4.8364   -2.6670 C   0  0  0  0  0  0  0  0  0  0  0  0
   -5.0416   -4.2139   -3.8966 C   0  0  0  0  0  0  0  0  0  0  0  0
   -6.4317   -4.2612   -4.0941 C   0  0  0  0  0  0  0  0  0  0  0  0
   -7.0170   -3.7880   -5.2788 C   0  0  0  0  0  0  0  0  0  0  0  0
   -6.1902   -3.2170   -6.2597 C   0  0  0  0  0  0  0  0  0  0  0  0
   -6.3554   -2.6695   -7.5520 C   0  0  0  0  0  0  0  0  0  0  0  0
   -5.2195   -2.1748   -8.0536 N   0  0  0  0  0  0  0  0  0  0  0  0
   -4.3226   -2.4165   -7.0800 N   0  0  0  0  0  0  0  0  0  0  0  0
   -4.8262   -3.1203   -6.0193 C   0  0  0  0  0  0  0  0  0  0  0  0
   -4.2128   -3.6457   -4.8803 C   0  0  0  0  0  0  0  0  0  0  0  0
   -2.8166    0.0434    1.7466 C   0  0  0  0  0  0  0  0  0  0  0  0
   -1.8682    0.7115    2.4791 N   0  0  0  0  0  0  0  0  0  0  0  0
   -0.6280    0.1430    2.2806 C   0  0  0  0  0  0  0  0  0  0  0  0
    1.8218    1.6157    4.2418 H   0  0  0  0  0  0  0  0  0  0  0  0
    0.1550    1.3396    4.7672 H   0  0  0  0  0  0  0  0  0  0  0  0
    0.5049    2.5147    3.4722 H   0  0  0  0  0  0  0  0  0  0  0  0
    2.7020   -0.1063    2.8837 H   0  0  0  0  0  0  0  0  0  0  0  0
    2.4749   -1.8586    1.1824 H   0  0  0  0  0  0  0  0  0  0  0  0
    0.2878   -2.3586    0.1624 H   0  0  0  0  0  0  0  0  0  0  0  0
   -1.6108   -3.2755    2.2169 H   0  0  0  0  0  0  0  0  0  0  0  0
   -0.7529   -5.5526    2.2486 H   0  0  0  0  0  0  0  0  0  0  0  0
   -1.2588   -7.0964    0.3621 H   0  0  0  0  0  0  0  0  0  0  0  0
   -2.5585   -6.3338   -1.5308 H   0  0  0  0  0  0  0  0  0  0  0  0
   -4.0667   -2.9933   -1.7811 H   0  0  0  0  0  0  0  0  0  0  0  0
   -5.1907   -5.2016   -1.9846 H   0  0  0  0  0  0  0  0  0  0  0  0
   -3.8438   -5.6978   -3.0231 H   0  0  0  0  0  0  0  0  0  0  0  0
   -7.0795   -4.6797   -3.3259 H   0  0  0  0  0  0  0  0  0  0  0  0
   -8.0922   -3.8483   -5.4240 H   0  0  0  0  0  0  0  0  0  0  0  0
   -7.2581   -2.6083   -8.1452 H   0  0  0  0  0  0  0  0  0  0  0  0
   -3.3816   -2.0558   -7.1863 H   0  0  0  0  0  0  0  0  0  0  0  0
   -3.1348   -3.6136   -4.7487 H   0  0  0  0  0  0  0  0  0  0  0  0
   -3.8588    0.3340    1.8056 H   0  0  0  0  0  0  0  0  0  0  0  0
   -2.0573    1.4960    3.0939 H   0  0  0  0  0  0  0  0  0  0  0  0
  1  2  1  0  0  0  0
  1 30  1  0  0  0  0
  1 31  1  0  0  0  0
  1 32  1  0  0  0  0
  2  3  1  0  0  0  0
  2 29  2  0  0  0  0
  3  4  2  0  0  0  0
  3 33  1  0  0  0  0
  4  5  1  0  0  0  0
  4 34  1  0  0  0  0
  5  6  2  0  0  0  0
  5 35  1  0  0  0  0
  6  7  1  0  0  0  0
  6 29  1  0  0  0  0
  7  8  1  0  0  0  0
  7 27  2  0  0  0  0
  8  9  2  0  0  0  0
  8 10  1  0  0  0  0
 10 11  1  0  0  0  0
 10 15  2  0  0  0  0
 11 12  2  0  0  0  0
 11 36  1  0  0  0  0
 12 13  1  0  0  0  0
 12 37  1  0  0  0  0
 13 14  2  0  0  0  0
 13 38  1  0  0  0  0
 14 15  1  0  0  0  0
 14 39  1  0  0  0  0
 15 16  1  0  0  0  0
 16 17  1  0  0  0  0
 16 40  1  0  0  0  0
 17 18  1  0  0  0  0
 17 41  1  0  0  0  0
 17 42  1  0  0  0  0
 18 19  1  0  0  0  0
 18 26  2  0  0  0  0
 19 20  2  0  0  0  0
 19 43  1  0  0  0  0
 20 21  1  0  0  0  0
 20 44  1  0  0  0  0
 21 22  1  0  0  0  0
 21 25  2  0  0  0  0
 22 23  2  0  0  0  0
 22 45  1  0  0  0  0
 23 24  1  0  0  0  0
 24 25  1  0  0  0  0
 24 46  1  0  0  0  0
 25 26  1  0  0  0  0
 26 47  1  0  0  0  0
 27 28  1  0  0  0  0
 27 48  1  0  0  0  0
 28 29  1  0  0  0  0
 28 49  1  0  0  0  0
M  END
$$$$
