CHEMBL3676347
 OpenBabel04072215373D

 64 66  0  0  0  0  0  0  0  0999 V2000
    1.4327   -1.3387   -0.2253 C   0  0  0  0  0  0  0  0  0  0  0  0
    2.5179   -0.5532   -0.2131 C   0  0  0  0  0  0  0  0  0  0  0  0
    3.0662   -0.0153   -1.4899 C   0  0  0  0  0  0  0  0  0  0  0  0
    2.4081    0.0123   -2.5223 O   0  0  0  0  0  0  0  0  0  0  0  0
    4.3780    0.3866   -1.3556 N   0  0  0  0  0  0  0  0  0  0  0  0
    5.0897    0.9330   -2.4383 C   0  0  0  0  0  0  0  0  0  0  0  0
    6.2195    0.2366   -2.8627 C   0  0  0  0  0  0  0  0  0  0  0  0
    6.8655    0.5761   -4.0766 C   0  0  0  0  0  0  0  0  0  0  0  0
    7.9295   -0.1410   -4.6479 C   0  0  0  0  0  0  0  0  0  0  0  0
    8.3387   -1.3516   -4.0440 N   0  0  0  0  0  0  0  0  0  0  0  0
    9.6307   -1.9148   -4.0172 C   0  0  0  0  0  0  0  0  0  0  0  0
   10.7781   -1.1111   -4.0619 C   0  0  0  0  0  0  0  0  0  0  0  0
   12.0350   -1.6375   -3.7516 C   0  0  0  0  0  0  0  0  0  0  0  0
   12.1566   -2.9840   -3.4119 C   0  0  0  0  0  0  0  0  0  0  0  0
   13.8278   -3.6367   -2.8166 Br  0  0  0  0  0  0  0  0  0  0  0  0
   11.0416   -3.8145   -3.4534 C   0  0  0  0  0  0  0  0  0  0  0  0
   11.1484   -5.1193   -3.1577 F   0  0  0  0  0  0  0  0  0  0  0  0
    9.7919   -3.2809   -3.7497 C   0  0  0  0  0  0  0  0  0  0  0  0
    8.7109   -4.0792   -3.7383 F   0  0  0  0  0  0  0  0  0  0  0  0
    8.5475    0.2569   -5.7678 N   0  0  0  0  0  0  0  0  0  0  0  0
    8.0633    1.3552   -6.3506 C   0  0  0  0  0  0  0  0  0  0  0  0
    7.0392    2.0978   -5.9243 N   0  0  0  0  0  0  0  0  0  0  0  0
    6.4429    1.7026   -4.7918 C   0  0  0  0  0  0  0  0  0  0  0  0
    5.3739    2.4379   -4.2999 C   0  0  0  0  0  0  0  0  0  0  0  0
    4.6967    2.0880   -3.1235 C   0  0  0  0  0  0  0  0  0  0  0  0
    3.7454    2.9978   -2.7503 O   0  0  0  0  0  0  0  0  0  0  0  0
    3.5314    3.2515   -1.3623 C   0  0  0  0  0  0  0  0  0  0  0  0
    4.7651    3.7400   -0.5941 C   0  0  0  0  0  0  0  0  0  0  0  0
    4.5222    3.8212    0.8311 N   0  0  0  0  0  0  0  0  0  0  0  0
    4.6066    2.7190    1.6548 C   0  0  0  0  0  0  0  0  0  0  0  0
    4.8996    1.5893    1.2535 O   0  0  0  0  0  0  0  0  0  0  0  0
    4.3248    3.0057    3.1081 C   0  0  0  0  0  0  0  0  0  0  0  0
    5.5816    3.4773    3.8402 C   0  0  0  0  0  0  0  0  0  0  0  0
    6.1238    4.8343    3.3639 C   0  0  0  0  0  0  0  0  0  0  0  0
    5.1210    5.9162    3.4020 N   0  0  0  0  0  0  0  0  0  0  0  0
    4.7085    6.2057    4.7822 C   0  0  0  0  0  0  0  0  0  0  0  0
    5.6800    7.1358    2.8053 C   0  0  0  0  0  0  0  0  0  0  0  0
    0.9984   -1.6974    0.7024 H   0  0  0  0  0  0  0  0  0  0  0  0
    0.9549   -1.6361   -1.1557 H   0  0  0  0  0  0  0  0  0  0  0  0
    2.9816   -0.2406    0.7093 H   0  0  0  0  0  0  0  0  0  0  0  0
    4.9102   -0.0304   -0.5958 H   0  0  0  0  0  0  0  0  0  0  0  0
    6.5700   -0.6192   -2.2885 H   0  0  0  0  0  0  0  0  0  0  0  0
    7.5936   -2.0437   -4.0613 H   0  0  0  0  0  0  0  0  0  0  0  0
   10.6949   -0.0485   -4.2825 H   0  0  0  0  0  0  0  0  0  0  0  0
   12.8962   -0.9738   -3.7340 H   0  0  0  0  0  0  0  0  0  0  0  0
    8.5481    1.6726   -7.2724 H   0  0  0  0  0  0  0  0  0  0  0  0
    5.0570    3.3251   -4.8451 H   0  0  0  0  0  0  0  0  0  0  0  0
    3.0422    2.4080   -0.8729 H   0  0  0  0  0  0  0  0  0  0  0  0
    2.7785    4.0488   -1.3158 H   0  0  0  0  0  0  0  0  0  0  0  0
    5.0584    4.7326   -0.9473 H   0  0  0  0  0  0  0  0  0  0  0  0
    5.6319    3.0827   -0.7542 H   0  0  0  0  0  0  0  0  0  0  0  0
    4.3322    4.7303    1.2560 H   0  0  0  0  0  0  0  0  0  0  0  0
    3.9597    2.0788    3.5635 H   0  0  0  0  0  0  0  0  0  0  0  0
    3.5059    3.7319    3.1934 H   0  0  0  0  0  0  0  0  0  0  0  0
    6.3744    2.7287    3.7152 H   0  0  0  0  0  0  0  0  0  0  0  0
    5.3709    3.5161    4.9143 H   0  0  0  0  0  0  0  0  0  0  0  0
    6.4875    4.7162    2.3365 H   0  0  0  0  0  0  0  0  0  0  0  0
    7.0052    5.0971    3.9632 H   0  0  0  0  0  0  0  0  0  0  0  0
    4.1569    5.3635    5.2140 H   0  0  0  0  0  0  0  0  0  0  0  0
    4.0198    7.0576    4.8123 H   0  0  0  0  0  0  0  0  0  0  0  0
    5.5629    6.4308    5.4304 H   0  0  0  0  0  0  0  0  0  0  0  0
    5.9324    6.9661    1.7529 H   0  0  0  0  0  0  0  0  0  0  0  0
    6.5795    7.4790    3.3293 H   0  0  0  0  0  0  0  0  0  0  0  0
    4.9410    7.9448    2.8222 H   0  0  0  0  0  0  0  0  0  0  0  0
  1  2  2  0  0  0  0
  1 38  1  0  0  0  0
  1 39  1  0  0  0  0
  2  3  1  0  0  0  0
  2 40  1  0  0  0  0
  3  4  2  0  0  0  0
  3  5  1  0  0  0  0
  5  6  1  0  0  0  0
  5 41  1  0  0  0  0
  6  7  1  0  0  0  0
  6 25  2  0  0  0  0
  7  8  2  0  0  0  0
  7 42  1  0  0  0  0
  8  9  1  0  0  0  0
  8 23  1  0  0  0  0
  9 10  1  0  0  0  0
  9 20  2  0  0  0  0
 10 11  1  0  0  0  0
 10 43  1  0  0  0  0
 11 12  1  0  0  0  0
 11 18  2  0  0  0  0
 12 13  2  0  0  0  0
 12 44  1  0  0  0  0
 13 14  1  0  0  0  0
 13 45  1  0  0  0  0
 14 15  1  0  0  0  0
 14 16  2  0  0  0  0
 16 17  1  0  0  0  0
 16 18  1  0  0  0  0
 18 19  1  0  0  0  0
 20 21  1  0  0  0  0
 21 22  2  0  0  0  0
 21 46  1  0  0  0  0
 22 23  1  0  0  0  0
 23 24  2  0  0  0  0
 24 25  1  0  0  0  0
 24 47  1  0  0  0  0
 25 26  1  0  0  0  0
 26 27  1  0  0  0  0
 27 28  1  0  0  0  0
 27 48  1  0  0  0  0
 27 49  1  0  0  0  0
 28 29  1  0  0  0  0
 28 50  1  0  0  0  0
 28 51  1  0  0  0  0
 29 30  1  0  0  0  0
 29 52  1  0  0  0  0
 30 31  2  0  0  0  0
 30 32  1  0  0  0  0
 32 33  1  0  0  0  0
 32 53  1  0  0  0  0
 32 54  1  0  0  0  0
 33 34  1  0  0  0  0
 33 55  1  0  0  0  0
 33 56  1  0  0  0  0
 34 35  1  0  0  0  0
 34 57  1  0  0  0  0
 34 58  1  0  0  0  0
 35 36  1  0  0  0  0
 35 37  1  0  0  0  0
 36 59  1  0  0  0  0
 36 60  1  0  0  0  0
 36 61  1  0  0  0  0
 37 62  1  0  0  0  0
 37 63  1  0  0  0  0
 37 64  1  0  0  0  0
M  END
$$$$
