CHEMBL3656105
 OpenBabel04072215373D

 59 62  0  0  0  0  0  0  0  0999 V2000
    2.7961    0.7623   -2.4152 C   0  0  0  0  0  0  0  0  0  0  0  0
    1.3880    0.4987   -1.9638 C   0  0  0  0  0  0  0  0  0  0  0  0
    0.8683   -0.7971   -2.0445 C   0  0  0  0  0  0  0  0  0  0  0  0
   -0.4204   -1.0559   -1.5982 C   0  0  0  0  0  0  0  0  0  0  0  0
   -1.2030   -0.0241   -1.0866 C   0  0  0  0  0  0  0  0  0  0  0  0
   -2.3733   -0.3922   -0.5517 F   0  0  0  0  0  0  0  0  0  0  0  0
   -0.7414    1.3020   -1.0497 C   0  0  0  0  0  0  0  0  0  0  0  0
   -1.5162    2.4187   -0.6227 N   0  0  0  0  0  0  0  0  0  0  0  0
   -2.8981    2.4462   -0.5583 C   0  0  0  0  0  0  0  0  0  0  0  0
   -3.6410    1.5275   -0.8930 O   0  0  0  0  0  0  0  0  0  0  0  0
   -3.3970    3.6783   -0.1349 N   0  0  0  0  0  0  0  0  0  0  0  0
   -4.7994    3.7982    0.0568 C   0  0  0  0  0  0  0  0  0  0  0  0
   -5.4814    2.8686    0.8500 C   0  0  0  0  0  0  0  0  0  0  0  0
   -6.8730    2.8979    0.9409 C   0  0  0  0  0  0  0  0  0  0  0  0
   -7.5948    3.8970    0.2863 C   0  0  0  0  0  0  0  0  0  0  0  0
   -8.9696    4.0029    0.3203 O   0  0  0  0  0  0  0  0  0  0  0  0
   -9.6501    3.6196    1.4561 C   0  0  0  0  0  0  0  0  0  0  0  0
   -9.1719    3.8050    2.7490 C   0  0  0  0  0  0  0  0  0  0  0  0
   -9.9370    3.3348    3.8008 C   0  0  0  0  0  0  0  0  0  0  0  0
  -11.1457    2.7511    3.6537 N   0  0  0  0  0  0  0  0  0  0  0  0
  -11.6184    2.6391    2.3890 C   0  0  0  0  0  0  0  0  0  0  0  0
  -12.9407    2.0289    2.2907 C   0  0  0  0  0  0  0  0  0  0  0  0
  -13.7526    1.7717    1.1996 C   0  0  0  0  0  0  0  0  0  0  0  0
  -14.9657    1.1656    1.6480 C   0  0  0  0  0  0  0  0  0  0  0  0
  -16.1304    0.7256    0.8748 C   0  0  0  0  0  0  0  0  0  0  0  0
  -17.1224    0.2197    1.3902 O   0  0  0  0  0  0  0  0  0  0  0  0
  -16.0251    0.9292   -0.4779 N   0  0  0  0  0  0  0  0  0  0  0  0
  -17.0910    0.5773   -1.3860 C   0  0  0  0  0  0  0  0  0  0  0  0
  -16.6953    0.9357   -2.8119 C   0  0  0  0  0  0  0  0  0  0  0  0
  -15.6294    1.4574   -3.1176 O   0  0  0  0  0  0  0  0  0  0  0  0
  -17.6437    0.6291   -3.7284 O   0  0  0  0  0  0  0  0  0  0  0  0
  -14.8420    1.0634    3.0223 C   0  0  0  0  0  0  0  0  0  0  0  0
  -13.6278    1.5764    3.3950 N   0  0  0  0  0  0  0  0  0  0  0  0
  -10.9108    3.0629    1.2703 C   0  0  0  0  0  0  0  0  0  0  0  0
   -6.9158    4.8244   -0.5109 C   0  0  0  0  0  0  0  0  0  0  0  0
   -5.5170    4.7939   -0.6071 C   0  0  0  0  0  0  0  0  0  0  0  0
    0.5800    1.5425   -1.4650 C   0  0  0  0  0  0  0  0  0  0  0  0
    3.2835   -0.1590   -2.7554 H   0  0  0  0  0  0  0  0  0  0  0  0
    3.3901    1.1631   -1.5884 H   0  0  0  0  0  0  0  0  0  0  0  0
    2.8029    1.4693   -3.2499 H   0  0  0  0  0  0  0  0  0  0  0  0
    1.4662   -1.6172   -2.4353 H   0  0  0  0  0  0  0  0  0  0  0  0
   -0.8289   -2.0615   -1.6243 H   0  0  0  0  0  0  0  0  0  0  0  0
   -1.0338    3.2938   -0.4895 H   0  0  0  0  0  0  0  0  0  0  0  0
   -2.9417    4.4714   -0.5616 H   0  0  0  0  0  0  0  0  0  0  0  0
   -4.9352    2.0905    1.3787 H   0  0  0  0  0  0  0  0  0  0  0  0
   -7.3712    2.1226    1.5159 H   0  0  0  0  0  0  0  0  0  0  0  0
   -8.2166    4.2777    2.9430 H   0  0  0  0  0  0  0  0  0  0  0  0
   -9.5793    3.4135    4.8231 H   0  0  0  0  0  0  0  0  0  0  0  0
  -13.4910    2.0071    0.1776 H   0  0  0  0  0  0  0  0  0  0  0  0
  -15.1961    1.3520   -0.8777 H   0  0  0  0  0  0  0  0  0  0  0  0
  -17.9874    1.1359   -1.1020 H   0  0  0  0  0  0  0  0  0  0  0  0
  -17.2691   -0.4988   -1.3118 H   0  0  0  0  0  0  0  0  0  0  0  0
  -18.4453    0.2140   -3.3536 H   0  0  0  0  0  0  0  0  0  0  0  0
  -15.5241    0.6640    3.7621 H   0  0  0  0  0  0  0  0  0  0  0  0
  -13.2620    1.6319    4.3380 H   0  0  0  0  0  0  0  0  0  0  0  0
  -11.3165    2.9595    0.2712 H   0  0  0  0  0  0  0  0  0  0  0  0
   -7.4799    5.5582   -1.0815 H   0  0  0  0  0  0  0  0  0  0  0  0
   -5.0180    5.5004   -1.2633 H   0  0  0  0  0  0  0  0  0  0  0  0
    0.9917    2.5486   -1.4300 H   0  0  0  0  0  0  0  0  0  0  0  0
  1  2  1  0  0  0  0
  1 38  1  0  0  0  0
  1 39  1  0  0  0  0
  1 40  1  0  0  0  0
  2  3  1  0  0  0  0
  2 37  2  0  0  0  0
  3  4  2  0  0  0  0
  3 41  1  0  0  0  0
  4  5  1  0  0  0  0
  4 42  1  0  0  0  0
  5  6  1  0  0  0  0
  5  7  2  0  0  0  0
  7  8  1  0  0  0  0
  7 37  1  0  0  0  0
  8  9  1  0  0  0  0
  8 43  1  0  0  0  0
  9 10  2  0  0  0  0
  9 11  1  0  0  0  0
 11 12  1  0  0  0  0
 11 44  1  0  0  0  0
 12 13  1  0  0  0  0
 12 36  2  0  0  0  0
 13 14  2  0  0  0  0
 13 45  1  0  0  0  0
 14 15  1  0  0  0  0
 14 46  1  0  0  0  0
 15 16  1  0  0  0  0
 15 35  2  0  0  0  0
 16 17  1  0  0  0  0
 17 18  1  0  0  0  0
 17 34  2  0  0  0  0
 18 19  2  0  0  0  0
 18 47  1  0  0  0  0
 19 20  1  0  0  0  0
 19 48  1  0  0  0  0
 20 21  2  0  0  0  0
 21 22  1  0  0  0  0
 21 34  1  0  0  0  0
 22 23  2  0  0  0  0
 22 33  1  0  0  0  0
 23 24  1  0  0  0  0
 23 49  1  0  0  0  0
 24 25  1  0  0  0  0
 24 32  2  0  0  0  0
 25 26  2  0  0  0  0
 25 27  1  0  0  0  0
 27 28  1  0  0  0  0
 27 50  1  0  0  0  0
 28 29  1  0  0  0  0
 28 51  1  0  0  0  0
 28 52  1  0  0  0  0
 29 30  2  0  0  0  0
 29 31  1  0  0  0  0
 31 53  1  0  0  0  0
 32 33  1  0  0  0  0
 32 54  1  0  0  0  0
 33 55  1  0  0  0  0
 34 56  1  0  0  0  0
 35 36  1  0  0  0  0
 35 57  1  0  0  0  0
 36 58  1  0  0  0  0
 37 59  1  0  0  0  0
M  END
$$$$
