CHEMBL3775585
 OpenBabel04072215373D

 37 39  0  0  0  0  0  0  0  0999 V2000
    3.5224   -1.1374   -0.4907 C   0  0  0  0  0  0  0  0  0  0  0  0
    2.6365   -0.1790    0.0951 O   0  0  0  0  0  0  0  0  0  0  0  0
    3.1905    1.0414    0.3786 C   0  0  0  0  0  0  0  0  0  0  0  0
    4.2094    1.5807   -0.4303 C   0  0  0  0  0  0  0  0  0  0  0  0
    4.8840    2.7479   -0.1030 C   0  0  0  0  0  0  0  0  0  0  0  0
    5.9017    3.1450   -0.8745 N   0  0  0  0  0  0  0  0  0  0  0  0
    6.5509    4.2463   -0.4839 C   0  0  0  0  0  0  0  0  0  0  0  0
    6.2878    4.9720    0.6051 N   0  0  0  0  0  0  0  0  0  0  0  0
    5.2377    4.5825    1.3513 C   0  0  0  0  0  0  0  0  0  0  0  0
    4.9129    5.3303    2.5193 N   0  0  0  0  0  0  0  0  0  0  0  0
    5.4539    6.6153    2.8095 C   0  0  0  0  0  0  0  0  0  0  0  0
    5.3730    7.6855    1.8922 C   0  0  0  0  0  0  0  0  0  0  0  0
    4.4296    7.6040    0.4408 Cl  0  0  0  0  0  0  0  0  0  0  0  0
    6.0046    8.9057    2.1593 C   0  0  0  0  0  0  0  0  0  0  0  0
    6.6871    9.1034    3.3588 C   0  0  0  0  0  0  0  0  0  0  0  0
    6.7202    8.0815    4.3049 C   0  0  0  0  0  0  0  0  0  0  0  0
    7.3601    8.2934    5.4956 O   0  0  0  0  0  0  0  0  0  0  0  0
    6.1055    6.8463    4.0421 C   0  0  0  0  0  0  0  0  0  0  0  0
    6.1434    5.5921    5.2421 Cl  0  0  0  0  0  0  0  0  0  0  0  0
    4.4830    3.4447    1.0371 C   0  0  0  0  0  0  0  0  0  0  0  0
    3.3739    2.9847    1.7787 C   0  0  0  0  0  0  0  0  0  0  0  0
    2.7323    1.7806    1.4740 C   0  0  0  0  0  0  0  0  0  0  0  0
    1.7352    1.5098    2.3646 O   0  0  0  0  0  0  0  0  0  0  0  0
    1.0718    0.2592    2.3343 C   0  0  0  0  0  0  0  0  0  0  0  0
    3.2962   -2.1176   -0.0618 H   0  0  0  0  0  0  0  0  0  0  0  0
    4.5830   -0.9425   -0.2892 H   0  0  0  0  0  0  0  0  0  0  0  0
    3.3455   -1.1804   -1.5697 H   0  0  0  0  0  0  0  0  0  0  0  0
    4.5186    1.0713   -1.3394 H   0  0  0  0  0  0  0  0  0  0  0  0
    7.3780    4.5705   -1.1023 H   0  0  0  0  0  0  0  0  0  0  0  0
    4.9956    4.7150    3.3289 H   0  0  0  0  0  0  0  0  0  0  0  0
    5.9555    9.7122    1.4284 H   0  0  0  0  0  0  0  0  0  0  0  0
    7.1706   10.0585    3.5372 H   0  0  0  0  0  0  0  0  0  0  0  0
    7.7312    9.1906    5.5164 H   0  0  0  0  0  0  0  0  0  0  0  0
    3.0064    3.5641    2.6244 H   0  0  0  0  0  0  0  0  0  0  0  0
    0.5354    0.1622    3.2848 H   0  0  0  0  0  0  0  0  0  0  0  0
    1.7655   -0.5831    2.2818 H   0  0  0  0  0  0  0  0  0  0  0  0
    0.3297    0.2350    1.5313 H   0  0  0  0  0  0  0  0  0  0  0  0
  1  2  1  0  0  0  0
  1 25  1  0  0  0  0
  1 26  1  0  0  0  0
  1 27  1  0  0  0  0
  2  3  1  0  0  0  0
  3  4  1  0  0  0  0
  3 22  2  0  0  0  0
  4  5  2  0  0  0  0
  4 28  1  0  0  0  0
  5  6  1  0  0  0  0
  5 20  1  0  0  0  0
  6  7  2  0  0  0  0
  7  8  1  0  0  0  0
  7 29  1  0  0  0  0
  8  9  2  0  0  0  0
  9 10  1  0  0  0  0
  9 20  1  0  0  0  0
 10 11  1  0  0  0  0
 10 30  1  0  0  0  0
 11 12  1  0  0  0  0
 11 18  2  0  0  0  0
 12 13  1  0  0  0  0
 12 14  2  0  0  0  0
 14 15  1  0  0  0  0
 14 31  1  0  0  0  0
 15 16  2  0  0  0  0
 15 32  1  0  0  0  0
 16 17  1  0  0  0  0
 16 18  1  0  0  0  0
 17 33  1  0  0  0  0
 18 19  1  0  0  0  0
 20 21  2  0  0  0  0
 21 22  1  0  0  0  0
 21 34  1  0  0  0  0
 22 23  1  0  0  0  0
 23 24  1  0  0  0  0
 24 35  1  0  0  0  0
 24 36  1  0  0  0  0
 24 37  1  0  0  0  0
M  END
$$$$
