CHEMBL3593293
 OpenBabel04072215363D

 66 70  0  0  0  0  0  0  0  0999 V2000
   -1.0724   -7.9358   -7.0639 C   0  0  0  0  0  0  0  0  0  0  0  0
   -1.5624   -7.4253   -5.7127 C   0  0  0  0  0  0  0  0  0  0  0  0
   -1.3114   -8.3364   -4.5895 N   0  0  0  0  0  0  0  0  0  0  0  0
   -1.8362   -7.7496   -3.3218 C   0  0  0  0  0  0  0  0  0  0  0  0
   -0.9866   -6.5987   -2.7050 C   0  0  0  0  0  0  0  0  0  0  0  0
    0.3809   -7.0798   -2.5598 N   0  0  0  0  0  0  0  0  0  0  0  0
    1.1718   -6.6713   -1.5055 C   0  0  0  0  0  0  0  0  0  0  0  0
    2.1375   -7.5390   -1.0473 C   0  0  0  0  0  0  0  0  0  0  0  0
    2.8785   -7.2219    0.0699 C   0  0  0  0  0  0  0  0  0  0  0  0
    3.7914   -8.1216    0.6438 N   0  0  0  0  0  0  0  0  0  0  0  0
    3.7594   -9.4702    0.5017 C   0  0  0  0  0  0  0  0  0  0  0  0
    3.0642  -10.1275   -0.4000 N   0  0  0  0  0  0  0  0  0  0  0  0
    3.1572  -11.4808   -0.2256 C   0  0  0  0  0  0  0  0  0  0  0  0
    3.9731  -11.8949    0.8041 C   0  0  0  0  0  0  0  0  0  0  0  0
    4.2705  -13.2632    1.2306 C   0  0  0  0  0  0  0  0  0  0  0  0
    4.3040  -14.3000    0.2803 C   0  0  0  0  0  0  0  0  0  0  0  0
    4.5541  -15.6201    0.6646 C   0  0  0  0  0  0  0  0  0  0  0  0
    4.7638  -15.9142    2.0080 C   0  0  0  0  0  0  0  0  0  0  0  0
    5.0733  -17.2349    2.4271 N   0  0  0  0  0  0  0  0  0  0  0  0
    6.6943  -17.7174    2.3582 S   0  0  0  0  0  0  0  0  0  0  0  0
    6.6998  -19.1224    2.6988 O   0  0  0  0  0  0  0  0  0  0  0  0
    7.2702  -17.2610    1.1106 O   0  0  0  0  0  0  0  0  0  0  0  0
    7.4613  -16.8391    3.7029 C   0  0  0  0  0  0  0  0  0  0  0  0
    7.4321  -17.3784    4.9946 C   0  0  0  0  0  0  0  0  0  0  0  0
    8.1337  -16.7421    6.0204 C   0  0  0  0  0  0  0  0  0  0  0  0
    8.8609  -15.5793    5.7562 C   0  0  0  0  0  0  0  0  0  0  0  0
    8.8798  -15.0399    4.4694 C   0  0  0  0  0  0  0  0  0  0  0  0
    8.1827  -15.6705    3.4383 C   0  0  0  0  0  0  0  0  0  0  0  0
    4.7304  -14.9010    2.9615 C   0  0  0  0  0  0  0  0  0  0  0  0
    4.4808  -13.5851    2.5789 C   0  0  0  0  0  0  0  0  0  0  0  0
    4.6478  -10.5026    1.5636 S   0  0  0  0  0  0  0  0  0  0  0  0
    2.7275   -6.0298    0.6643 N   0  0  0  0  0  0  0  0  0  0  0  0
    1.7698   -5.2195    0.1623 C   0  0  0  0  0  0  0  0  0  0  0  0
    1.5764   -3.8891    0.8221 C   0  0  0  0  0  0  0  0  0  0  0  0
    0.9592   -5.5082   -0.8783 N   0  0  0  0  0  0  0  0  0  0  0  0
    1.0017   -7.5802   -3.7897 C   0  0  0  0  0  0  0  0  0  0  0  0
    0.1148   -8.6907   -4.3959 C   0  0  0  0  0  0  0  0  0  0  0  0
   -1.4751   -7.3049   -7.8635 H   0  0  0  0  0  0  0  0  0  0  0  0
   -1.4011   -8.9632   -7.2507 H   0  0  0  0  0  0  0  0  0  0  0  0
    0.0187   -7.8963   -7.1384 H   0  0  0  0  0  0  0  0  0  0  0  0
   -2.6491   -7.2981   -5.7995 H   0  0  0  0  0  0  0  0  0  0  0  0
   -1.1373   -6.4316   -5.5375 H   0  0  0  0  0  0  0  0  0  0  0  0
   -1.8875   -8.5653   -2.5867 H   0  0  0  0  0  0  0  0  0  0  0  0
   -2.8705   -7.4137   -3.4610 H   0  0  0  0  0  0  0  0  0  0  0  0
   -1.4268   -6.3287   -1.7390 H   0  0  0  0  0  0  0  0  0  0  0  0
   -1.0087   -5.7098   -3.3459 H   0  0  0  0  0  0  0  0  0  0  0  0
    2.2421   -8.4894   -1.5426 H   0  0  0  0  0  0  0  0  0  0  0  0
    4.2289   -7.7165    1.4606 H   0  0  0  0  0  0  0  0  0  0  0  0
    2.5890  -12.1292   -0.8816 H   0  0  0  0  0  0  0  0  0  0  0  0
    4.1499  -14.0901   -0.7773 H   0  0  0  0  0  0  0  0  0  0  0  0
    4.6000  -16.3972   -0.0941 H   0  0  0  0  0  0  0  0  0  0  0  0
    4.4757  -17.9817    2.0723 H   0  0  0  0  0  0  0  0  0  0  0  0
    6.8866  -18.2963    5.2020 H   0  0  0  0  0  0  0  0  0  0  0  0
    8.1326  -17.1629    7.0232 H   0  0  0  0  0  0  0  0  0  0  0  0
    9.4258  -15.0999    6.5527 H   0  0  0  0  0  0  0  0  0  0  0  0
    9.4547  -14.1395    4.2659 H   0  0  0  0  0  0  0  0  0  0  0  0
    8.2187  -15.2557    2.4333 H   0  0  0  0  0  0  0  0  0  0  0  0
    4.8877  -15.1300    4.0136 H   0  0  0  0  0  0  0  0  0  0  0  0
    4.4357  -12.8196    3.3491 H   0  0  0  0  0  0  0  0  0  0  0  0
    2.3005   -3.7395    1.6289 H   0  0  0  0  0  0  0  0  0  0  0  0
    0.5689   -3.8252    1.2436 H   0  0  0  0  0  0  0  0  0  0  0  0
    1.7064   -3.0869    0.0894 H   0  0  0  0  0  0  0  0  0  0  0  0
    2.0014   -7.9977   -3.6244 H   0  0  0  0  0  0  0  0  0  0  0  0
    1.1235   -6.7537   -4.4997 H   0  0  0  0  0  0  0  0  0  0  0  0
    0.1445   -9.5540   -3.7161 H   0  0  0  0  0  0  0  0  0  0  0  0
    0.5662   -9.0551   -5.3248 H   0  0  0  0  0  0  0  0  0  0  0  0
  1  2  1  0  0  0  0
  1 38  1  0  0  0  0
  1 39  1  0  0  0  0
  1 40  1  0  0  0  0
  2  3  1  0  0  0  0
  2 41  1  0  0  0  0
  2 42  1  0  0  0  0
  3  4  1  0  0  0  0
  3 37  1  0  0  0  0
  4  5  1  0  0  0  0
  4 43  1  0  0  0  0
  4 44  1  0  0  0  0
  5  6  1  0  0  0  0
  5 45  1  0  0  0  0
  5 46  1  0  0  0  0
  6  7  1  0  0  0  0
  6 36  1  0  0  0  0
  7  8  1  0  0  0  0
  7 35  2  0  0  0  0
  8  9  2  0  0  0  0
  8 47  1  0  0  0  0
  9 10  1  0  0  0  0
  9 32  1  0  0  0  0
 10 11  1  0  0  0  0
 10 48  1  0  0  0  0
 11 12  2  0  0  0  0
 11 31  1  0  0  0  0
 12 13  1  0  0  0  0
 13 14  2  0  0  0  0
 13 49  1  0  0  0  0
 14 15  1  0  0  0  0
 14 31  1  0  0  0  0
 15 16  1  0  0  0  0
 15 30  2  0  0  0  0
 16 17  2  0  0  0  0
 16 50  1  0  0  0  0
 17 18  1  0  0  0  0
 17 51  1  0  0  0  0
 18 19  1  0  0  0  0
 18 29  2  0  0  0  0
 19 20  1  0  0  0  0
 19 52  1  0  0  0  0
 20 21  2  0  0  0  0
 20 22  2  0  0  0  0
 20 23  1  0  0  0  0
 23 24  1  0  0  0  0
 23 28  2  0  0  0  0
 24 25  2  0  0  0  0
 24 53  1  0  0  0  0
 25 26  1  0  0  0  0
 25 54  1  0  0  0  0
 26 27  2  0  0  0  0
 26 55  1  0  0  0  0
 27 28  1  0  0  0  0
 27 56  1  0  0  0  0
 28 57  1  0  0  0  0
 29 30  1  0  0  0  0
 29 58  1  0  0  0  0
 30 59  1  0  0  0  0
 32 33  2  0  0  0  0
 33 34  1  0  0  0  0
 33 35  1  0  0  0  0
 34 60  1  0  0  0  0
 34 61  1  0  0  0  0
 34 62  1  0  0  0  0
 36 37  1  0  0  0  0
 36 63  1  0  0  0  0
 36 64  1  0  0  0  0
 37 65  1  0  0  0  0
 37 66  1  0  0  0  0
M  END
$$$$
