CHEMBL4282473
 OpenBabel04072215383D

 37 40  0  0  0  0  0  0  0  0999 V2000
    1.3486   -0.1386   -0.4376 C   0  0  0  0  0  0  0  0  0  0  0  0
    3.0403    0.0879    0.1572 S   0  0  0  0  0  0  0  0  0  0  0  0
    3.5609   -1.6027    0.3015 C   0  0  0  0  0  0  0  0  0  0  0  0
    2.6877   -2.5888    0.0451 N   0  0  0  0  0  0  0  0  0  0  0  0
    3.1657   -3.8470    0.1368 C   0  0  0  0  0  0  0  0  0  0  0  0
    4.4693   -4.1528    0.4710 C   0  0  0  0  0  0  0  0  0  0  0  0
    5.3016   -3.0641    0.6667 C   0  0  0  0  0  0  0  0  0  0  0  0
    4.8472   -1.7947    0.6292 N   0  0  0  0  0  0  0  0  0  0  0  0
    6.6910   -3.1961    0.8129 N   0  0  0  0  0  0  0  0  0  0  0  0
    7.3757   -3.9834   -0.0448 C   0  0  0  0  0  0  0  0  0  0  0  0
    8.4649   -3.5970   -0.7114 N   0  0  0  0  0  0  0  0  0  0  0  0
    8.7180   -4.6290   -1.5379 N   0  0  0  0  0  0  0  0  0  0  0  0
    7.8414   -5.6753   -1.4135 C   0  0  0  0  0  0  0  0  0  0  0  0
    7.9421   -6.9076   -2.2192 C   0  0  0  0  0  0  0  0  0  0  0  0
    6.9691   -5.2814   -0.4339 C   0  0  0  0  0  0  0  0  0  0  0  0
    5.9940   -6.1022    0.1317 N   0  0  0  0  0  0  0  0  0  0  0  0
    4.9058   -5.5710    0.6093 C   0  0  0  0  0  0  0  0  0  0  0  0
    4.0301   -6.5056    1.4068 C   0  0  0  0  0  0  0  0  0  0  0  0
    3.2380   -6.0448    2.4720 C   0  0  0  0  0  0  0  0  0  0  0  0
    2.5290   -6.9487    3.2695 C   0  0  0  0  0  0  0  0  0  0  0  0
    2.6172   -8.3157    3.0174 C   0  0  0  0  0  0  0  0  0  0  0  0
    3.4012   -8.7690    1.9630 C   0  0  0  0  0  0  0  0  0  0  0  0
    3.4932  -10.0851    1.7318 F   0  0  0  0  0  0  0  0  0  0  0  0
    4.1051   -7.8822    1.1581 C   0  0  0  0  0  0  0  0  0  0  0  0
    0.9083    0.8432   -0.6324 H   0  0  0  0  0  0  0  0  0  0  0  0
    0.7414   -0.6426    0.3190 H   0  0  0  0  0  0  0  0  0  0  0  0
    1.3294   -0.7108   -1.3696 H   0  0  0  0  0  0  0  0  0  0  0  0
    2.4361   -4.6214   -0.0867 H   0  0  0  0  0  0  0  0  0  0  0  0
    7.0761   -2.2598    0.8979 H   0  0  0  0  0  0  0  0  0  0  0  0
    9.5092   -4.5517   -2.1663 H   0  0  0  0  0  0  0  0  0  0  0  0
    8.7300   -6.8306   -2.9766 H   0  0  0  0  0  0  0  0  0  0  0  0
    6.9976   -7.0991   -2.7396 H   0  0  0  0  0  0  0  0  0  0  0  0
    8.1651   -7.7672   -1.5814 H   0  0  0  0  0  0  0  0  0  0  0  0
    3.1883   -4.9897    2.7305 H   0  0  0  0  0  0  0  0  0  0  0  0
    1.9309   -6.5871    4.1030 H   0  0  0  0  0  0  0  0  0  0  0  0
    2.0954   -9.0318    3.6448 H   0  0  0  0  0  0  0  0  0  0  0  0
    4.7297   -8.2773    0.3611 H   0  0  0  0  0  0  0  0  0  0  0  0
  1  2  1  0  0  0  0
  1 25  1  0  0  0  0
  1 26  1  0  0  0  0
  1 27  1  0  0  0  0
  2  3  1  0  0  0  0
  3  4  1  0  0  0  0
  3  8  2  0  0  0  0
  4  5  2  0  0  0  0
  5  6  1  0  0  0  0
  5 28  1  0  0  0  0
  6  7  2  0  0  0  0
  6 17  1  0  0  0  0
  7  8  1  0  0  0  0
  7  9  1  0  0  0  0
  9 10  1  0  0  0  0
  9 29  1  0  0  0  0
 10 11  2  0  0  0  0
 10 15  1  0  0  0  0
 11 12  1  0  0  0  0
 12 13  1  0  0  0  0
 12 30  1  0  0  0  0
 13 14  1  0  0  0  0
 13 15  2  0  0  0  0
 14 31  1  0  0  0  0
 14 32  1  0  0  0  0
 14 33  1  0  0  0  0
 15 16  1  0  0  0  0
 16 17  2  0  0  0  0
 17 18  1  0  0  0  0
 18 19  1  0  0  0  0
 18 24  2  0  0  0  0
 19 20  2  0  0  0  0
 19 34  1  0  0  0  0
 20 21  1  0  0  0  0
 20 35  1  0  0  0  0
 21 22  2  0  0  0  0
 21 36  1  0  0  0  0
 22 23  1  0  0  0  0
 22 24  1  0  0  0  0
 24 37  1  0  0  0  0
M  END
$$$$
