CHEMBL3953606
 OpenBabel04072215373D

 72 75  0  0  1  0  0  0  0  0999 V2000
    1.3335   -0.5045   -1.4460 C   0  0  0  0  0  0  0  0  0  0  0  0
    2.8267   -0.4774   -1.1416 C   0  0  0  0  0  0  0  0  0  0  0  0
    3.1803   -1.5073   -0.0645 C   0  0  0  0  0  0  0  0  0  0  0  0
    4.6774   -1.5149    0.2840 C   0  0  0  0  0  0  0  0  0  0  0  0
    5.1156   -2.5602    1.3720 C   0  0  3  0  0  0  0  0  0  0  0  0
    4.6028   -3.9626    1.0422 C   0  0  0  0  0  0  0  0  0  0  0  0
    5.3012   -4.6359   -0.1217 C   0  0  0  0  0  0  0  0  0  0  0  0
    6.6048   -2.2999    1.7496 C   0  0  0  0  0  0  0  0  0  0  0  0
    7.0533   -1.1639    1.5271 O   0  0  0  0  0  0  0  0  0  0  0  0
    7.3891   -3.1738    2.4827 N   0  0  0  0  0  0  0  0  0  0  0  0
    7.1749   -4.5722    2.8595 C   0  0  0  0  0  0  0  0  0  0  0  0
    6.9498   -4.7115    4.3671 C   0  0  0  0  0  0  0  0  0  0  0  0
    8.0115   -4.0953    5.1156 O   0  0  0  0  0  0  0  0  0  0  0  0
    8.2492   -2.7114    4.7488 C   0  0  3  0  0  0  0  0  0  0  0  0
    7.0696   -1.7964    5.1106 C   0  0  0  0  0  0  0  0  0  0  0  0
    6.7925   -1.8046    6.5099 O   0  0  0  0  0  0  0  0  0  0  0  0
    5.7367   -1.0236    6.9160 C   0  0  0  0  0  0  0  0  0  0  0  0
    5.8582   -0.5703    8.2412 C   0  0  0  0  0  0  0  0  0  0  0  0
    4.8774    0.2058    8.8634 C   0  0  0  0  0  0  0  0  0  0  0  0
    5.0278    0.6152   10.1235 N   0  0  0  0  0  0  0  0  0  0  0  0
    4.0262    1.3291   10.6536 C   0  0  0  0  0  0  0  0  0  0  0  0
    2.8740    1.6519   10.0510 N   0  0  0  0  0  0  0  0  0  0  0  0
    2.7221    1.2297    8.7880 C   0  0  0  0  0  0  0  0  0  0  0  0
    1.5035    1.4700    8.0860 N   0  0  0  0  0  0  0  0  0  0  0  0
    0.4194    2.2970    8.4311 C   0  0  0  0  0  0  0  0  0  0  0  0
    0.5554    3.4029    9.2690 C   0  0  0  0  0  0  0  0  0  0  0  0
   -0.5411    4.2124    9.5746 C   0  0  0  0  0  0  0  0  0  0  0  0
   -1.7853    3.9548    9.0021 C   0  0  0  0  0  0  0  0  0  0  0  0
   -3.1044    4.9774    9.4442 Cl  0  0  0  0  0  0  0  0  0  0  0  0
   -1.9223    2.8973    8.0993 C   0  0  0  0  0  0  0  0  0  0  0  0
   -3.4184    2.5378    7.3114 Cl  0  0  0  0  0  0  0  0  0  0  0  0
   -0.8215    2.0865    7.8058 C   0  0  0  0  0  0  0  0  0  0  0  0
    3.7336    0.5175    8.1294 C   0  0  0  0  0  0  0  0  0  0  0  0
    3.6211    0.1028    6.7901 C   0  0  0  0  0  0  0  0  0  0  0  0
    4.5907   -0.6841    6.1775 C   0  0  0  0  0  0  0  0  0  0  0  0
    4.3882   -1.1707    4.9126 O   0  0  0  0  0  0  0  0  0  0  0  0
    3.4029   -0.5198    4.1175 C   0  0  0  0  0  0  0  0  0  0  0  0
    8.5349   -2.6139    3.2311 C   0  0  0  0  0  0  0  0  0  0  0  0
    1.0920    0.1919   -2.2548 H   0  0  0  0  0  0  0  0  0  0  0  0
    0.7503   -0.2182   -0.5649 H   0  0  0  0  0  0  0  0  0  0  0  0
    1.0135   -1.5053   -1.7554 H   0  0  0  0  0  0  0  0  0  0  0  0
    3.1134    0.5299   -0.8197 H   0  0  0  0  0  0  0  0  0  0  0  0
    3.3813   -0.6980   -2.0613 H   0  0  0  0  0  0  0  0  0  0  0  0
    2.8708   -2.4854   -0.4442 H   0  0  0  0  0  0  0  0  0  0  0  0
    2.5977   -1.3040    0.8407 H   0  0  0  0  0  0  0  0  0  0  0  0
    4.9333   -0.5039    0.6285 H   0  0  0  0  0  0  0  0  0  0  0  0
    5.2643   -1.6779   -0.6288 H   0  0  0  0  0  0  0  0  0  0  0  0
    4.5903   -2.2893    2.2893 H   0  0  0  0  0  0  0  0  0  0  0  0
    3.5310   -3.9229    0.8215 H   0  0  0  0  0  0  0  0  0  0  0  0
    4.6130   -4.5910    1.9360 H   0  0  0  0  0  0  0  0  0  0  0  0
    5.3003   -4.0035   -1.0138 H   0  0  0  0  0  0  0  0  0  0  0  0
    4.7813   -5.5667   -0.3701 H   0  0  0  0  0  0  0  0  0  0  0  0
    6.3384   -4.8859    0.1143 H   0  0  0  0  0  0  0  0  0  0  0  0
    8.0968   -5.1010    2.5863 H   0  0  0  0  0  0  0  0  0  0  0  0
    6.3850   -5.0600    2.3101 H   0  0  0  0  0  0  0  0  0  0  0  0
    6.9306   -5.7721    4.6383 H   0  0  0  0  0  0  0  0  0  0  0  0
    5.9877   -4.2885    4.6726 H   0  0  0  0  0  0  0  0  0  0  0  0
    9.1351   -2.4001    5.3143 H   0  0  0  0  0  0  0  0  0  0  0  0
    6.2058   -2.1835    4.5726 H   0  0  0  0  0  0  0  0  0  0  0  0
    7.2773   -0.7704    4.7867 H   0  0  0  0  0  0  0  0  0  0  0  0
    6.7470   -0.8322    8.8132 H   0  0  0  0  0  0  0  0  0  0  0  0
    4.1571    1.6802   11.6700 H   0  0  0  0  0  0  0  0  0  0  0  0
    1.1774    0.5891    7.6932 H   0  0  0  0  0  0  0  0  0  0  0  0
    1.5179    3.6486    9.7089 H   0  0  0  0  0  0  0  0  0  0  0  0
   -0.4070    5.0462   10.2610 H   0  0  0  0  0  0  0  0  0  0  0  0
   -0.9397    1.2754    7.0898 H   0  0  0  0  0  0  0  0  0  0  0  0
    2.7378    0.4008    6.2440 H   0  0  0  0  0  0  0  0  0  0  0  0
    3.3825   -0.9758    3.1305 H   0  0  0  0  0  0  0  0  0  0  0  0
    3.6491    0.5397    3.9855 H   0  0  0  0  0  0  0  0  0  0  0  0
    2.3972   -0.6617    4.5235 H   0  0  0  0  0  0  0  0  0  0  0  0
    9.4130   -3.2167    2.9716 H   0  0  0  0  0  0  0  0  0  0  0  0
    8.7510   -1.5772    2.9556 H   0  0  0  0  0  0  0  0  0  0  0  0
  1  2  1  0  0  0  0
  1 39  1  0  0  0  0
  1 40  1  0  0  0  0
  1 41  1  0  0  0  0
  2  3  1  0  0  0  0
  2 42  1  0  0  0  0
  2 43  1  0  0  0  0
  3  4  1  0  0  0  0
  3 44  1  0  0  0  0
  3 45  1  0  0  0  0
  4  5  1  0  0  0  0
  4 46  1  0  0  0  0
  4 47  1  0  0  0  0
  5  6  1  0  0  0  0
  5  8  1  0  0  0  0
  5 48  1  0  0  0  0
  6  7  1  0  0  0  0
  6 49  1  0  0  0  0
  6 50  1  0  0  0  0
  7 51  1  0  0  0  0
  7 52  1  0  0  0  0
  7 53  1  0  0  0  0
  8  9  2  0  0  0  0
  8 10  1  0  0  0  0
 10 11  1  0  0  0  0
 10 38  1  0  0  0  0
 11 12  1  0  0  0  0
 11 54  1  0  0  0  0
 11 55  1  0  0  0  0
 12 13  1  0  0  0  0
 12 56  1  0  0  0  0
 12 57  1  0  0  0  0
 13 14  1  0  0  0  0
 14 15  1  0  0  0  0
 14 38  1  0  0  0  0
 14 58  1  0  0  0  0
 15 16  1  0  0  0  0
 15 59  1  0  0  0  0
 15 60  1  0  0  0  0
 16 17  1  0  0  0  0
 17 18  1  0  0  0  0
 17 35  2  0  0  0  0
 18 19  2  0  0  0  0
 18 61  1  0  0  0  0
 19 20  1  0  0  0  0
 19 33  1  0  0  0  0
 20 21  2  0  0  0  0
 21 22  1  0  0  0  0
 21 62  1  0  0  0  0
 22 23  2  0  0  0  0
 23 24  1  0  0  0  0
 23 33  1  0  0  0  0
 24 25  1  0  0  0  0
 24 63  1  0  0  0  0
 25 26  1  0  0  0  0
 25 32  2  0  0  0  0
 26 27  2  0  0  0  0
 26 64  1  0  0  0  0
 27 28  1  0  0  0  0
 27 65  1  0  0  0  0
 28 29  1  0  0  0  0
 28 30  2  0  0  0  0
 30 31  1  0  0  0  0
 30 32  1  0  0  0  0
 32 66  1  0  0  0  0
 33 34  2  0  0  0  0
 34 35  1  0  0  0  0
 34 67  1  0  0  0  0
 35 36  1  0  0  0  0
 36 37  1  0  0  0  0
 37 68  1  0  0  0  0
 37 69  1  0  0  0  0
 37 70  1  0  0  0  0
 38 71  1  0  0  0  0
 38 72  1  0  0  0  0
M  END
$$$$
