CHEMBL3596879
 OpenBabel04072215363D

 55 58  0  0  0  0  0  0  0  0999 V2000
   -1.0134    1.3072    1.0981 C   0  0  0  0  0  0  0  0  0  0  0  0
   -0.2393    0.2531    0.4889 N   0  0  0  0  0  0  0  0  0  0  0  0
    1.0512   -0.0888    0.7649 C   0  0  0  0  0  0  0  0  0  0  0  0
    1.3580   -1.1583   -0.0557 C   0  0  0  0  0  0  0  0  0  0  0  0
    2.6331   -1.8502   -0.0765 C   0  0  0  0  0  0  0  0  0  0  0  0
    2.8534   -2.9694   -0.8767 C   0  0  0  0  0  0  0  0  0  0  0  0
    4.0254   -3.6558   -0.8892 N   0  0  0  0  0  0  0  0  0  0  0  0
    4.9738   -3.1797   -0.0475 C   0  0  0  0  0  0  0  0  0  0  0  0
    4.7597   -2.0785    0.7685 C   0  0  0  0  0  0  0  0  0  0  0  0
    5.7951   -1.6856    1.6008 O   0  0  0  0  0  0  0  0  0  0  0  0
    5.4843   -1.1280    2.8219 C   0  0  0  0  0  0  0  0  0  0  0  0
    4.3389   -1.4392    3.5606 C   0  0  0  0  0  0  0  0  0  0  0  0
    4.1193   -0.8409    4.7984 C   0  0  0  0  0  0  0  0  0  0  0  0
    5.0764    0.0123    5.3411 C   0  0  0  0  0  0  0  0  0  0  0  0
    6.2584    0.2705    4.6510 C   0  0  0  0  0  0  0  0  0  0  0  0
    7.2960    1.0487    5.1898 N   0  0  0  0  0  0  0  0  0  0  0  0
    7.5030    1.3729    6.5046 C   0  0  0  0  0  0  0  0  0  0  0  0
    6.7989    1.0442    7.4563 O   0  0  0  0  0  0  0  0  0  0  0  0
    8.6625    2.0544    6.7770 N   0  0  0  0  0  0  0  0  0  0  0  0
    9.5404    2.6051    5.8721 C   0  0  0  0  0  0  0  0  0  0  0  0
   10.8015    3.1462    6.1940 C   0  0  0  0  0  0  0  0  0  0  0  0
   11.3122    3.5767    4.9893 C   0  0  0  0  0  0  0  0  0  0  0  0
   12.6027    4.2201    4.5748 C   0  0  0  0  0  0  0  0  0  0  0  0
   13.7553    3.2304    4.8152 C   0  0  0  0  0  0  0  0  0  0  0  0
   12.5869    4.6088    3.0839 C   0  0  0  0  0  0  0  0  0  0  0  0
   12.8245    5.4910    5.4117 C   0  0  0  0  0  0  0  0  0  0  0  0
   10.4054    3.3146    4.0128 O   0  0  0  0  0  0  0  0  0  0  0  0
    9.3113    2.6922    4.5579 N   0  0  0  0  0  0  0  0  0  0  0  0
    6.4455   -0.2756    3.3749 C   0  0  0  0  0  0  0  0  0  0  0  0
    3.6002   -1.3776    0.7476 N   0  0  0  0  0  0  0  0  0  0  0  0
    0.1662   -1.3744   -0.7841 C   0  0  0  0  0  0  0  0  0  0  0  0
   -0.8062   -0.5207   -0.4550 N   0  0  0  0  0  0  0  0  0  0  0  0
   -0.3765    1.8872    1.7701 H   0  0  0  0  0  0  0  0  0  0  0  0
   -1.8330    0.8502    1.6583 H   0  0  0  0  0  0  0  0  0  0  0  0
   -1.4037    1.9515    0.3061 H   0  0  0  0  0  0  0  0  0  0  0  0
    1.6388    0.4368    1.5067 H   0  0  0  0  0  0  0  0  0  0  0  0
    2.0904   -3.3660   -1.5369 H   0  0  0  0  0  0  0  0  0  0  0  0
    5.9134   -3.7200   -0.0359 H   0  0  0  0  0  0  0  0  0  0  0  0
    3.5980   -2.1363    3.1838 H   0  0  0  0  0  0  0  0  0  0  0  0
    3.2057   -1.0465    5.3481 H   0  0  0  0  0  0  0  0  0  0  0  0
    4.8714    0.4747    6.3025 H   0  0  0  0  0  0  0  0  0  0  0  0
    8.0489    1.2981    4.5568 H   0  0  0  0  0  0  0  0  0  0  0  0
    8.8643    2.1467    7.7612 H   0  0  0  0  0  0  0  0  0  0  0  0
   11.2866    3.1918    7.1572 H   0  0  0  0  0  0  0  0  0  0  0  0
   13.6360    2.3284    4.2022 H   0  0  0  0  0  0  0  0  0  0  0  0
   13.7982    2.9072    5.8621 H   0  0  0  0  0  0  0  0  0  0  0  0
   14.7224    3.6795    4.5653 H   0  0  0  0  0  0  0  0  0  0  0  0
   12.4623    3.7284    2.4412 H   0  0  0  0  0  0  0  0  0  0  0  0
   13.5209    5.1005    2.7918 H   0  0  0  0  0  0  0  0  0  0  0  0
   11.7633    5.2974    2.8586 H   0  0  0  0  0  0  0  0  0  0  0  0
   12.8560    5.2674    6.4846 H   0  0  0  0  0  0  0  0  0  0  0  0
   12.0145    6.2135    5.2532 H   0  0  0  0  0  0  0  0  0  0  0  0
   13.7677    5.9806    5.1472 H   0  0  0  0  0  0  0  0  0  0  0  0
    7.3565   -0.0711    2.8149 H   0  0  0  0  0  0  0  0  0  0  0  0
   -0.0433   -2.1190   -1.5404 H   0  0  0  0  0  0  0  0  0  0  0  0
  1  2  1  0  0  0  0
  1 33  1  0  0  0  0
  1 34  1  0  0  0  0
  1 35  1  0  0  0  0
  2  3  1  0  0  0  0
  2 32  1  0  0  0  0
  3  4  2  0  0  0  0
  3 36  1  0  0  0  0
  4  5  1  0  0  0  0
  4 31  1  0  0  0  0
  5  6  1  0  0  0  0
  5 30  2  0  0  0  0
  6  7  2  0  0  0  0
  6 37  1  0  0  0  0
  7  8  1  0  0  0  0
  8  9  2  0  0  0  0
  8 38  1  0  0  0  0
  9 10  1  0  0  0  0
  9 30  1  0  0  0  0
 10 11  1  0  0  0  0
 11 12  1  0  0  0  0
 11 29  2  0  0  0  0
 12 13  2  0  0  0  0
 12 39  1  0  0  0  0
 13 14  1  0  0  0  0
 13 40  1  0  0  0  0
 14 15  2  0  0  0  0
 14 41  1  0  0  0  0
 15 16  1  0  0  0  0
 15 29  1  0  0  0  0
 16 17  1  0  0  0  0
 16 42  1  0  0  0  0
 17 18  2  0  0  0  0
 17 19  1  0  0  0  0
 19 20  1  0  0  0  0
 19 43  1  0  0  0  0
 20 21  1  0  0  0  0
 20 28  2  0  0  0  0
 21 22  2  0  0  0  0
 21 44  1  0  0  0  0
 22 23  1  0  0  0  0
 22 27  1  0  0  0  0
 23 24  1  0  0  0  0
 23 25  1  0  0  0  0
 23 26  1  0  0  0  0
 24 45  1  0  0  0  0
 24 46  1  0  0  0  0
 24 47  1  0  0  0  0
 25 48  1  0  0  0  0
 25 49  1  0  0  0  0
 25 50  1  0  0  0  0
 26 51  1  0  0  0  0
 26 52  1  0  0  0  0
 26 53  1  0  0  0  0
 27 28  1  0  0  0  0
 29 54  1  0  0  0  0
 31 32  2  0  0  0  0
 31 55  1  0  0  0  0
M  END
$$$$
