CHEMBL3694661
 OpenBabel04072215373D

 36 39  0  0  0  0  0  0  0  0999 V2000
    1.8591   -1.6557   -0.9792 N   0  0  0  0  0  0  0  0  0  0  0  0
    2.9558   -0.8555   -0.8575 C   0  0  0  0  0  0  0  0  0  0  0  0
    3.2664   -0.1205   -1.7843 O   0  0  0  0  0  0  0  0  0  0  0  0
    3.5868   -1.0305    0.3470 N   0  0  0  0  0  0  0  0  0  0  0  0
    4.7457   -0.3592    0.7886 C   0  0  0  0  0  0  0  0  0  0  0  0
    5.2382    0.7847    0.1612 C   0  0  0  0  0  0  0  0  0  0  0  0
    6.4435    1.3462    0.5691 C   0  0  0  0  0  0  0  0  0  0  0  0
    7.1541    0.7772    1.6224 C   0  0  0  0  0  0  0  0  0  0  0  0
    6.6282   -0.2978    2.3525 C   0  0  0  0  0  0  0  0  0  0  0  0
    7.3142   -0.8202    3.5430 C   0  0  0  0  0  0  0  0  0  0  0  0
    7.4297   -2.1218    4.0090 C   0  0  0  0  0  0  0  0  0  0  0  0
    8.1600   -2.1984    5.1659 N   0  0  0  0  0  0  0  0  0  0  0  0
    8.5011   -0.9593    5.4427 C   0  0  0  0  0  0  0  0  0  0  0  0
    9.2657   -0.4222    6.5246 C   0  0  0  0  0  0  0  0  0  0  0  0
    9.4774    0.9134    6.6419 C   0  0  0  0  0  0  0  0  0  0  0  0
   10.2444    1.3722    7.7710 C   0  0  0  0  0  0  0  0  0  0  0  0
   11.1681    0.6999    8.4397 N   0  0  0  0  0  0  0  0  0  0  0  0
   11.7484    1.4269    9.4602 N   0  0  0  0  0  0  0  0  0  0  0  0
   11.2320    2.6301    9.5571 C   0  0  0  0  0  0  0  0  0  0  0  0
   10.0029    2.9700    8.4248 S   0  0  0  0  0  0  0  0  0  0  0  0
    8.9115    1.8054    5.6192 C   0  0  0  0  0  0  0  0  0  0  0  0
    8.1770    1.3097    4.6151 C   0  0  0  0  0  0  0  0  0  0  0  0
    7.9868   -0.0659    4.5047 N   0  0  0  0  0  0  0  0  0  0  0  0
    5.4266   -0.8743    1.9054 C   0  0  0  0  0  0  0  0  0  0  0  0
    1.3506   -1.4710   -1.8366 H   0  0  0  0  0  0  0  0  0  0  0  0
    1.2703   -1.7495   -0.1656 H   0  0  0  0  0  0  0  0  0  0  0  0
    3.3190   -1.8640    0.8490 H   0  0  0  0  0  0  0  0  0  0  0  0
    4.7110    1.2550   -0.6636 H   0  0  0  0  0  0  0  0  0  0  0  0
    6.8336    2.2201    0.0544 H   0  0  0  0  0  0  0  0  0  0  0  0
    8.1247    1.2007    1.8648 H   0  0  0  0  0  0  0  0  0  0  0  0
    7.0288   -3.0196    3.5549 H   0  0  0  0  0  0  0  0  0  0  0  0
    9.6521   -1.1325    7.2511 H   0  0  0  0  0  0  0  0  0  0  0  0
   11.5593    3.3484   10.2948 H   0  0  0  0  0  0  0  0  0  0  0  0
    9.0952    2.8735    5.6780 H   0  0  0  0  0  0  0  0  0  0  0  0
    7.7306    1.9582    3.8762 H   0  0  0  0  0  0  0  0  0  0  0  0
    5.0225   -1.7389    2.4268 H   0  0  0  0  0  0  0  0  0  0  0  0
  1  2  1  0  0  0  0
  1 25  1  0  0  0  0
  1 26  1  0  0  0  0
  2  3  2  0  0  0  0
  2  4  1  0  0  0  0
  4  5  1  0  0  0  0
  4 27  1  0  0  0  0
  5  6  1  0  0  0  0
  5 24  2  0  0  0  0
  6  7  2  0  0  0  0
  6 28  1  0  0  0  0
  7  8  1  0  0  0  0
  7 29  1  0  0  0  0
  8  9  2  0  0  0  0
  8 30  1  0  0  0  0
  9 10  1  0  0  0  0
  9 24  1  0  0  0  0
 10 11  2  0  0  0  0
 10 23  1  0  0  0  0
 11 12  1  0  0  0  0
 11 31  1  0  0  0  0
 12 13  2  0  0  0  0
 13 14  1  0  0  0  0
 13 23  1  0  0  0  0
 14 15  2  0  0  0  0
 14 32  1  0  0  0  0
 15 16  1  0  0  0  0
 15 21  1  0  0  0  0
 16 17  2  0  0  0  0
 16 20  1  0  0  0  0
 17 18  1  0  0  0  0
 18 19  2  0  0  0  0
 19 20  1  0  0  0  0
 19 33  1  0  0  0  0
 21 22  2  0  0  0  0
 21 34  1  0  0  0  0
 22 23  1  0  0  0  0
 22 35  1  0  0  0  0
 24 36  1  0  0  0  0
M  END
$$$$
