CHEMBL3942606
 OpenBabel04072215373D

 66 69  0  0  1  0  0  0  0  0999 V2000
    0.6784    0.1184    2.6162 C   0  0  0  0  0  0  0  0  0  0  0  0
    2.0460    0.0240    2.9724 O   0  0  0  0  0  0  0  0  0  0  0  0
    2.8706   -0.7053    2.1632 C   0  0  0  0  0  0  0  0  0  0  0  0
    2.5147   -1.6443    1.2282 C   0  0  0  0  0  0  0  0  0  0  0  0
    3.5248   -2.3008    0.5106 C   0  0  0  0  0  0  0  0  0  0  0  0
    3.2501   -3.2531   -0.4487 O   0  0  0  0  0  0  0  0  0  0  0  0
    1.8724   -3.3994   -0.8149 C   0  0  0  0  0  0  0  0  0  0  0  0
    4.9055   -1.9976    0.7356 C   0  0  0  0  0  0  0  0  0  0  0  0
    5.2994   -1.0106    1.6634 C   0  0  0  0  0  0  0  0  0  0  0  0
    6.7058   -0.5607    1.8309 N   0  0  0  0  0  0  0  0  0  0  0  0
    7.0430    0.7581    2.3346 C   0  0  0  0  0  0  0  0  0  0  0  0
    6.3075    1.2742    3.3646 C   0  0  0  0  0  0  0  0  0  0  0  0
    5.8157    2.5592    3.2662 C   0  0  0  0  0  0  0  0  0  0  0  0
    6.4731    3.4732    2.5122 C   0  0  0  0  0  0  0  0  0  0  0  0
    5.8978    4.6780    2.4965 N   0  0  0  0  0  0  0  0  0  0  0  0
    6.7103    5.6913    2.2139 C   0  0  0  0  0  0  0  0  0  0  0  0
    8.0632    5.5029    2.0113 C   0  0  0  0  0  0  0  0  0  0  0  0
    8.8817    6.6881    2.2203 C   0  0  0  0  0  0  0  0  0  0  0  0
    9.5740    7.1291    3.3816 C   0  0  0  0  0  0  0  0  0  0  0  0
    9.9689    8.4078    3.2973 N   0  0  0  0  0  0  0  0  0  0  0  0
    9.5096    8.7954    2.0956 N   0  0  0  0  0  0  0  0  0  0  0  0
    9.9245   10.0472    1.5091 C   0  0  0  0  0  0  0  0  0  0  0  0
    8.7240    7.8550    1.4940 C   0  0  0  0  0  0  0  0  0  0  0  0
    8.5927    4.2404    1.8090 N   0  0  0  0  0  0  0  0  0  0  0  0
    7.7386    3.1514    2.0048 C   0  0  0  0  0  0  0  0  0  0  0  0
    7.9197    1.7135    1.7660 C   0  0  0  0  0  0  0  0  0  0  0  0
    7.5109   -1.6964    2.4261 C   0  0  3  0  0  0  0  0  0  0  0  0
    8.9218   -1.7336    1.8213 C   0  0  0  0  0  0  0  0  0  0  0  0
    7.6330   -1.6899    3.9854 C   0  0  0  0  0  0  0  0  0  0  0  0
    6.3562   -1.7601    4.7171 N   0  0  0  0  0  0  0  0  0  0  0  0
    6.4939   -1.6541    6.1680 C   0  0  0  0  0  0  0  0  0  0  0  0
    7.1029   -0.3234    6.6176 C   0  0  0  0  0  0  0  0  0  0  0  0
    5.1028   -1.7997    6.7926 C   0  0  0  0  0  0  0  0  0  0  0  0
    4.2224   -0.4333    2.3641 C   0  0  0  0  0  0  0  0  0  0  0  0
    0.2453    0.9354    3.2035 H   0  0  0  0  0  0  0  0  0  0  0  0
    0.1546   -0.8032    2.8819 H   0  0  0  0  0  0  0  0  0  0  0  0
    0.5456    0.3653    1.5585 H   0  0  0  0  0  0  0  0  0  0  0  0
    1.4665   -1.8619    1.0783 H   0  0  0  0  0  0  0  0  0  0  0  0
    1.8092   -4.0706   -1.6760 H   0  0  0  0  0  0  0  0  0  0  0  0
    1.4300   -2.4419   -1.1181 H   0  0  0  0  0  0  0  0  0  0  0  0
    1.2921   -3.8516   -0.0008 H   0  0  0  0  0  0  0  0  0  0  0  0
    5.6488   -2.5254    0.1434 H   0  0  0  0  0  0  0  0  0  0  0  0
    5.8551    0.6307    4.1047 H   0  0  0  0  0  0  0  0  0  0  0  0
    4.9213    2.8533    3.8060 H   0  0  0  0  0  0  0  0  0  0  0  0
    6.2555    6.6740    2.2670 H   0  0  0  0  0  0  0  0  0  0  0  0
    9.7686    6.5963    4.3051 H   0  0  0  0  0  0  0  0  0  0  0  0
   10.5946   10.5776    2.1897 H   0  0  0  0  0  0  0  0  0  0  0  0
    9.0424   10.6540    1.2907 H   0  0  0  0  0  0  0  0  0  0  0  0
   10.4552    9.8048    0.5841 H   0  0  0  0  0  0  0  0  0  0  0  0
    8.1435    8.0876    0.6128 H   0  0  0  0  0  0  0  0  0  0  0  0
    8.7445    1.3983    1.1301 H   0  0  0  0  0  0  0  0  0  0  0  0
    7.0620   -2.6615    2.1518 H   0  0  0  0  0  0  0  0  0  0  0  0
    9.4918   -0.8276    2.0488 H   0  0  0  0  0  0  0  0  0  0  0  0
    8.8971   -1.8768    0.7432 H   0  0  0  0  0  0  0  0  0  0  0  0
    9.4882   -2.5769    2.2461 H   0  0  0  0  0  0  0  0  0  0  0  0
    8.1864   -0.7943    4.2678 H   0  0  0  0  0  0  0  0  0  0  0  0
    8.2475   -2.5457    4.2940 H   0  0  0  0  0  0  0  0  0  0  0  0
    5.8558   -2.6116    4.4606 H   0  0  0  0  0  0  0  0  0  0  0  0
    7.1216   -2.4793    6.5415 H   0  0  0  0  0  0  0  0  0  0  0  0
    6.5373    0.5293    6.2287 H   0  0  0  0  0  0  0  0  0  0  0  0
    8.1428   -0.2195    6.2931 H   0  0  0  0  0  0  0  0  0  0  0  0
    7.1025   -0.2419    7.7096 H   0  0  0  0  0  0  0  0  0  0  0  0
    4.4238   -1.0152    6.4392 H   0  0  0  0  0  0  0  0  0  0  0  0
    5.1581   -1.7254    7.8838 H   0  0  0  0  0  0  0  0  0  0  0  0
    4.6544   -2.7688    6.5487 H   0  0  0  0  0  0  0  0  0  0  0  0
    4.3397    0.2768    3.1553 H   0  0  0  0  0  0  0  0  0  0  0  0
  1  2  1  0  0  0  0
  1 35  1  0  0  0  0
  1 36  1  0  0  0  0
  1 37  1  0  0  0  0
  2  3  1  0  0  0  0
  3  4  1  0  0  0  0
  3 34  2  0  0  0  0
  4  5  2  0  0  0  0
  4 38  1  0  0  0  0
  5  6  1  0  0  0  0
  5  8  1  0  0  0  0
  6  7  1  0  0  0  0
  7 39  1  0  0  0  0
  7 40  1  0  0  0  0
  7 41  1  0  0  0  0
  8  9  2  0  0  0  0
  8 42  1  0  0  0  0
  9 10  1  0  0  0  0
  9 34  1  0  0  0  0
 10 11  1  0  0  0  0
 10 27  1  0  0  0  0
 11 12  1  0  0  0  0
 11 26  2  0  0  0  0
 12 13  2  0  0  0  0
 12 43  1  0  0  0  0
 13 14  1  0  0  0  0
 13 44  1  0  0  0  0
 14 15  1  0  0  0  0
 14 25  2  0  0  0  0
 15 16  2  0  0  0  0
 16 17  1  0  0  0  0
 16 45  1  0  0  0  0
 17 18  1  0  0  0  0
 17 24  2  0  0  0  0
 18 19  1  0  0  0  0
 18 23  2  0  0  0  0
 19 20  2  0  0  0  0
 19 46  1  0  0  0  0
 20 21  1  0  0  0  0
 21 22  1  0  0  0  0
 21 23  1  0  0  0  0
 22 47  1  0  0  0  0
 22 48  1  0  0  0  0
 22 49  1  0  0  0  0
 23 50  1  0  0  0  0
 24 25  1  0  0  0  0
 25 26  1  0  0  0  0
 26 51  1  0  0  0  0
 27 28  1  0  0  0  0
 27 29  1  0  0  0  0
 27 52  1  0  0  0  0
 28 53  1  0  0  0  0
 28 54  1  0  0  0  0
 28 55  1  0  0  0  0
 29 30  1  0  0  0  0
 29 56  1  0  0  0  0
 29 57  1  0  0  0  0
 30 31  1  0  0  0  0
 30 58  1  0  0  0  0
 31 32  1  0  0  0  0
 31 33  1  0  0  0  0
 31 59  1  0  0  0  0
 32 60  1  0  0  0  0
 32 61  1  0  0  0  0
 32 62  1  0  0  0  0
 33 63  1  0  0  0  0
 33 64  1  0  0  0  0
 33 65  1  0  0  0  0
 34 66  1  0  0  0  0
M  END
$$$$
