CHEMBL261508
 OpenBabel04072215363D

 59 60  0  0  0  0  0  0  0  0999 V2000
    3.5328    0.3894   -1.2586 C   0  0  0  0  0  0  0  0  0  0  0  0
    2.5056    0.1527   -0.1516 C   0  0  0  0  0  0  0  0  0  0  0  0
    1.1054   -0.0364   -0.7519 C   0  0  0  0  0  0  0  0  0  0  0  0
    2.9099   -0.9884    0.7809 C   0  0  0  0  0  0  0  0  0  0  0  0
    2.5950   -2.3254    0.4691 C   0  0  0  0  0  0  0  0  0  0  0  0
    2.8396   -3.3602    1.3771 C   0  0  0  0  0  0  0  0  0  0  0  0
    2.4895   -4.7550    1.0276 C   0  0  0  0  0  0  0  0  0  0  0  0
    3.3459   -5.6445    0.4732 C   0  0  0  0  0  0  0  0  0  0  0  0
    4.7717   -5.1925    0.2028 C   0  0  0  0  0  0  0  0  0  0  0  0
    5.9546   -4.8176   -0.0216 N   0  0  0  0  0  0  0  0  0  0  0  0
    2.8664   -7.0190    0.1490 C   0  0  0  0  0  0  0  0  0  0  0  0
    1.7080   -7.3554    0.3854 O   0  0  0  0  0  0  0  0  0  0  0  0
    3.7805   -7.8747   -0.4215 N   0  0  0  0  0  0  0  0  0  0  0  0
    3.4186   -9.2339   -0.7916 C   0  0  0  0  0  0  0  0  0  0  0  0
    2.8604   -9.3108   -2.2139 C   0  0  0  0  0  0  0  0  0  0  0  0
    2.4748  -10.7506   -2.5726 C   0  0  0  0  0  0  0  0  0  0  0  0
    1.8828  -10.8980   -3.9556 C   0  0  0  0  0  0  0  0  0  0  0  0
    2.5029  -11.7127   -4.9141 C   0  0  0  0  0  0  0  0  0  0  0  0
    1.9254  -11.8965   -6.1729 C   0  0  0  0  0  0  0  0  0  0  0  0
    0.7226  -11.2687   -6.4886 C   0  0  0  0  0  0  0  0  0  0  0  0
    0.0977  -10.4529   -5.5468 C   0  0  0  0  0  0  0  0  0  0  0  0
    0.6736  -10.2708   -4.2835 C   0  0  0  0  0  0  0  0  0  0  0  0
    3.4358   -3.0573    2.6095 C   0  0  0  0  0  0  0  0  0  0  0  0
    3.8519   -1.7464    2.9321 C   0  0  0  0  0  0  0  0  0  0  0  0
    4.5649   -1.4630    4.2542 C   0  0  0  0  0  0  0  0  0  0  0  0
    3.5665   -1.0208    5.3297 C   0  0  0  0  0  0  0  0  0  0  0  0
    5.4121   -2.6274    4.7878 C   0  0  0  0  0  0  0  0  0  0  0  0
    3.5714   -0.7254    1.9974 C   0  0  0  0  0  0  0  0  0  0  0  0
    3.9317    0.5790    2.2248 O   0  0  0  0  0  0  0  0  0  0  0  0
    3.2011    1.1941   -1.9256 H   0  0  0  0  0  0  0  0  0  0  0  0
    3.6895   -0.5077   -1.8664 H   0  0  0  0  0  0  0  0  0  0  0  0
    4.5004    0.6882   -0.8412 H   0  0  0  0  0  0  0  0  0  0  0  0
    2.4385    1.0767    0.4366 H   0  0  0  0  0  0  0  0  0  0  0  0
    1.0656   -0.8754   -1.4540 H   0  0  0  0  0  0  0  0  0  0  0  0
    0.7987    0.8606   -1.3011 H   0  0  0  0  0  0  0  0  0  0  0  0
    0.3647   -0.2149    0.0357 H   0  0  0  0  0  0  0  0  0  0  0  0
    2.1372   -2.5627   -0.4879 H   0  0  0  0  0  0  0  0  0  0  0  0
    1.4576   -5.0304    1.2392 H   0  0  0  0  0  0  0  0  0  0  0  0
    4.7173   -7.5669   -0.6521 H   0  0  0  0  0  0  0  0  0  0  0  0
    2.6829   -9.6169   -0.0743 H   0  0  0  0  0  0  0  0  0  0  0  0
    4.3244   -9.8422   -0.7003 H   0  0  0  0  0  0  0  0  0  0  0  0
    3.6086   -8.9359   -2.9235 H   0  0  0  0  0  0  0  0  0  0  0  0
    1.9923   -8.6468   -2.3004 H   0  0  0  0  0  0  0  0  0  0  0  0
    1.7463  -11.1382   -1.8501 H   0  0  0  0  0  0  0  0  0  0  0  0
    3.3624  -11.3898   -2.4830 H   0  0  0  0  0  0  0  0  0  0  0  0
    3.4359  -12.2223   -4.6852 H   0  0  0  0  0  0  0  0  0  0  0  0
    2.4093  -12.5397   -6.9042 H   0  0  0  0  0  0  0  0  0  0  0  0
    0.2688  -11.4199   -7.4642 H   0  0  0  0  0  0  0  0  0  0  0  0
   -0.8429   -9.9649   -5.7902 H   0  0  0  0  0  0  0  0  0  0  0  0
    0.1597   -9.6457   -3.5589 H   0  0  0  0  0  0  0  0  0  0  0  0
    3.5803   -3.8628    3.3224 H   0  0  0  0  0  0  0  0  0  0  0  0
    5.2800   -0.6458    4.0932 H   0  0  0  0  0  0  0  0  0  0  0  0
    2.7729   -1.7628    5.4703 H   0  0  0  0  0  0  0  0  0  0  0  0
    3.0906   -0.0703    5.0660 H   0  0  0  0  0  0  0  0  0  0  0  0
    4.0683   -0.8785    6.2938 H   0  0  0  0  0  0  0  0  0  0  0  0
    4.7999   -3.4887    5.0738 H   0  0  0  0  0  0  0  0  0  0  0  0
    5.9658   -2.3200    5.6823 H   0  0  0  0  0  0  0  0  0  0  0  0
    6.1425   -2.9557    4.0404 H   0  0  0  0  0  0  0  0  0  0  0  0
    4.0996    0.7188    3.1675 H   0  0  0  0  0  0  0  0  0  0  0  0
  1  2  1  0  0  0  0
  1 30  1  0  0  0  0
  1 31  1  0  0  0  0
  1 32  1  0  0  0  0
  2  3  1  0  0  0  0
  2  4  1  0  0  0  0
  2 33  1  0  0  0  0
  3 34  1  0  0  0  0
  3 35  1  0  0  0  0
  3 36  1  0  0  0  0
  4  5  1  0  0  0  0
  4 28  2  0  0  0  0
  5  6  2  0  0  0  0
  5 37  1  0  0  0  0
  6  7  1  0  0  0  0
  6 23  1  0  0  0  0
  7  8  2  0  0  0  0
  7 38  1  0  0  0  0
  8  9  1  0  0  0  0
  8 11  1  0  0  0  0
  9 10  3  0  0  0  0
 11 12  2  0  0  0  0
 11 13  1  0  0  0  0
 13 14  1  0  0  0  0
 13 39  1  0  0  0  0
 14 15  1  0  0  0  0
 14 40  1  0  0  0  0
 14 41  1  0  0  0  0
 15 16  1  0  0  0  0
 15 42  1  0  0  0  0
 15 43  1  0  0  0  0
 16 17  1  0  0  0  0
 16 44  1  0  0  0  0
 16 45  1  0  0  0  0
 17 18  1  0  0  0  0
 17 22  2  0  0  0  0
 18 19  2  0  0  0  0
 18 46  1  0  0  0  0
 19 20  1  0  0  0  0
 19 47  1  0  0  0  0
 20 21  2  0  0  0  0
 20 48  1  0  0  0  0
 21 22  1  0  0  0  0
 21 49  1  0  0  0  0
 22 50  1  0  0  0  0
 23 24  2  0  0  0  0
 23 51  1  0  0  0  0
 24 25  1  0  0  0  0
 24 28  1  0  0  0  0
 25 26  1  0  0  0  0
 25 27  1  0  0  0  0
 25 52  1  0  0  0  0
 26 53  1  0  0  0  0
 26 54  1  0  0  0  0
 26 55  1  0  0  0  0
 27 56  1  0  0  0  0
 27 57  1  0  0  0  0
 27 58  1  0  0  0  0
 28 29  1  0  0  0  0
 29 59  1  0  0  0  0
M  END
$$$$
