CHEMBL2000568
 OpenBabel04072215363D

 30 32  0  0  0  0  0  0  0  0999 V2000
    1.2410   -0.6290    0.2783 C   0  0  0  0  0  0  0  0  0  0  0  0
    2.5380    0.0872    0.0113 C   0  0  0  0  0  0  0  0  0  0  0  0
    2.9687    0.2174   -1.1309 O   0  0  0  0  0  0  0  0  0  0  0  0
    3.3035    0.6452    1.1662 C   0  0  0  0  0  0  0  0  0  0  0  0
    2.8111    0.6192    2.4730 C   0  0  0  0  0  0  0  0  0  0  0  0
    3.5804    1.1383    3.5124 C   0  0  0  0  0  0  0  0  0  0  0  0
    4.8438    1.6755    3.2511 C   0  0  0  0  0  0  0  0  0  0  0  0
    5.3765    1.7034    1.9495 C   0  0  0  0  0  0  0  0  0  0  0  0
    6.7392    2.2128    1.6823 C   0  0  0  0  0  0  0  0  0  0  0  0
    7.0713    2.8776    0.4919 C   0  0  0  0  0  0  0  0  0  0  0  0
    8.2889    3.3628    0.1321 N   0  0  0  0  0  0  0  0  0  0  0  0
    9.2244    3.1521    1.0721 C   0  0  0  0  0  0  0  0  0  0  0  0
   10.5304    3.5415    0.9659 N   0  0  0  0  0  0  0  0  0  0  0  0
   11.2148    3.1840    2.1002 C   0  0  0  0  0  0  0  0  0  0  0  0
   10.3302    2.5423    2.9432 C   0  0  0  0  0  0  0  0  0  0  0  0
    9.0645    2.5202    2.2976 C   0  0  0  0  0  0  0  0  0  0  0  0
    7.7849    2.0307    2.6065 C   0  0  0  0  0  0  0  0  0  0  0  0
    4.5718    1.1930    0.9148 C   0  0  0  0  0  0  0  0  0  0  0  0
    0.8921   -1.0956   -0.6480 H   0  0  0  0  0  0  0  0  0  0  0  0
    0.4833    0.0821    0.6164 H   0  0  0  0  0  0  0  0  0  0  0  0
    1.3871   -1.4239    1.0146 H   0  0  0  0  0  0  0  0  0  0  0  0
    1.8375    0.2016    2.7104 H   0  0  0  0  0  0  0  0  0  0  0  0
    3.2026    1.1203    4.5324 H   0  0  0  0  0  0  0  0  0  0  0  0
    5.4116    2.0774    4.0889 H   0  0  0  0  0  0  0  0  0  0  0  0
    6.3110    3.0600   -0.2664 H   0  0  0  0  0  0  0  0  0  0  0  0
   10.9047    4.0209    0.1607 H   0  0  0  0  0  0  0  0  0  0  0  0
   12.2658    3.4135    2.2066 H   0  0  0  0  0  0  0  0  0  0  0  0
   10.5685    2.1380    3.9182 H   0  0  0  0  0  0  0  0  0  0  0  0
    7.6294    1.5092    3.5453 H   0  0  0  0  0  0  0  0  0  0  0  0
    4.9415    1.1880   -0.1103 H   0  0  0  0  0  0  0  0  0  0  0  0
  1  2  1  0  0  0  0
  1 19  1  0  0  0  0
  1 20  1  0  0  0  0
  1 21  1  0  0  0  0
  2  3  2  0  0  0  0
  2  4  1  0  0  0  0
  4  5  1  0  0  0  0
  4 18  2  0  0  0  0
  5  6  2  0  0  0  0
  5 22  1  0  0  0  0
  6  7  1  0  0  0  0
  6 23  1  0  0  0  0
  7  8  2  0  0  0  0
  7 24  1  0  0  0  0
  8  9  1  0  0  0  0
  8 18  1  0  0  0  0
  9 10  1  0  0  0  0
  9 17  2  0  0  0  0
 10 11  2  0  0  0  0
 10 25  1  0  0  0  0
 11 12  1  0  0  0  0
 12 13  1  0  0  0  0
 12 16  2  0  0  0  0
 13 14  1  0  0  0  0
 13 26  1  0  0  0  0
 14 15  2  0  0  0  0
 14 27  1  0  0  0  0
 15 16  1  0  0  0  0
 15 28  1  0  0  0  0
 16 17  1  0  0  0  0
 17 29  1  0  0  0  0
 18 30  1  0  0  0  0
M  END
$$$$
