CHEMBL3690395
 OpenBabel04072215373D

 45 48  0  0  0  0  0  0  0  0999 V2000
    2.4128    1.5659   -0.4916 O   0  0  0  0  0  0  0  0  0  0  0  0
    2.1217    0.6495    0.2653 C   0  0  0  0  0  0  0  0  0  0  0  0
    0.8174    0.2173    0.3860 N   0  0  0  0  0  0  0  0  0  0  0  0
   -0.2399    0.9820   -0.2882 C   0  0  0  0  0  0  0  0  0  0  0  0
   -0.7069    2.2441    0.4520 C   0  0  0  0  0  0  0  0  0  0  0  0
   -0.1058    2.3750    1.6579 F   0  0  0  0  0  0  0  0  0  0  0  0
   -0.4830    3.3701   -0.2548 F   0  0  0  0  0  0  0  0  0  0  0  0
   -2.0409    2.1724    0.6892 F   0  0  0  0  0  0  0  0  0  0  0  0
    2.9763   -0.0803    1.0625 N   0  0  0  0  0  0  0  0  0  0  0  0
    4.3801    0.0539    1.1504 C   0  0  0  0  0  0  0  0  0  0  0  0
    5.1129    0.9374    0.3581 C   0  0  0  0  0  0  0  0  0  0  0  0
    6.5027    0.9650    0.4297 C   0  0  0  0  0  0  0  0  0  0  0  0
    7.1725    0.1321    1.3215 C   0  0  0  0  0  0  0  0  0  0  0  0
    6.4643   -0.6815    2.2130 C   0  0  0  0  0  0  0  0  0  0  0  0
    7.1526   -1.4239    3.2807 C   0  0  0  0  0  0  0  0  0  0  0  0
    6.8843   -2.6745    3.8146 C   0  0  0  0  0  0  0  0  0  0  0  0
    7.7273   -2.9928    4.8466 N   0  0  0  0  0  0  0  0  0  0  0  0
    8.5233   -1.9536    4.9784 C   0  0  0  0  0  0  0  0  0  0  0  0
    9.5815   -1.7014    5.9046 C   0  0  0  0  0  0  0  0  0  0  0  0
   10.2694   -0.5336    5.8863 C   0  0  0  0  0  0  0  0  0  0  0  0
   11.3339   -0.2880    6.8948 C   0  0  0  0  0  0  0  0  0  0  0  0
   11.6404    1.0003    7.3430 C   0  0  0  0  0  0  0  0  0  0  0  0
   12.6174    1.2733    8.2422 N   0  0  0  0  0  0  0  0  0  0  0  0
   13.2859    0.1954    8.6997 C   0  0  0  0  0  0  0  0  0  0  0  0
   12.9866   -1.0899    8.2806 C   0  0  0  0  0  0  0  0  0  0  0  0
   12.0104   -1.3605    7.3782 N   0  0  0  0  0  0  0  0  0  0  0  0
    9.9310    0.4656    4.8604 C   0  0  0  0  0  0  0  0  0  0  0  0
    8.9160    0.2496    4.0119 C   0  0  0  0  0  0  0  0  0  0  0  0
    8.2157   -0.9574    4.0528 N   0  0  0  0  0  0  0  0  0  0  0  0
    5.0641   -0.7483    2.0810 C   0  0  0  0  0  0  0  0  0  0  0  0
    0.5669   -0.2075    1.2668 H   0  0  0  0  0  0  0  0  0  0  0  0
   -1.0821    0.2950   -0.4144 H   0  0  0  0  0  0  0  0  0  0  0  0
    0.1062    1.2576   -1.2919 H   0  0  0  0  0  0  0  0  0  0  0  0
    2.5606   -0.8172    1.6113 H   0  0  0  0  0  0  0  0  0  0  0  0
    4.6359    1.6068   -0.3499 H   0  0  0  0  0  0  0  0  0  0  0  0
    7.0616    1.6391   -0.2140 H   0  0  0  0  0  0  0  0  0  0  0  0
    8.2588    0.1456    1.3131 H   0  0  0  0  0  0  0  0  0  0  0  0
    6.1159   -3.3706    3.5046 H   0  0  0  0  0  0  0  0  0  0  0  0
    9.7870   -2.4724    6.6412 H   0  0  0  0  0  0  0  0  0  0  0  0
   11.0984    1.8735    6.9925 H   0  0  0  0  0  0  0  0  0  0  0  0
   14.0745    0.3922    9.4168 H   0  0  0  0  0  0  0  0  0  0  0  0
   13.5312   -1.9471    8.6598 H   0  0  0  0  0  0  0  0  0  0  0  0
   10.5101    1.3804    4.7859 H   0  0  0  0  0  0  0  0  0  0  0  0
    8.6349    0.9913    3.2817 H   0  0  0  0  0  0  0  0  0  0  0  0
    4.5017   -1.4129    2.7323 H   0  0  0  0  0  0  0  0  0  0  0  0
  1  2  2  0  0  0  0
  2  3  1  0  0  0  0
  2  9  1  0  0  0  0
  3  4  1  0  0  0  0
  3 31  1  0  0  0  0
  4  5  1  0  0  0  0
  4 32  1  0  0  0  0
  4 33  1  0  0  0  0
  5  6  1  0  0  0  0
  5  7  1  0  0  0  0
  5  8  1  0  0  0  0
  9 10  1  0  0  0  0
  9 34  1  0  0  0  0
 10 11  1  0  0  0  0
 10 30  2  0  0  0  0
 11 12  2  0  0  0  0
 11 35  1  0  0  0  0
 12 13  1  0  0  0  0
 12 36  1  0  0  0  0
 13 14  2  0  0  0  0
 13 37  1  0  0  0  0
 14 15  1  0  0  0  0
 14 30  1  0  0  0  0
 15 16  2  0  0  0  0
 15 29  1  0  0  0  0
 16 17  1  0  0  0  0
 16 38  1  0  0  0  0
 17 18  2  0  0  0  0
 18 19  1  0  0  0  0
 18 29  1  0  0  0  0
 19 20  2  0  0  0  0
 19 39  1  0  0  0  0
 20 21  1  0  0  0  0
 20 27  1  0  0  0  0
 21 22  1  0  0  0  0
 21 26  2  0  0  0  0
 22 23  2  0  0  0  0
 22 40  1  0  0  0  0
 23 24  1  0  0  0  0
 24 25  2  0  0  0  0
 24 41  1  0  0  0  0
 25 26  1  0  0  0  0
 25 42  1  0  0  0  0
 27 28  2  0  0  0  0
 27 43  1  0  0  0  0
 28 29  1  0  0  0  0
 28 44  1  0  0  0  0
 30 45  1  0  0  0  0
M  END
$$$$
