CHEMBL3925322
 OpenBabel04072215373D

 58 61  0  0  1  0  0  0  0  0999 V2000
    0.5711   -1.2807    1.5119 C   0  0  0  0  0  0  0  0  0  0  0  0
    1.8979   -0.9474    1.1225 O   0  0  0  0  0  0  0  0  0  0  0  0
    2.8062   -0.7042    2.1284 C   0  0  0  0  0  0  0  0  0  0  0  0
    3.8362    0.1324    1.9036 C   0  0  0  0  0  0  0  0  0  0  0  0
    4.9730    0.3042    2.8902 C   0  0  3  0  0  0  0  0  0  0  0  0
    6.0858   -0.6390    2.5388 N   0  0  0  0  0  0  0  0  0  0  0  0
    6.4877   -0.7688    1.1045 C   0  0  0  0  0  0  0  0  0  0  0  0
    6.1131   -2.1263    0.4704 C   0  0  0  0  0  0  0  0  0  0  0  0
    4.7244   -2.2864    0.2187 O   0  0  0  0  0  0  0  0  0  0  0  0
    7.1530   -0.8360    3.4363 C   0  0  0  0  0  0  0  0  0  0  0  0
    7.8344   -2.0577    3.4237 C   0  0  0  0  0  0  0  0  0  0  0  0
    8.7974   -2.3757    4.3761 C   0  0  0  0  0  0  0  0  0  0  0  0
    9.1259   -1.4848    5.3719 C   0  0  0  0  0  0  0  0  0  0  0  0
   10.0014   -1.8832    6.3041 N   0  0  0  0  0  0  0  0  0  0  0  0
   10.3062   -0.9752    7.2508 C   0  0  0  0  0  0  0  0  0  0  0  0
    9.7813    0.3099    7.2598 C   0  0  0  0  0  0  0  0  0  0  0  0
   10.2422    1.2924    8.2207 C   0  0  0  0  0  0  0  0  0  0  0  0
   11.5431    1.3220    8.6905 C   0  0  0  0  0  0  0  0  0  0  0  0
   11.6246    2.3778    9.5407 N   0  0  0  0  0  0  0  0  0  0  0  0
   12.7923    2.8067   10.2733 C   0  0  0  0  0  0  0  0  0  0  0  0
   10.4686    3.0413    9.6765 N   0  0  0  0  0  0  0  0  0  0  0  0
    9.5982    2.3948    8.8607 C   0  0  0  0  0  0  0  0  0  0  0  0
    8.1629    2.8464    8.7581 C   0  0  0  0  0  0  0  0  0  0  0  0
    7.3587    2.0172    8.0437 F   0  0  0  0  0  0  0  0  0  0  0  0
    7.5791    2.9391    9.9892 F   0  0  0  0  0  0  0  0  0  0  0  0
    8.0515    4.0791    8.1899 F   0  0  0  0  0  0  0  0  0  0  0  0
    8.8842    0.7110    6.3277 N   0  0  0  0  0  0  0  0  0  0  0  0
    8.5332   -0.1986    5.3823 C   0  0  0  0  0  0  0  0  0  0  0  0
    7.5708    0.0973    4.4048 C   0  0  0  0  0  0  0  0  0  0  0  0
    4.3888    0.0602    4.3250 C   0  0  0  0  0  0  0  0  0  0  0  0
    3.5355   -1.1805    4.3958 C   0  0  0  0  0  0  0  0  0  0  0  0
    3.5762   -2.0271    5.4871 O   0  0  0  0  0  0  0  0  0  0  0  0
    3.8604   -1.4201    6.7412 C   0  0  0  0  0  0  0  0  0  0  0  0
    2.8016   -1.5231    3.3232 C   0  0  0  0  0  0  0  0  0  0  0  0
   -0.0140   -1.4254    0.5970 H   0  0  0  0  0  0  0  0  0  0  0  0
    0.1195   -0.4655    2.0849 H   0  0  0  0  0  0  0  0  0  0  0  0
    0.5275   -2.2201    2.0683 H   0  0  0  0  0  0  0  0  0  0  0  0
    3.8777    0.6783    0.9675 H   0  0  0  0  0  0  0  0  0  0  0  0
    5.3410    1.3382    2.8241 H   0  0  0  0  0  0  0  0  0  0  0  0
    7.5759   -0.6437    1.0072 H   0  0  0  0  0  0  0  0  0  0  0  0
    6.0529    0.0434    0.5103 H   0  0  0  0  0  0  0  0  0  0  0  0
    6.4255   -2.9815    1.0700 H   0  0  0  0  0  0  0  0  0  0  0  0
    6.6113   -2.2132   -0.4988 H   0  0  0  0  0  0  0  0  0  0  0  0
    4.3011   -2.3693    1.0936 H   0  0  0  0  0  0  0  0  0  0  0  0
    7.5954   -2.8248    2.6990 H   0  0  0  0  0  0  0  0  0  0  0  0
    9.2733   -3.3503    4.3528 H   0  0  0  0  0  0  0  0  0  0  0  0
   11.0060   -1.3216    8.0034 H   0  0  0  0  0  0  0  0  0  0  0  0
   12.4049    0.7020    8.4806 H   0  0  0  0  0  0  0  0  0  0  0  0
   13.6455    2.1813    9.9948 H   0  0  0  0  0  0  0  0  0  0  0  0
   12.5851    2.6954   11.3421 H   0  0  0  0  0  0  0  0  0  0  0  0
   12.9967    3.8487   10.0238 H   0  0  0  0  0  0  0  0  0  0  0  0
    7.1275    1.0901    4.4401 H   0  0  0  0  0  0  0  0  0  0  0  0
    3.7580    0.9206    4.5957 H   0  0  0  0  0  0  0  0  0  0  0  0
    5.1802    0.0382    5.0716 H   0  0  0  0  0  0  0  0  0  0  0  0
    3.6215   -2.1476    7.5225 H   0  0  0  0  0  0  0  0  0  0  0  0
    3.2445   -0.5300    6.9030 H   0  0  0  0  0  0  0  0  0  0  0  0
    4.9249   -1.1816    6.8290 H   0  0  0  0  0  0  0  0  0  0  0  0
    2.2508   -2.4577    3.3357 H   0  0  0  0  0  0  0  0  0  0  0  0
  1  2  1  0  0  0  0
  1 35  1  0  0  0  0
  1 36  1  0  0  0  0
  1 37  1  0  0  0  0
  2  3  1  0  0  0  0
  3  4  2  0  0  0  0
  3 34  1  0  0  0  0
  4  5  1  0  0  0  0
  4 38  1  0  0  0  0
  5  6  1  0  0  0  0
  5 30  1  0  0  0  0
  5 39  1  0  0  0  0
  6  7  1  0  0  0  0
  6 10  1  0  0  0  0
  7  8  1  0  0  0  0
  7 40  1  0  0  0  0
  7 41  1  0  0  0  0
  8  9  1  0  0  0  0
  8 42  1  0  0  0  0
  8 43  1  0  0  0  0
  9 44  1  0  0  0  0
 10 11  1  0  0  0  0
 10 29  2  0  0  0  0
 11 12  2  0  0  0  0
 11 45  1  0  0  0  0
 12 13  1  0  0  0  0
 12 46  1  0  0  0  0
 13 14  1  0  0  0  0
 13 28  2  0  0  0  0
 14 15  2  0  0  0  0
 15 16  1  0  0  0  0
 15 47  1  0  0  0  0
 16 17  1  0  0  0  0
 16 27  2  0  0  0  0
 17 18  2  0  0  0  0
 17 22  1  0  0  0  0
 18 19  1  0  0  0  0
 18 48  1  0  0  0  0
 19 20  1  0  0  0  0
 19 21  1  0  0  0  0
 20 49  1  0  0  0  0
 20 50  1  0  0  0  0
 20 51  1  0  0  0  0
 21 22  2  0  0  0  0
 22 23  1  0  0  0  0
 23 24  1  0  0  0  0
 23 25  1  0  0  0  0
 23 26  1  0  0  0  0
 27 28  1  0  0  0  0
 28 29  1  0  0  0  0
 29 52  1  0  0  0  0
 30 31  1  0  0  0  0
 30 53  1  0  0  0  0
 30 54  1  0  0  0  0
 31 32  1  0  0  0  0
 31 34  2  0  0  0  0
 32 33  1  0  0  0  0
 33 55  1  0  0  0  0
 33 56  1  0  0  0  0
 33 57  1  0  0  0  0
 34 58  1  0  0  0  0
M  END
$$$$
