CHEMBL256767
 OpenBabel04072215363D

 54 58  0  0  0  0  0  0  0  0999 V2000
    3.7789    0.7514    1.5633 O   0  0  0  0  0  0  0  0  0  0  0  0
    3.0556    1.7122    1.8251 C   0  0  0  0  0  0  0  0  0  0  0  0
    1.7187    1.5570    2.5283 C   0  0  0  0  0  0  0  0  0  0  0  0
    1.6962    1.7071    4.0334 C   0  0  0  0  0  0  0  0  0  0  0  0
    0.5293    2.2114    4.6379 C   0  0  0  0  0  0  0  0  0  0  0  0
    0.3897    2.2417    6.0267 C   0  0  0  0  0  0  0  0  0  0  0  0
    1.4115    1.7639    6.8376 C   0  0  0  0  0  0  0  0  0  0  0  0
    2.5771    1.2643    6.2577 C   0  0  0  0  0  0  0  0  0  0  0  0
    2.7185    1.2301    4.8624 C   0  0  0  0  0  0  0  0  0  0  0  0
    3.3282    3.0139    1.4325 N   0  0  0  0  0  0  0  0  0  0  0  0
    4.4087    3.5157    0.7327 C   0  0  0  0  0  0  0  0  0  0  0  0
    4.4612    5.1743    0.5022 S   0  0  0  0  0  0  0  0  0  0  0  0
    5.3061    2.5915    0.2527 N   0  0  0  0  0  0  0  0  0  0  0  0
    6.7036    2.7196    0.1112 C   0  0  0  0  0  0  0  0  0  0  0  0
    7.3709    1.8353   -0.7445 C   0  0  0  0  0  0  0  0  0  0  0  0
    8.7691    1.8622   -0.8460 C   0  0  0  0  0  0  0  0  0  0  0  0
    9.5090    2.7901   -0.1077 C   0  0  0  0  0  0  0  0  0  0  0  0
   10.8810    2.8835   -0.1209 O   0  0  0  0  0  0  0  0  0  0  0  0
   11.5819    2.6491   -1.2837 C   0  0  0  0  0  0  0  0  0  0  0  0
   11.1001    2.9556   -2.5535 C   0  0  0  0  0  0  0  0  0  0  0  0
   11.8766    2.6561   -3.6548 C   0  0  0  0  0  0  0  0  0  0  0  0
   13.1145    2.1337   -3.6119 N   0  0  0  0  0  0  0  0  0  0  0  0
   13.6243    1.9256   -2.3690 C   0  0  0  0  0  0  0  0  0  0  0  0
   14.9421    1.4623   -2.1010 C   0  0  0  0  0  0  0  0  0  0  0  0
   15.2327    1.3842   -0.7496 C   0  0  0  0  0  0  0  0  0  0  0  0
   16.5053    1.0134   -0.1208 C   0  0  0  0  0  0  0  0  0  0  0  0
   17.5133    0.6956   -0.9554 N   0  0  0  0  0  0  0  0  0  0  0  0
   18.6942    0.4147   -0.3771 C   0  0  0  0  0  0  0  0  0  0  0  0
   18.9006    0.4422    0.9813 C   0  0  0  0  0  0  0  0  0  0  0  0
   17.8039    0.7750    1.7424 C   0  0  0  0  0  0  0  0  0  0  0  0
   16.5982    1.0646    1.2216 N   0  0  0  0  0  0  0  0  0  0  0  0
   13.8542    1.7959    0.1831 S   0  0  0  0  0  0  0  0  0  0  0  0
   12.9022    2.1645   -1.2005 C   0  0  0  0  0  0  0  0  0  0  0  0
    8.8375    3.6302    0.7785 C   0  0  0  0  0  0  0  0  0  0  0  0
    9.5271    4.4676    1.5677 F   0  0  0  0  0  0  0  0  0  0  0  0
    7.4503    3.6061    0.8861 C   0  0  0  0  0  0  0  0  0  0  0  0
    1.3282    0.5623    2.2780 H   0  0  0  0  0  0  0  0  0  0  0  0
    1.0243    2.2785    2.0796 H   0  0  0  0  0  0  0  0  0  0  0  0
   -0.3003    2.5608    4.0267 H   0  0  0  0  0  0  0  0  0  0  0  0
   -0.5283    2.6183    6.4731 H   0  0  0  0  0  0  0  0  0  0  0  0
    1.2966    1.7663    7.9184 H   0  0  0  0  0  0  0  0  0  0  0  0
    3.3699    0.8780    6.8935 H   0  0  0  0  0  0  0  0  0  0  0  0
    3.6253    0.7970    4.4447 H   0  0  0  0  0  0  0  0  0  0  0  0
    2.7068    3.7394    1.7647 H   0  0  0  0  0  0  0  0  0  0  0  0
    4.9179    1.6759    0.0381 H   0  0  0  0  0  0  0  0  0  0  0  0
    6.8157    1.1259   -1.3524 H   0  0  0  0  0  0  0  0  0  0  0  0
    9.2623    1.1485   -1.5008 H   0  0  0  0  0  0  0  0  0  0  0  0
   10.1277    3.4145   -2.7004 H   0  0  0  0  0  0  0  0  0  0  0  0
   11.4984    2.8432   -4.6577 H   0  0  0  0  0  0  0  0  0  0  0  0
   15.6597    1.2312   -2.8755 H   0  0  0  0  0  0  0  0  0  0  0  0
   19.4985    0.1625   -1.0628 H   0  0  0  0  0  0  0  0  0  0  0  0
   19.8616    0.2191    1.4233 H   0  0  0  0  0  0  0  0  0  0  0  0
   17.8653    0.8250    2.8246 H   0  0  0  0  0  0  0  0  0  0  0  0
    6.9918    4.2476    1.6313 H   0  0  0  0  0  0  0  0  0  0  0  0
  1  2  2  0  0  0  0
  2  3  1  0  0  0  0
  2 10  1  0  0  0  0
  3  4  1  0  0  0  0
  3 37  1  0  0  0  0
  3 38  1  0  0  0  0
  4  5  1  0  0  0  0
  4  9  2  0  0  0  0
  5  6  2  0  0  0  0
  5 39  1  0  0  0  0
  6  7  1  0  0  0  0
  6 40  1  0  0  0  0
  7  8  2  0  0  0  0
  7 41  1  0  0  0  0
  8  9  1  0  0  0  0
  8 42  1  0  0  0  0
  9 43  1  0  0  0  0
 10 11  1  0  0  0  0
 10 44  1  0  0  0  0
 11 12  2  0  0  0  0
 11 13  1  0  0  0  0
 13 14  1  0  0  0  0
 13 45  1  0  0  0  0
 14 15  1  0  0  0  0
 14 36  2  0  0  0  0
 15 16  2  0  0  0  0
 15 46  1  0  0  0  0
 16 17  1  0  0  0  0
 16 47  1  0  0  0  0
 17 18  1  0  0  0  0
 17 34  2  0  0  0  0
 18 19  1  0  0  0  0
 19 20  1  0  0  0  0
 19 33  2  0  0  0  0
 20 21  2  0  0  0  0
 20 48  1  0  0  0  0
 21 22  1  0  0  0  0
 21 49  1  0  0  0  0
 22 23  2  0  0  0  0
 23 24  1  0  0  0  0
 23 33  1  0  0  0  0
 24 25  2  0  0  0  0
 24 50  1  0  0  0  0
 25 26  1  0  0  0  0
 25 32  1  0  0  0  0
 26 27  1  0  0  0  0
 26 31  2  0  0  0  0
 27 28  2  0  0  0  0
 28 29  1  0  0  0  0
 28 51  1  0  0  0  0
 29 30  2  0  0  0  0
 29 52  1  0  0  0  0
 30 31  1  0  0  0  0
 30 53  1  0  0  0  0
 32 33  1  0  0  0  0
 34 35  1  0  0  0  0
 34 36  1  0  0  0  0
 36 54  1  0  0  0  0
M  END
$$$$
