CHEMBL150187
 OpenBabel04072215363D

 45 48  0  0  0  0  0  0  0  0999 V2000
    2.4186   -1.1242   -0.9497 C   0  0  0  0  0  0  0  0  0  0  0  0
    2.3712   -0.0426   -0.0168 O   0  0  0  0  0  0  0  0  0  0  0  0
    3.0316    1.0848   -0.4145 C   0  0  0  0  0  0  0  0  0  0  0  0
    4.1756    0.9918   -1.2090 C   0  0  0  0  0  0  0  0  0  0  0  0
    4.7446    2.1235   -1.8084 C   0  0  0  0  0  0  0  0  0  0  0  0
    5.8101    2.0437   -2.7142 C   0  0  0  0  0  0  0  0  0  0  0  0
    6.3091    0.7625   -3.0863 N   0  0  0  0  0  0  0  0  0  0  0  0
    7.5408    0.5480   -3.7464 C   0  0  0  0  0  0  0  0  0  0  0  0
    8.7312    1.1508   -3.3220 C   0  0  0  0  0  0  0  0  0  0  0  0
    8.7517    1.9018   -2.2100 F   0  0  0  0  0  0  0  0  0  0  0  0
    9.9289    0.9668   -4.0084 C   0  0  0  0  0  0  0  0  0  0  0  0
    9.9462    0.1464   -5.1343 C   0  0  0  0  0  0  0  0  0  0  0  0
   11.5550   -0.0696   -6.1012 Br  0  0  0  0  0  0  0  0  0  0  0  0
    8.7926   -0.5099   -5.5545 C   0  0  0  0  0  0  0  0  0  0  0  0
    7.6075   -0.3117   -4.8493 C   0  0  0  0  0  0  0  0  0  0  0  0
    6.4971   -0.9470   -5.2554 F   0  0  0  0  0  0  0  0  0  0  0  0
    6.3219    3.1361   -3.3002 N   0  0  0  0  0  0  0  0  0  0  0  0
    5.7677    4.3048   -2.9544 C   0  0  0  0  0  0  0  0  0  0  0  0
    4.7485    4.4886   -2.1041 N   0  0  0  0  0  0  0  0  0  0  0  0
    4.2342    3.3931   -1.5310 C   0  0  0  0  0  0  0  0  0  0  0  0
    3.1560    3.4868   -0.6411 C   0  0  0  0  0  0  0  0  0  0  0  0
    2.5571    2.3528   -0.0583 C   0  0  0  0  0  0  0  0  0  0  0  0
    1.4859    2.6081    0.7721 O   0  0  0  0  0  0  0  0  0  0  0  0
    1.3710    1.7202    1.8974 C   0  0  0  0  0  0  0  0  0  0  0  0
    0.2749    2.1648    2.8586 C   0  0  0  0  0  0  0  0  0  0  0  0
    0.5715    3.3933    3.5509 N   0  0  0  0  0  0  0  0  0  0  0  0
    0.0611    4.6319    3.3053 C   0  0  0  0  0  0  0  0  0  0  0  0
    0.5947    5.4066    4.3050 C   0  0  0  0  0  0  0  0  0  0  0  0
    1.3661    4.6296    5.1226 N   0  0  0  0  0  0  0  0  0  0  0  0
    1.3342    3.3871    4.6577 N   0  0  0  0  0  0  0  0  0  0  0  0
    1.5591   -1.7728   -0.7667 H   0  0  0  0  0  0  0  0  0  0  0  0
    3.3298   -1.7107   -0.7906 H   0  0  0  0  0  0  0  0  0  0  0  0
    2.3571   -0.7796   -1.9908 H   0  0  0  0  0  0  0  0  0  0  0  0
    4.6259    0.0206   -1.3830 H   0  0  0  0  0  0  0  0  0  0  0  0
    5.5598    0.2365   -3.5305 H   0  0  0  0  0  0  0  0  0  0  0  0
   10.8194    1.4664   -3.6504 H   0  0  0  0  0  0  0  0  0  0  0  0
    8.7951   -1.1658   -6.4183 H   0  0  0  0  0  0  0  0  0  0  0  0
    6.1878    5.1926   -3.4178 H   0  0  0  0  0  0  0  0  0  0  0  0
    2.7670    4.4747   -0.4019 H   0  0  0  0  0  0  0  0  0  0  0  0
    2.3334    1.6367    2.4159 H   0  0  0  0  0  0  0  0  0  0  0  0
    1.0431    0.7380    1.5510 H   0  0  0  0  0  0  0  0  0  0  0  0
    0.1235    1.3941    3.6253 H   0  0  0  0  0  0  0  0  0  0  0  0
   -0.6747    2.3019    2.3310 H   0  0  0  0  0  0  0  0  0  0  0  0
   -0.6016    4.8427    2.4799 H   0  0  0  0  0  0  0  0  0  0  0  0
    0.4631    6.4637    4.4841 H   0  0  0  0  0  0  0  0  0  0  0  0
  1  2  1  0  0  0  0
  1 31  1  0  0  0  0
  1 32  1  0  0  0  0
  1 33  1  0  0  0  0
  2  3  1  0  0  0  0
  3  4  1  0  0  0  0
  3 22  2  0  0  0  0
  4  5  2  0  0  0  0
  4 34  1  0  0  0  0
  5  6  1  0  0  0  0
  5 20  1  0  0  0  0
  6  7  1  0  0  0  0
  6 17  2  0  0  0  0
  7  8  1  0  0  0  0
  7 35  1  0  0  0  0
  8  9  1  0  0  0  0
  8 15  2  0  0  0  0
  9 10  1  0  0  0  0
  9 11  2  0  0  0  0
 11 12  1  0  0  0  0
 11 36  1  0  0  0  0
 12 13  1  0  0  0  0
 12 14  2  0  0  0  0
 14 15  1  0  0  0  0
 14 37  1  0  0  0  0
 15 16  1  0  0  0  0
 17 18  1  0  0  0  0
 18 19  2  0  0  0  0
 18 38  1  0  0  0  0
 19 20  1  0  0  0  0
 20 21  2  0  0  0  0
 21 22  1  0  0  0  0
 21 39  1  0  0  0  0
 22 23  1  0  0  0  0
 23 24  1  0  0  0  0
 24 25  1  0  0  0  0
 24 40  1  0  0  0  0
 24 41  1  0  0  0  0
 25 26  1  0  0  0  0
 25 42  1  0  0  0  0
 25 43  1  0  0  0  0
 26 27  1  0  0  0  0
 26 30  1  0  0  0  0
 27 28  2  0  0  0  0
 27 44  1  0  0  0  0
 28 29  1  0  0  0  0
 28 45  1  0  0  0  0
 29 30  2  0  0  0  0
M  END
$$$$
