CHEMBL3699446
 OpenBabel04072215373D

 56 59  0  0  0  0  0  0  0  0999 V2000
    2.8196    1.3593   -4.5740 C   0  0  0  0  0  0  0  0  0  0  0  0
    3.0202    0.6182   -3.3730 O   0  0  0  0  0  0  0  0  0  0  0  0
    3.3362    1.3311   -2.2440 C   0  0  0  0  0  0  0  0  0  0  0  0
    2.9324    2.6645   -2.0650 C   0  0  0  0  0  0  0  0  0  0  0  0
    3.2185    3.3861   -0.8961 C   0  0  0  0  0  0  0  0  0  0  0  0
    2.8734    4.8171   -0.7900 C   0  0  0  0  0  0  0  0  0  0  0  0
    2.4885    5.5500    0.2697 C   0  0  0  0  0  0  0  0  0  0  0  0
    2.1123    5.2492    1.6078 C   0  0  0  0  0  0  0  0  0  0  0  0
    0.7799    5.0378    1.9007 C   0  0  0  0  0  0  0  0  0  0  0  0
    0.5348    5.7468    3.0547 N   0  0  0  0  0  0  0  0  0  0  0  0
   -0.7774    6.2782    3.3833 C   0  0  0  0  0  0  0  0  0  0  0  0
   -1.8377    5.2229    3.6606 C   0  0  0  0  0  0  0  0  0  0  0  0
   -1.4766    4.3301    4.8366 C   0  0  0  0  0  0  0  0  0  0  0  0
   -2.5499    3.4351    5.0951 O   0  0  0  0  0  0  0  0  0  0  0  0
    1.7263    6.1059    3.6561 C   0  0  0  0  0  0  0  0  0  0  0  0
    1.9880    6.8641    4.8102 C   0  0  0  0  0  0  0  0  0  0  0  0
    3.3184    7.0977    5.1635 C   0  0  0  0  0  0  0  0  0  0  0  0
    4.3588    6.5851    4.3969 C   0  0  0  0  0  0  0  0  0  0  0  0
    4.0938    5.9005    3.2031 C   0  0  0  0  0  0  0  0  0  0  0  0
    2.7570    5.6708    2.8098 C   0  0  0  0  0  0  0  0  0  0  0  0
    2.1880    6.9304   -0.2177 C   0  0  0  0  0  0  0  0  0  0  0  0
    1.6862    7.8412    0.4183 O   0  0  0  0  0  0  0  0  0  0  0  0
    2.4801    6.9639   -1.5278 N   0  0  0  0  0  0  0  0  0  0  0  0
    2.7893    5.7387   -1.9643 C   0  0  0  0  0  0  0  0  0  0  0  0
    2.9099    5.4319   -3.1425 O   0  0  0  0  0  0  0  0  0  0  0  0
    3.9007    2.7293    0.1288 C   0  0  0  0  0  0  0  0  0  0  0  0
    4.2661    1.3815   -0.0022 C   0  0  0  0  0  0  0  0  0  0  0  0
    4.9395    0.7039    0.9889 O   0  0  0  0  0  0  0  0  0  0  0  0
    4.6144    1.0938    2.3196 C   0  0  0  0  0  0  0  0  0  0  0  0
    4.0149    0.6806   -1.2010 C   0  0  0  0  0  0  0  0  0  0  0  0
    4.4079   -0.6376   -1.2020 O   0  0  0  0  0  0  0  0  0  0  0  0
    4.8625   -1.1777   -2.4361 C   0  0  0  0  0  0  0  0  0  0  0  0
    2.7162    0.6426   -5.3947 H   0  0  0  0  0  0  0  0  0  0  0  0
    3.6803    2.0002   -4.7944 H   0  0  0  0  0  0  0  0  0  0  0  0
    1.8923    1.9391   -4.5366 H   0  0  0  0  0  0  0  0  0  0  0  0
    2.3629    3.1520   -2.8506 H   0  0  0  0  0  0  0  0  0  0  0  0
   -0.0436    4.7395    1.2643 H   0  0  0  0  0  0  0  0  0  0  0  0
   -1.0797    6.8907    2.5239 H   0  0  0  0  0  0  0  0  0  0  0  0
   -0.6858    6.9548    4.2369 H   0  0  0  0  0  0  0  0  0  0  0  0
   -2.0173    4.6040    2.7726 H   0  0  0  0  0  0  0  0  0  0  0  0
   -2.7914    5.7266    3.8624 H   0  0  0  0  0  0  0  0  0  0  0  0
   -1.2855    4.9172    5.7405 H   0  0  0  0  0  0  0  0  0  0  0  0
   -0.5872    3.7308    4.6204 H   0  0  0  0  0  0  0  0  0  0  0  0
   -3.3220    3.9644    5.3576 H   0  0  0  0  0  0  0  0  0  0  0  0
    1.1886    7.2952    5.4038 H   0  0  0  0  0  0  0  0  0  0  0  0
    3.5390    7.6990    6.0430 H   0  0  0  0  0  0  0  0  0  0  0  0
    5.3870    6.7551    4.7078 H   0  0  0  0  0  0  0  0  0  0  0  0
    4.9206    5.5523    2.5913 H   0  0  0  0  0  0  0  0  0  0  0  0
    2.2451    7.7414   -2.1178 H   0  0  0  0  0  0  0  0  0  0  0  0
    4.1713    3.2760    1.0256 H   0  0  0  0  0  0  0  0  0  0  0  0
    4.9644    0.3078    2.9949 H   0  0  0  0  0  0  0  0  0  0  0  0
    3.5325    1.1991    2.4589 H   0  0  0  0  0  0  0  0  0  0  0  0
    5.1352    2.0182    2.5887 H   0  0  0  0  0  0  0  0  0  0  0  0
    5.4616   -2.0655   -2.2073 H   0  0  0  0  0  0  0  0  0  0  0  0
    5.5042   -0.4795   -2.9844 H   0  0  0  0  0  0  0  0  0  0  0  0
    4.0218   -1.5165   -3.0482 H   0  0  0  0  0  0  0  0  0  0  0  0
  1  2  1  0  0  0  0
  1 33  1  0  0  0  0
  1 34  1  0  0  0  0
  1 35  1  0  0  0  0
  2  3  1  0  0  0  0
  3  4  1  0  0  0  0
  3 30  2  0  0  0  0
  4  5  2  0  0  0  0
  4 36  1  0  0  0  0
  5  6  1  0  0  0  0
  5 26  1  0  0  0  0
  6  7  2  0  0  0  0
  6 24  1  0  0  0  0
  7  8  1  0  0  0  0
  7 21  1  0  0  0  0
  8  9  2  0  0  0  0
  8 20  1  0  0  0  0
  9 10  1  0  0  0  0
  9 37  1  0  0  0  0
 10 11  1  0  0  0  0
 10 15  1  0  0  0  0
 11 12  1  0  0  0  0
 11 38  1  0  0  0  0
 11 39  1  0  0  0  0
 12 13  1  0  0  0  0
 12 40  1  0  0  0  0
 12 41  1  0  0  0  0
 13 14  1  0  0  0  0
 13 42  1  0  0  0  0
 13 43  1  0  0  0  0
 14 44  1  0  0  0  0
 15 16  1  0  0  0  0
 15 20  2  0  0  0  0
 16 17  2  0  0  0  0
 16 45  1  0  0  0  0
 17 18  1  0  0  0  0
 17 46  1  0  0  0  0
 18 19  2  0  0  0  0
 18 47  1  0  0  0  0
 19 20  1  0  0  0  0
 19 48  1  0  0  0  0
 21 22  2  0  0  0  0
 21 23  1  0  0  0  0
 23 24  1  0  0  0  0
 23 49  1  0  0  0  0
 24 25  2  0  0  0  0
 26 27  2  0  0  0  0
 26 50  1  0  0  0  0
 27 28  1  0  0  0  0
 27 30  1  0  0  0  0
 28 29  1  0  0  0  0
 29 51  1  0  0  0  0
 29 52  1  0  0  0  0
 29 53  1  0  0  0  0
 30 31  1  0  0  0  0
 31 32  1  0  0  0  0
 32 54  1  0  0  0  0
 32 55  1  0  0  0  0
 32 56  1  0  0  0  0
M  END
$$$$
