CHEMBL3906894
 OpenBabel04072215373D

 72 75  0  0  1  0  0  0  0  0999 V2000
    0.9036    2.8692    3.7753 C   0  0  0  0  0  0  0  0  0  0  0  0
    2.2432    3.1507    3.5452 O   0  0  0  0  0  0  0  0  0  0  0  0
    3.0987    2.3719    2.8245 C   0  0  0  0  0  0  0  0  0  0  0  0
    2.6590    1.1772    2.2252 C   0  0  0  0  0  0  0  0  0  0  0  0
    3.5322    0.4005    1.4636 C   0  0  0  0  0  0  0  0  0  0  0  0
    3.0603   -0.7512    0.9153 O   0  0  0  0  0  0  0  0  0  0  0  0
    3.7925   -1.6287    0.1409 C   0  0  0  0  0  0  0  0  0  0  0  0
    4.8545    0.8348    1.2800 C   0  0  0  0  0  0  0  0  0  0  0  0
    5.3416    2.0234    1.8677 C   0  0  0  0  0  0  0  0  0  0  0  0
    6.6762    2.4884    1.5581 N   0  0  0  0  0  0  0  0  0  0  0  0
    7.1667    2.3390    0.1385 C   0  0  0  0  0  0  0  0  0  0  0  0
    6.9886    3.4951   -0.9477 C   0  0  0  0  0  0  0  0  0  0  0  0
    5.6122    3.8909   -1.5583 C   0  0  0  0  0  0  0  0  0  0  0  0
    5.7633    4.8279   -2.7336 N   0  0  0  0  0  0  0  0  0  0  0  0
    4.4679    5.1525   -3.3559 C   0  0  0  0  0  0  0  0  0  0  0  0
    3.9679    6.3812   -2.6173 C   0  0  0  0  0  0  0  0  0  0  0  0
    5.2187    7.2174   -2.5731 C   0  0  0  0  0  0  0  0  0  0  0  0
    6.3417    6.1688   -2.4251 C   0  0  2  0  0  0  0  0  0  0  0  0
    7.4765    6.4925   -3.4175 C   0  0  0  0  0  0  0  0  0  0  0  0
    7.6796    2.9799    2.5324 C   0  0  0  0  0  0  0  0  0  0  0  0
    8.3138    4.1215    2.0867 C   0  0  0  0  0  0  0  0  0  0  0  0
    9.4146    4.6282    2.6525 C   0  0  0  0  0  0  0  0  0  0  0  0
    9.9708    4.0386    3.7343 C   0  0  0  0  0  0  0  0  0  0  0  0
   11.1192    4.5914    4.1083 N   0  0  0  0  0  0  0  0  0  0  0  0
   11.8021    4.1740    5.1521 C   0  0  0  0  0  0  0  0  0  0  0  0
   11.3201    3.1547    5.9749 C   0  0  0  0  0  0  0  0  0  0  0  0
   12.2136    2.9837    7.2342 C   0  0  0  0  0  0  0  0  0  0  0  0
   13.2245    3.9120    7.5773 C   0  0  0  0  0  0  0  0  0  0  0  0
   13.8335    3.5796    8.7086 N   0  0  0  0  0  0  0  0  0  0  0  0
   13.2828    2.4663    9.1423 N   0  0  0  0  0  0  0  0  0  0  0  0
   13.7392    1.8884   10.4076 C   0  0  0  0  0  0  0  0  0  0  0  0
   12.2965    2.0615    8.2900 C   0  0  0  0  0  0  0  0  0  0  0  0
   10.1260    2.5036    5.5698 N   0  0  0  0  0  0  0  0  0  0  0  0
    9.4265    2.9331    4.4077 C   0  0  0  0  0  0  0  0  0  0  0  0
    8.2069    2.3596    3.7771 C   0  0  0  0  0  0  0  0  0  0  0  0
    4.4461    2.7833    2.6560 C   0  0  0  0  0  0  0  0  0  0  0  0
   -0.8672    1.0410   -1.5323 Cl  0  0  0  0  0  0  0  0  0  0  0  0
    0.4486    3.6766    4.3844 H   0  0  0  0  0  0  0  0  0  0  0  0
    0.8020    1.9121    4.3315 H   0  0  0  0  0  0  0  0  0  0  0  0
    0.3411    2.8008    2.8168 H   0  0  0  0  0  0  0  0  0  0  0  0
    1.6410    0.8317    2.3331 H   0  0  0  0  0  0  0  0  0  0  0  0
    3.1571   -2.4931   -0.1376 H   0  0  0  0  0  0  0  0  0  0  0  0
    4.6659   -2.0050    0.7163 H   0  0  0  0  0  0  0  0  0  0  0  0
    4.1379   -1.1252   -0.7877 H   0  0  0  0  0  0  0  0  0  0  0  0
    5.5021    0.2238    0.6817 H   0  0  0  0  0  0  0  0  0  0  0  0
    6.8779    1.3791   -0.3150 H   0  0  0  0  0  0  0  0  0  0  0  0
    8.2726    2.2275    0.1974 H   0  0  0  0  0  0  0  0  0  0  0  0
    7.5944    3.1585   -1.8159 H   0  0  0  0  0  0  0  0  0  0  0  0
    7.4771    4.4136   -0.6372 H   0  0  0  0  0  0  0  0  0  0  0  0
    4.9495    4.3197   -0.7787 H   0  0  0  0  0  0  0  0  0  0  0  0
    5.1481    2.9515   -1.9331 H   0  0  0  0  0  0  0  0  0  0  0  0
    3.7405    4.3143   -3.3520 H   0  0  0  0  0  0  0  0  0  0  0  0
    4.6541    5.4289   -4.4228 H   0  0  0  0  0  0  0  0  0  0  0  0
    3.6881    6.0818   -1.5880 H   0  0  0  0  0  0  0  0  0  0  0  0
    3.1094    6.9029   -3.0963 H   0  0  0  0  0  0  0  0  0  0  0  0
    5.2178    8.0068   -1.7888 H   0  0  0  0  0  0  0  0  0  0  0  0
    5.2935    7.7235   -3.5635 H   0  0  0  0  0  0  0  0  0  0  0  0
    6.7273    6.2212   -1.3911 H   0  0  0  0  0  0  0  0  0  0  0  0
    7.0899    6.4981   -4.4636 H   0  0  0  0  0  0  0  0  0  0  0  0
    8.2837    5.7354   -3.3587 H   0  0  0  0  0  0  0  0  0  0  0  0
    7.9053    7.4967   -3.2087 H   0  0  0  0  0  0  0  0  0  0  0  0
    7.9725    4.6517    1.2461 H   0  0  0  0  0  0  0  0  0  0  0  0
    9.8789    5.4975    2.2081 H   0  0  0  0  0  0  0  0  0  0  0  0
   12.7125    4.6982    5.2909 H   0  0  0  0  0  0  0  0  0  0  0  0
   13.5309    4.8167    7.0903 H   0  0  0  0  0  0  0  0  0  0  0  0
   14.5474    2.5240   10.8522 H   0  0  0  0  0  0  0  0  0  0  0  0
   14.1619    0.8780   10.2444 H   0  0  0  0  0  0  0  0  0  0  0  0
   12.9051    1.8627   11.1347 H   0  0  0  0  0  0  0  0  0  0  0  0
   11.7023    1.1746    8.4559 H   0  0  0  0  0  0  0  0  0  0  0  0
    7.7476    1.4594    4.1785 H   0  0  0  0  0  0  0  0  0  0  0  0
    4.7688    3.7202    3.0904 H   0  0  0  0  0  0  0  0  0  0  0  0
    0.4965    1.0422   -1.7118 H   0  0  0  0  0  0  0  0  0  0  0  0
  1  2  1  0  0  0  0
  1 38  1  0  0  0  0
  1 39  1  0  0  0  0
  1 40  1  0  0  0  0
  2  3  1  0  0  0  0
  3  4  1  0  0  0  0
  3 36  2  0  0  0  0
  4  5  2  0  0  0  0
  4 41  1  0  0  0  0
  5  6  1  0  0  0  0
  5  8  1  0  0  0  0
  6  7  1  0  0  0  0
  7 42  1  0  0  0  0
  7 43  1  0  0  0  0
  7 44  1  0  0  0  0
  8  9  2  0  0  0  0
  8 45  1  0  0  0  0
  9 10  1  0  0  0  0
  9 36  1  0  0  0  0
 10 11  1  0  0  0  0
 10 20  1  0  0  0  0
 11 12  1  0  0  0  0
 11 46  1  0  0  0  0
 11 47  1  0  0  0  0
 12 13  1  0  0  0  0
 12 48  1  0  0  0  0
 12 49  1  0  0  0  0
 13 14  1  0  0  0  0
 13 50  1  0  0  0  0
 13 51  1  0  0  0  0
 14 15  1  0  0  0  0
 14 18  1  0  0  0  0
 15 16  1  0  0  0  0
 15 52  1  0  0  0  0
 15 53  1  0  0  0  0
 16 17  1  0  0  0  0
 16 54  1  0  0  0  0
 16 55  1  0  0  0  0
 17 18  1  0  0  0  0
 17 56  1  0  0  0  0
 17 57  1  0  0  0  0
 18 19  1  0  0  0  0
 18 58  1  1  0  0  0
 19 59  1  0  0  0  0
 19 60  1  0  0  0  0
 19 61  1  0  0  0  0
 20 21  1  0  0  0  0
 20 35  2  0  0  0  0
 21 22  2  0  0  0  0
 21 62  1  0  0  0  0
 22 23  1  0  0  0  0
 22 63  1  0  0  0  0
 23 24  1  0  0  0  0
 23 34  2  0  0  0  0
 24 25  2  0  0  0  0
 25 26  1  0  0  0  0
 25 64  1  0  0  0  0
 26 27  1  0  0  0  0
 26 33  2  0  0  0  0
 27 28  1  0  0  0  0
 27 32  2  0  0  0  0
 28 29  2  0  0  0  0
 28 65  1  0  0  0  0
 29 30  1  0  0  0  0
 30 31  1  0  0  0  0
 30 32  1  0  0  0  0
 31 66  1  0  0  0  0
 31 67  1  0  0  0  0
 31 68  1  0  0  0  0
 32 69  1  0  0  0  0
 33 34  1  0  0  0  0
 34 35  1  0  0  0  0
 35 70  1  0  0  0  0
 36 71  1  0  0  0  0
 37 72  1  0  0  0  0
M  END
$$$$
