CHEMBL3656072
 OpenBabel04072215373D

 71 75  0  0  1  0  0  0  0  0999 V2000
    2.8528    7.2491    2.6052 C   0  0  0  0  0  0  0  0  0  0  0  0
    1.7096    6.2936    2.4008 C   0  0  0  0  0  0  0  0  0  0  0  0
    1.9929    4.9904    1.9825 C   0  0  0  0  0  0  0  0  0  0  0  0
    0.9602    4.0834    1.8023 C   0  0  0  0  0  0  0  0  0  0  0  0
   -0.3607    4.4667    2.0291 C   0  0  0  0  0  0  0  0  0  0  0  0
   -1.2616    3.4811    1.9523 F   0  0  0  0  0  0  0  0  0  0  0  0
   -0.7014    5.7763    2.4140 C   0  0  0  0  0  0  0  0  0  0  0  0
   -2.0419    6.2393    2.6213 N   0  0  0  0  0  0  0  0  0  0  0  0
   -3.1836    5.6303    2.1109 C   0  0  0  0  0  0  0  0  0  0  0  0
   -3.1836    4.6300    1.3980 O   0  0  0  0  0  0  0  0  0  0  0  0
   -4.3706    6.3049    2.4164 N   0  0  0  0  0  0  0  0  0  0  0  0
   -5.5902    5.7411    1.9334 C   0  0  0  0  0  0  0  0  0  0  0  0
   -5.9223    4.4260    2.2715 C   0  0  0  0  0  0  0  0  0  0  0  0
   -7.0396    3.8046    1.7117 C   0  0  0  0  0  0  0  0  0  0  0  0
   -7.8877    4.5105    0.8560 C   0  0  0  0  0  0  0  0  0  0  0  0
   -9.0247    3.9736    0.2822 O   0  0  0  0  0  0  0  0  0  0  0  0
   -9.7505    3.0285    0.9800 C   0  0  0  0  0  0  0  0  0  0  0  0
   -9.8467    2.9985    2.3676 C   0  0  0  0  0  0  0  0  0  0  0  0
  -10.5331    1.9540    2.9571 C   0  0  0  0  0  0  0  0  0  0  0  0
  -11.1632    0.9795    2.2672 N   0  0  0  0  0  0  0  0  0  0  0  0
  -11.1023    1.0608    0.9141 C   0  0  0  0  0  0  0  0  0  0  0  0
  -11.7806   -0.0257    0.2032 C   0  0  0  0  0  0  0  0  0  0  0  0
  -11.9082   -0.2861   -1.1571 C   0  0  0  0  0  0  0  0  0  0  0  0
  -12.7097   -1.4550   -1.3320 C   0  0  0  0  0  0  0  0  0  0  0  0
  -13.1335   -2.0469   -2.6004 C   0  0  0  0  0  0  0  0  0  0  0  0
  -12.8281   -1.5642   -3.6863 O   0  0  0  0  0  0  0  0  0  0  0  0
  -13.9155   -3.1733   -2.4884 N   0  0  0  0  0  0  0  0  0  0  0  0
  -14.4406   -3.8506   -3.6526 C   0  0  0  0  0  0  0  0  0  0  0  0
  -15.2821   -5.0660   -3.2610 C   0  0  0  0  0  0  0  0  0  0  0  0
  -15.4013   -5.4118   -2.0768 O   0  0  0  0  0  0  0  0  0  0  0  0
  -15.9296   -5.7341   -4.2807 N   0  0  0  0  0  0  0  0  0  0  0  0
  -16.9006   -6.7777   -4.0015 C   0  0  0  0  0  0  0  0  0  0  0  0
  -17.6141   -7.0448   -5.3235 C   0  0  0  0  0  0  0  0  0  0  0  0
  -17.2772   -5.8348   -6.1936 C   0  0  2  0  0  0  0  0  0  0  0  0
  -17.3084   -6.1513   -7.5741 O   0  0  0  0  0  0  0  0  0  0  0  0
  -15.8900   -5.4275   -5.7017 C   0  0  0  0  0  0  0  0  0  0  0  0
  -12.9998   -1.9020   -0.0532 C   0  0  0  0  0  0  0  0  0  0  0  0
  -12.4151   -1.0525    0.8557 N   0  0  0  0  0  0  0  0  0  0  0  0
  -10.4277    2.0714    0.2380 C   0  0  0  0  0  0  0  0  0  0  0  0
   -7.5611    5.8254    0.5113 C   0  0  0  0  0  0  0  0  0  0  0  0
   -6.4259    6.4493    1.0635 C   0  0  0  0  0  0  0  0  0  0  0  0
    0.3642    6.6798    2.6176 C   0  0  0  0  0  0  0  0  0  0  0  0
    3.8157    6.7622    2.4036 H   0  0  0  0  0  0  0  0  0  0  0  0
    2.8786    7.5998    3.6408 H   0  0  0  0  0  0  0  0  0  0  0  0
    2.7708    8.1011    1.9243 H   0  0  0  0  0  0  0  0  0  0  0  0
    3.0171    4.6659    1.8102 H   0  0  0  0  0  0  0  0  0  0  0  0
    1.1668    3.0602    1.5047 H   0  0  0  0  0  0  0  0  0  0  0  0
   -2.1586    7.1221    3.0942 H   0  0  0  0  0  0  0  0  0  0  0  0
   -4.3045    7.3110    2.3857 H   0  0  0  0  0  0  0  0  0  0  0  0
   -5.2973    3.8603    2.9578 H   0  0  0  0  0  0  0  0  0  0  0  0
   -7.2284    2.7654    1.9657 H   0  0  0  0  0  0  0  0  0  0  0  0
   -9.3531    3.7358    2.9888 H   0  0  0  0  0  0  0  0  0  0  0  0
  -10.5654    1.8665    4.0384 H   0  0  0  0  0  0  0  0  0  0  0  0
  -11.4881    0.3139   -1.9492 H   0  0  0  0  0  0  0  0  0  0  0  0
  -14.2329   -3.4963   -1.5840 H   0  0  0  0  0  0  0  0  0  0  0  0
  -13.6037   -4.1599   -4.2853 H   0  0  0  0  0  0  0  0  0  0  0  0
  -15.0757   -3.1360   -4.1838 H   0  0  0  0  0  0  0  0  0  0  0  0
  -17.5910   -6.4329   -3.2255 H   0  0  0  0  0  0  0  0  0  0  0  0
  -16.3788   -7.6695   -3.6380 H   0  0  0  0  0  0  0  0  0  0  0  0
  -18.6953   -7.1536   -5.1863 H   0  0  0  0  0  0  0  0  0  0  0  0
  -17.2576   -7.9755   -5.7797 H   0  0  0  0  0  0  0  0  0  0  0  0
  -17.9920   -5.0252   -6.0046 H   0  0  0  0  0  0  0  0  0  0  0  0
  -16.8025   -6.9690   -7.7207 H   0  0  0  0  0  0  0  0  0  0  0  0
  -15.6619   -4.3808   -5.9117 H   0  0  0  0  0  0  0  0  0  0  0  0
  -15.1081   -6.0443   -6.1608 H   0  0  0  0  0  0  0  0  0  0  0  0
  -13.5758   -2.7433    0.2967 H   0  0  0  0  0  0  0  0  0  0  0  0
  -12.4441   -1.1421    1.8593 H   0  0  0  0  0  0  0  0  0  0  0  0
  -10.4082    2.0986   -0.8465 H   0  0  0  0  0  0  0  0  0  0  0  0
   -8.1800    6.3598   -0.2066 H   0  0  0  0  0  0  0  0  0  0  0  0
   -6.1729    7.4536    0.7373 H   0  0  0  0  0  0  0  0  0  0  0  0
    0.1627    7.7052    2.9209 H   0  0  0  0  0  0  0  0  0  0  0  0
  1  2  1  0  0  0  0
  1 43  1  0  0  0  0
  1 44  1  0  0  0  0
  1 45  1  0  0  0  0
  2  3  1  0  0  0  0
  2 42  2  0  0  0  0
  3  4  2  0  0  0  0
  3 46  1  0  0  0  0
  4  5  1  0  0  0  0
  4 47  1  0  0  0  0
  5  6  1  0  0  0  0
  5  7  2  0  0  0  0
  7  8  1  0  0  0  0
  7 42  1  0  0  0  0
  8  9  1  0  0  0  0
  8 48  1  0  0  0  0
  9 10  2  0  0  0  0
  9 11  1  0  0  0  0
 11 12  1  0  0  0  0
 11 49  1  0  0  0  0
 12 13  1  0  0  0  0
 12 41  2  0  0  0  0
 13 14  2  0  0  0  0
 13 50  1  0  0  0  0
 14 15  1  0  0  0  0
 14 51  1  0  0  0  0
 15 16  1  0  0  0  0
 15 40  2  0  0  0  0
 16 17  1  0  0  0  0
 17 18  1  0  0  0  0
 17 39  2  0  0  0  0
 18 19  2  0  0  0  0
 18 52  1  0  0  0  0
 19 20  1  0  0  0  0
 19 53  1  0  0  0  0
 20 21  2  0  0  0  0
 21 22  1  0  0  0  0
 21 39  1  0  0  0  0
 22 23  2  0  0  0  0
 22 38  1  0  0  0  0
 23 24  1  0  0  0  0
 23 54  1  0  0  0  0
 24 25  1  0  0  0  0
 24 37  2  0  0  0  0
 25 26  2  0  0  0  0
 25 27  1  0  0  0  0
 27 28  1  0  0  0  0
 27 55  1  0  0  0  0
 28 29  1  0  0  0  0
 28 56  1  0  0  0  0
 28 57  1  0  0  0  0
 29 30  2  0  0  0  0
 29 31  1  0  0  0  0
 31 32  1  0  0  0  0
 31 36  1  0  0  0  0
 32 33  1  0  0  0  0
 32 58  1  0  0  0  0
 32 59  1  0  0  0  0
 33 34  1  0  0  0  0
 33 60  1  0  0  0  0
 33 61  1  0  0  0  0
 34 35  1  0  0  0  0
 34 36  1  0  0  0  0
 34 62  1  1  0  0  0
 35 63  1  0  0  0  0
 36 64  1  0  0  0  0
 36 65  1  0  0  0  0
 37 38  1  0  0  0  0
 37 66  1  0  0  0  0
 38 67  1  0  0  0  0
 39 68  1  0  0  0  0
 40 41  1  0  0  0  0
 40 69  1  0  0  0  0
 41 70  1  0  0  0  0
 42 71  1  0  0  0  0
M  END
$$$$
