CHEMBL3895267
 OpenBabel04072215373D

 55 58  0  0  0  0  0  0  0  0999 V2000
    0.2771    2.9890   -1.9678 C   0  0  0  0  0  0  0  0  0  0  0  0
    1.4818    2.9803   -2.7377 O   0  0  0  0  0  0  0  0  0  0  0  0
    2.5844    2.4061   -2.1501 C   0  0  0  0  0  0  0  0  0  0  0  0
    2.5541    1.7403   -0.9221 C   0  0  0  0  0  0  0  0  0  0  0  0
    3.7078    1.1496   -0.4221 C   0  0  0  0  0  0  0  0  0  0  0  0
    3.8036    0.4234    0.7339 O   0  0  0  0  0  0  0  0  0  0  0  0
    2.6334    0.3306    1.5354 C   0  0  0  0  0  0  0  0  0  0  0  0
    4.8973    1.2392   -1.1481 C   0  0  0  0  0  0  0  0  0  0  0  0
    4.9722    1.8779   -2.3984 C   0  0  0  0  0  0  0  0  0  0  0  0
    6.0990    1.7072   -3.2537 N   0  0  0  0  0  0  0  0  0  0  0  0
    6.6876    0.3179   -3.1854 C   0  0  0  0  0  0  0  0  0  0  0  0
    5.7263   -0.7553   -3.5102 C   0  0  0  0  0  0  0  0  0  0  0  0
    4.9623   -1.6473   -3.7645 C   0  0  0  0  0  0  0  0  0  0  0  0
    3.9930   -2.6999   -4.0658 C   0  0  0  0  0  0  0  0  0  0  0  0
    2.9572   -2.1687   -4.8795 O   0  0  0  0  0  0  0  0  0  0  0  0
    7.1266    2.6201   -3.6823 C   0  0  0  0  0  0  0  0  0  0  0  0
    7.6897    2.3099   -4.9214 C   0  0  0  0  0  0  0  0  0  0  0  0
    9.0059    2.6100   -5.1658 C   0  0  0  0  0  0  0  0  0  0  0  0
    9.7137    3.4123   -4.3130 C   0  0  0  0  0  0  0  0  0  0  0  0
   11.0192    3.4486   -4.5721 N   0  0  0  0  0  0  0  0  0  0  0  0
   11.7173    4.4075   -3.9631 C   0  0  0  0  0  0  0  0  0  0  0  0
   11.1054    5.3570   -3.1897 C   0  0  0  0  0  0  0  0  0  0  0  0
   11.8388    6.6140   -3.0466 C   0  0  0  0  0  0  0  0  0  0  0  0
   11.6845    7.8320   -3.7607 C   0  0  0  0  0  0  0  0  0  0  0  0
   12.7094    8.6754   -3.5797 N   0  0  0  0  0  0  0  0  0  0  0  0
   13.5300    7.9977   -2.7600 N   0  0  0  0  0  0  0  0  0  0  0  0
   14.6476    8.6577   -2.1271 C   0  0  0  0  0  0  0  0  0  0  0  0
   13.1254    6.7098   -2.5435 C   0  0  0  0  0  0  0  0  0  0  0  0
    9.7921    5.2218   -2.7753 N   0  0  0  0  0  0  0  0  0  0  0  0
    9.0683    4.1572   -3.3031 C   0  0  0  0  0  0  0  0  0  0  0  0
    7.7549    3.6535   -2.9497 C   0  0  0  0  0  0  0  0  0  0  0  0
    3.7895    2.4708   -2.8823 C   0  0  0  0  0  0  0  0  0  0  0  0
   -0.5010    3.4992   -2.5435 H   0  0  0  0  0  0  0  0  0  0  0  0
    0.4118    3.5422   -1.0309 H   0  0  0  0  0  0  0  0  0  0  0  0
   -0.0795    1.9708   -1.7709 H   0  0  0  0  0  0  0  0  0  0  0  0
    1.6307    1.6621   -0.3651 H   0  0  0  0  0  0  0  0  0  0  0  0
    2.8860   -0.2489    2.4279 H   0  0  0  0  0  0  0  0  0  0  0  0
    1.8322   -0.1999    1.0093 H   0  0  0  0  0  0  0  0  0  0  0  0
    2.3043    1.3224    1.8616 H   0  0  0  0  0  0  0  0  0  0  0  0
    5.7653    0.7387   -0.7308 H   0  0  0  0  0  0  0  0  0  0  0  0
    7.1498    0.1497   -2.2062 H   0  0  0  0  0  0  0  0  0  0  0  0
    7.5154    0.1750   -3.8909 H   0  0  0  0  0  0  0  0  0  0  0  0
    3.5432   -3.0932   -3.1493 H   0  0  0  0  0  0  0  0  0  0  0  0
    4.4572   -3.5340   -4.6008 H   0  0  0  0  0  0  0  0  0  0  0  0
    2.7165   -1.3099   -4.4887 H   0  0  0  0  0  0  0  0  0  0  0  0
    7.1653    1.6506   -5.6101 H   0  0  0  0  0  0  0  0  0  0  0  0
    9.5033    2.1749   -6.0306 H   0  0  0  0  0  0  0  0  0  0  0  0
   12.7687    4.4412   -4.2103 H   0  0  0  0  0  0  0  0  0  0  0  0
   10.8957    8.1230   -4.4437 H   0  0  0  0  0  0  0  0  0  0  0  0
   14.7030    9.6990   -2.4555 H   0  0  0  0  0  0  0  0  0  0  0  0
   15.5716    8.1312   -2.3780 H   0  0  0  0  0  0  0  0  0  0  0  0
   14.4718    8.6232   -1.0483 H   0  0  0  0  0  0  0  0  0  0  0  0
   13.7704    5.9976   -2.0488 H   0  0  0  0  0  0  0  0  0  0  0  0
    7.2726    4.0414   -2.0446 H   0  0  0  0  0  0  0  0  0  0  0  0
    3.7759    2.9165   -3.8750 H   0  0  0  0  0  0  0  0  0  0  0  0
  1  2  1  0  0  0  0
  1 33  1  0  0  0  0
  1 34  1  0  0  0  0
  1 35  1  0  0  0  0
  2  3  1  0  0  0  0
  3  4  1  0  0  0  0
  3 32  2  0  0  0  0
  4  5  2  0  0  0  0
  4 36  1  0  0  0  0
  5  6  1  0  0  0  0
  5  8  1  0  0  0  0
  6  7  1  0  0  0  0
  7 37  1  0  0  0  0
  7 38  1  0  0  0  0
  7 39  1  0  0  0  0
  8  9  2  0  0  0  0
  8 40  1  0  0  0  0
  9 10  1  0  0  0  0
  9 32  1  0  0  0  0
 10 11  1  0  0  0  0
 10 16  1  0  0  0  0
 11 12  1  0  0  0  0
 11 41  1  0  0  0  0
 11 42  1  0  0  0  0
 12 13  3  0  0  0  0
 13 14  1  0  0  0  0
 14 15  1  0  0  0  0
 14 43  1  0  0  0  0
 14 44  1  0  0  0  0
 15 45  1  0  0  0  0
 16 17  1  0  0  0  0
 16 31  2  0  0  0  0
 17 18  2  0  0  0  0
 17 46  1  0  0  0  0
 18 19  1  0  0  0  0
 18 47  1  0  0  0  0
 19 20  1  0  0  0  0
 19 30  2  0  0  0  0
 20 21  2  0  0  0  0
 21 22  1  0  0  0  0
 21 48  1  0  0  0  0
 22 23  1  0  0  0  0
 22 29  2  0  0  0  0
 23 24  1  0  0  0  0
 23 28  2  0  0  0  0
 24 25  2  0  0  0  0
 24 49  1  0  0  0  0
 25 26  1  0  0  0  0
 26 27  1  0  0  0  0
 26 28  1  0  0  0  0
 27 50  1  0  0  0  0
 27 51  1  0  0  0  0
 27 52  1  0  0  0  0
 28 53  1  0  0  0  0
 29 30  1  0  0  0  0
 30 31  1  0  0  0  0
 31 54  1  0  0  0  0
 32 55  1  0  0  0  0
M  END
$$$$
