CHEMBL2032032
 OpenBabel04072215363D

 69 74  0  0  1  0  0  0  0  0999 V2000
    2.5177   -0.3119   -1.5510 C   0  0  0  0  0  0  0  0  0  0  0  0
    3.8891   -0.2171   -1.1740 O   0  0  0  0  0  0  0  0  0  0  0  0
    4.2565   -0.9227   -0.0606 C   0  0  0  0  0  0  0  0  0  0  0  0
    3.3937   -1.6474    0.7455 C   0  0  0  0  0  0  0  0  0  0  0  0
    3.8939   -2.3362    1.8458 C   0  0  0  0  0  0  0  0  0  0  0  0
    5.2756   -2.3970    2.1162 C   0  0  0  0  0  0  0  0  0  0  0  0
    5.8668   -3.2314    3.1015 C   0  0  0  0  0  0  0  0  0  0  0  0
    5.1896   -4.1320    3.9142 O   0  0  0  0  0  0  0  0  0  0  0  0
    4.2617   -5.0079    3.3838 C   0  0  0  0  0  0  0  0  0  0  0  0
    4.2154   -5.4029    2.0530 C   0  0  0  0  0  0  0  0  0  0  0  0
    3.1243   -6.1485    1.5737 C   0  0  0  0  0  0  0  0  0  0  0  0
    2.0835   -6.5890    2.4102 C   0  0  0  0  0  0  0  0  0  0  0  0
    0.9328   -7.3051    1.9308 N   0  0  0  0  0  0  0  0  0  0  0  0
    0.6117   -7.4700    0.5902 C   0  0  0  0  0  0  0  0  0  0  0  0
    1.2360   -6.9274   -0.3216 O   0  0  0  0  0  0  0  0  0  0  0  0
   -0.5459   -8.3308    0.2251 C   0  0  0  0  0  0  0  0  0  0  0  0
   -0.7972   -8.8355   -1.0060 C   0  0  0  0  0  0  0  0  0  0  0  0
    0.0012   -8.6269   -2.2592 C   0  0  0  0  0  0  0  0  0  0  0  0
   -1.9446   -9.6375   -1.0396 N   0  0  0  0  0  0  0  0  0  0  0  0
   -2.6939  -10.0098   -2.2587 C   0  0  0  0  0  0  0  0  0  0  0  0
   -3.9950   -9.2447   -2.5366 C   0  0  3  0  0  0  0  0  0  0  0  0
   -4.6379   -9.7247   -3.8366 C   0  0  0  0  0  0  0  0  0  0  0  0
   -4.5682   -8.5873   -4.6822 N   0  0  0  0  0  0  0  0  0  0  0  0
   -4.0981   -7.4965   -4.0175 C   0  0  0  0  0  0  0  0  0  0  0  0
   -4.0086   -6.3778   -4.4895 O   0  0  0  0  0  0  0  0  0  0  0  0
   -3.7449   -7.8404   -2.7479 O   0  0  0  0  0  0  0  0  0  0  0  0
   -2.5750   -9.4888    0.2090 N   0  0  0  0  0  0  0  0  0  0  0  0
   -3.5765  -10.3702    0.6709 C   0  0  0  0  0  0  0  0  0  0  0  0
   -4.6548   -9.8441    1.3930 C   0  0  0  0  0  0  0  0  0  0  0  0
   -5.7202  -10.6642    1.7777 C   0  0  0  0  0  0  0  0  0  0  0  0
   -5.6967  -12.0250    1.4802 C   0  0  0  0  0  0  0  0  0  0  0  0
   -4.6154  -12.5645    0.7859 C   0  0  0  0  0  0  0  0  0  0  0  0
   -3.5667  -11.7380    0.3711 C   0  0  0  0  0  0  0  0  0  0  0  0
   -1.6868   -8.7913    1.0641 C   0  0  0  0  0  0  0  0  0  0  0  0
   -1.7502   -8.6032    2.2708 O   0  0  0  0  0  0  0  0  0  0  0  0
    2.2091   -6.3014    3.7738 C   0  0  0  0  0  0  0  0  0  0  0  0
    3.2793   -5.5124    4.2437 C   0  0  0  0  0  0  0  0  0  0  0  0
    3.3268   -5.2141    5.5518 F   0  0  0  0  0  0  0  0  0  0  0  0
    7.2336   -3.1322    3.3545 C   0  0  0  0  0  0  0  0  0  0  0  0
    7.9781   -2.2695    2.5723 C   0  0  0  0  0  0  0  0  0  0  0  0
    7.4651   -1.5343    1.5633 N   0  0  0  0  0  0  0  0  0  0  0  0
    6.1394   -1.6052    1.3268 C   0  0  0  0  0  0  0  0  0  0  0  0
    5.6147   -0.8836    0.2631 C   0  0  0  0  0  0  0  0  0  0  0  0
    2.3627    0.3089   -2.4367 H   0  0  0  0  0  0  0  0  0  0  0  0
    1.8643    0.0718   -0.7594 H   0  0  0  0  0  0  0  0  0  0  0  0
    2.2527   -1.3434   -1.8124 H   0  0  0  0  0  0  0  0  0  0  0  0
    2.3298   -1.7203    0.5471 H   0  0  0  0  0  0  0  0  0  0  0  0
    3.1780   -2.8582    2.4742 H   0  0  0  0  0  0  0  0  0  0  0  0
    4.9738   -5.0871    1.3410 H   0  0  0  0  0  0  0  0  0  0  0  0
    3.1302   -6.3520    0.5080 H   0  0  0  0  0  0  0  0  0  0  0  0
    0.2748   -7.6619    2.6216 H   0  0  0  0  0  0  0  0  0  0  0  0
    1.0113   -8.2542   -2.0924 H   0  0  0  0  0  0  0  0  0  0  0  0
   -0.5181   -7.9172   -2.9125 H   0  0  0  0  0  0  0  0  0  0  0  0
    0.1283   -9.5713   -2.7972 H   0  0  0  0  0  0  0  0  0  0  0  0
   -2.9117  -11.0823   -2.2160 H   0  0  0  0  0  0  0  0  0  0  0  0
   -2.0415   -9.8912   -3.1314 H   0  0  0  0  0  0  0  0  0  0  0  0
   -4.7046   -9.3488   -1.7111 H   0  0  0  0  0  0  0  0  0  0  0  0
   -5.6886  -10.0002   -3.7033 H   0  0  0  0  0  0  0  0  0  0  0  0
   -4.1188  -10.5589   -4.3195 H   0  0  0  0  0  0  0  0  0  0  0  0
   -4.9342   -8.4959   -5.6218 H   0  0  0  0  0  0  0  0  0  0  0  0
   -4.6980   -8.7805    1.6162 H   0  0  0  0  0  0  0  0  0  0  0  0
   -6.5700  -10.2391    2.3067 H   0  0  0  0  0  0  0  0  0  0  0  0
   -6.5168  -12.6657    1.7964 H   0  0  0  0  0  0  0  0  0  0  0  0
   -4.5887  -13.6314    0.5761 H   0  0  0  0  0  0  0  0  0  0  0  0
   -2.7234  -12.1816   -0.1539 H   0  0  0  0  0  0  0  0  0  0  0  0
    1.4720   -6.6405    4.4951 H   0  0  0  0  0  0  0  0  0  0  0  0
    7.7100   -3.7112    4.1358 H   0  0  0  0  0  0  0  0  0  0  0  0
    9.0468   -2.1487    2.7322 H   0  0  0  0  0  0  0  0  0  0  0  0
    6.2894   -0.2854   -0.3448 H   0  0  0  0  0  0  0  0  0  0  0  0
  1  2  1  0  0  0  0
  1 44  1  0  0  0  0
  1 45  1  0  0  0  0
  1 46  1  0  0  0  0
  2  3  1  0  0  0  0
  3  4  1  0  0  0  0
  3 43  2  0  0  0  0
  4  5  2  0  0  0  0
  4 47  1  0  0  0  0
  5  6  1  0  0  0  0
  5 48  1  0  0  0  0
  6  7  1  0  0  0  0
  6 42  2  0  0  0  0
  7  8  1  0  0  0  0
  7 39  2  0  0  0  0
  8  9  1  0  0  0  0
  9 10  1  0  0  0  0
  9 37  2  0  0  0  0
 10 11  2  0  0  0  0
 10 49  1  0  0  0  0
 11 12  1  0  0  0  0
 11 50  1  0  0  0  0
 12 13  1  0  0  0  0
 12 36  2  0  0  0  0
 13 14  1  0  0  0  0
 13 51  1  0  0  0  0
 14 15  2  0  0  0  0
 14 16  1  0  0  0  0
 16 17  2  0  0  0  0
 16 34  1  0  0  0  0
 17 18  1  0  0  0  0
 17 19  1  0  0  0  0
 18 52  1  0  0  0  0
 18 53  1  0  0  0  0
 18 54  1  0  0  0  0
 19 20  1  0  0  0  0
 19 27  1  0  0  0  0
 20 21  1  0  0  0  0
 20 55  1  0  0  0  0
 20 56  1  0  0  0  0
 21 22  1  0  0  0  0
 21 26  1  0  0  0  0
 21 57  1  0  0  0  0
 22 23  1  0  0  0  0
 22 58  1  0  0  0  0
 22 59  1  0  0  0  0
 23 24  1  0  0  0  0
 23 60  1  0  0  0  0
 24 25  2  0  0  0  0
 24 26  1  0  0  0  0
 27 28  1  0  0  0  0
 27 34  1  0  0  0  0
 28 29  1  0  0  0  0
 28 33  2  0  0  0  0
 29 30  2  0  0  0  0
 29 61  1  0  0  0  0
 30 31  1  0  0  0  0
 30 62  1  0  0  0  0
 31 32  2  0  0  0  0
 31 63  1  0  0  0  0
 32 33  1  0  0  0  0
 32 64  1  0  0  0  0
 33 65  1  0  0  0  0
 34 35  2  0  0  0  0
 36 37  1  0  0  0  0
 36 66  1  0  0  0  0
 37 38  1  0  0  0  0
 39 40  1  0  0  0  0
 39 67  1  0  0  0  0
 40 41  2  0  0  0  0
 40 68  1  0  0  0  0
 41 42  1  0  0  0  0
 42 43  1  0  0  0  0
 43 69  1  0  0  0  0
M  END
$$$$
