CHEMBL3678950
 OpenBabel04072215373D

 63 67  0  0  0  0  0  0  0  0999 V2000
    2.1842    1.5102    0.6927 C   0  0  0  0  0  0  0  0  0  0  0  0
    2.5078    0.1355    0.0967 C   0  0  0  0  0  0  0  0  0  0  0  0
    3.4744    0.2928   -1.0804 C   0  0  0  0  0  0  0  0  0  0  0  0
    2.9438   -0.8649    1.0676 N   0  0  0  0  0  0  0  0  0  0  0  0
    2.7541   -2.2369    0.9757 C   0  0  0  0  0  0  0  0  0  0  0  0
    2.2427   -2.8423   -0.1239 N   0  0  0  0  0  0  0  0  0  0  0  0
    2.5566   -4.1732   -0.4755 C   0  0  0  0  0  0  0  0  0  0  0  0
    1.6270   -4.9540   -1.1721 C   0  0  0  0  0  0  0  0  0  0  0  0
    1.8962   -6.2998   -1.4527 C   0  0  0  0  0  0  0  0  0  0  0  0
    3.0981   -6.8723   -1.0407 C   0  0  0  0  0  0  0  0  0  0  0  0
    3.4607   -8.6902   -1.3997 Br  0  0  0  0  0  0  0  0  0  0  0  0
    4.0352   -6.1136   -0.3493 C   0  0  0  0  0  0  0  0  0  0  0  0
    3.7586   -4.7820   -0.0684 C   0  0  0  0  0  0  0  0  0  0  0  0
    3.1541   -2.8447    2.0775 N   0  0  0  0  0  0  0  0  0  0  0  0
    3.6773   -1.8771    2.8734 C   0  0  0  0  0  0  0  0  0  0  0  0
    4.2603   -1.9096    4.1319 C   0  0  0  0  0  0  0  0  0  0  0  0
    4.7162   -0.7595    4.6888 N   0  0  0  0  0  0  0  0  0  0  0  0
    4.6151    0.3873    3.9858 C   0  0  0  0  0  0  0  0  0  0  0  0
    5.1134    1.5303    4.6077 N   0  0  0  0  0  0  0  0  0  0  0  0
    5.6045    2.6834    3.9834 C   0  0  0  0  0  0  0  0  0  0  0  0
    5.5082    3.9123    4.6278 C   0  0  0  0  0  0  0  0  0  0  0  0
    5.8760    5.0889    3.9665 C   0  0  0  0  0  0  0  0  0  0  0  0
    6.3719    5.0805    2.6541 C   0  0  0  0  0  0  0  0  0  0  0  0
    6.7469    6.2643    2.0523 N   0  0  0  0  0  0  0  0  0  0  0  0
    7.7425    6.3063    0.9736 C   0  0  0  0  0  0  0  0  0  0  0  0
    8.4991    7.6536    1.0559 C   0  0  0  0  0  0  0  0  0  0  0  0
    7.5898    8.8227    0.9852 N   0  0  0  0  0  0  0  0  0  0  0  0
    8.3457   10.0659    1.1096 C   0  0  0  0  0  0  0  0  0  0  0  0
    6.5792    8.7184    2.0650 C   0  0  0  0  0  0  0  0  0  0  0  0
    5.7936    7.3873    2.0163 C   0  0  0  0  0  0  0  0  0  0  0  0
    6.5138    3.8368    2.0364 C   0  0  0  0  0  0  0  0  0  0  0  0
    6.1300    2.6611    2.6872 C   0  0  0  0  0  0  0  0  0  0  0  0
    4.0550    0.5059    2.7624 N   0  0  0  0  0  0  0  0  0  0  0  0
    3.5975   -0.6453    2.2598 C   0  0  0  0  0  0  0  0  0  0  0  0
    1.7823    2.1804   -0.0747 H   0  0  0  0  0  0  0  0  0  0  0  0
    3.0727    2.0004    1.1015 H   0  0  0  0  0  0  0  0  0  0  0  0
    1.4381    1.4223    1.4888 H   0  0  0  0  0  0  0  0  0  0  0  0
    1.5588   -0.2439   -0.3038 H   0  0  0  0  0  0  0  0  0  0  0  0
    4.4359    0.7088   -0.7641 H   0  0  0  0  0  0  0  0  0  0  0  0
    3.0481    0.9716   -1.8319 H   0  0  0  0  0  0  0  0  0  0  0  0
    3.6656   -0.6618   -1.5811 H   0  0  0  0  0  0  0  0  0  0  0  0
    1.7861   -2.3294   -0.8677 H   0  0  0  0  0  0  0  0  0  0  0  0
    0.6672   -4.5367   -1.4664 H   0  0  0  0  0  0  0  0  0  0  0  0
    1.1558   -6.8979   -1.9766 H   0  0  0  0  0  0  0  0  0  0  0  0
    4.9740   -6.5419   -0.0107 H   0  0  0  0  0  0  0  0  0  0  0  0
    4.5013   -4.2041    0.4807 H   0  0  0  0  0  0  0  0  0  0  0  0
    4.3763   -2.8211    4.7032 H   0  0  0  0  0  0  0  0  0  0  0  0
    5.4530    1.3335    5.5387 H   0  0  0  0  0  0  0  0  0  0  0  0
    5.1102    3.9781    5.6375 H   0  0  0  0  0  0  0  0  0  0  0  0
    5.7950    6.0289    4.5046 H   0  0  0  0  0  0  0  0  0  0  0  0
    7.2562    6.2000   -0.0054 H   0  0  0  0  0  0  0  0  0  0  0  0
    8.4788    5.5008    1.0766 H   0  0  0  0  0  0  0  0  0  0  0  0
    9.2249    7.6964    0.2353 H   0  0  0  0  0  0  0  0  0  0  0  0
    9.0651    7.6750    1.9978 H   0  0  0  0  0  0  0  0  0  0  0  0
    9.0714   10.1526    0.2940 H   0  0  0  0  0  0  0  0  0  0  0  0
    8.8855   10.1334    2.0610 H   0  0  0  0  0  0  0  0  0  0  0  0
    7.6759   10.9287    1.0302 H   0  0  0  0  0  0  0  0  0  0  0  0
    5.8652    9.5460    1.9846 H   0  0  0  0  0  0  0  0  0  0  0  0
    7.0655    8.7960    3.0477 H   0  0  0  0  0  0  0  0  0  0  0  0
    5.1974    7.3377    1.0948 H   0  0  0  0  0  0  0  0  0  0  0  0
    5.0854    7.3697    2.8518 H   0  0  0  0  0  0  0  0  0  0  0  0
    6.8946    3.7548    1.0246 H   0  0  0  0  0  0  0  0  0  0  0  0
    6.2525    1.7183    2.1596 H   0  0  0  0  0  0  0  0  0  0  0  0
  1  2  1  0  0  0  0
  1 35  1  0  0  0  0
  1 36  1  0  0  0  0
  1 37  1  0  0  0  0
  2  3  1  0  0  0  0
  2  4  1  0  0  0  0
  2 38  1  0  0  0  0
  3 39  1  0  0  0  0
  3 40  1  0  0  0  0
  3 41  1  0  0  0  0
  4  5  1  0  0  0  0
  4 34  1  0  0  0  0
  5  6  1  0  0  0  0
  5 14  2  0  0  0  0
  6  7  1  0  0  0  0
  6 42  1  0  0  0  0
  7  8  1  0  0  0  0
  7 13  2  0  0  0  0
  8  9  2  0  0  0  0
  8 43  1  0  0  0  0
  9 10  1  0  0  0  0
  9 44  1  0  0  0  0
 10 11  1  0  0  0  0
 10 12  2  0  0  0  0
 12 13  1  0  0  0  0
 12 45  1  0  0  0  0
 13 46  1  0  0  0  0
 14 15  1  0  0  0  0
 15 16  1  0  0  0  0
 15 34  2  0  0  0  0
 16 17  2  0  0  0  0
 16 47  1  0  0  0  0
 17 18  1  0  0  0  0
 18 19  1  0  0  0  0
 18 33  2  0  0  0  0
 19 20  1  0  0  0  0
 19 48  1  0  0  0  0
 20 21  1  0  0  0  0
 20 32  2  0  0  0  0
 21 22  2  0  0  0  0
 21 49  1  0  0  0  0
 22 23  1  0  0  0  0
 22 50  1  0  0  0  0
 23 24  1  0  0  0  0
 23 31  2  0  0  0  0
 24 25  1  0  0  0  0
 24 30  1  0  0  0  0
 25 26  1  0  0  0  0
 25 51  1  0  0  0  0
 25 52  1  0  0  0  0
 26 27  1  0  0  0  0
 26 53  1  0  0  0  0
 26 54  1  0  0  0  0
 27 28  1  0  0  0  0
 27 29  1  0  0  0  0
 28 55  1  0  0  0  0
 28 56  1  0  0  0  0
 28 57  1  0  0  0  0
 29 30  1  0  0  0  0
 29 58  1  0  0  0  0
 29 59  1  0  0  0  0
 30 60  1  0  0  0  0
 30 61  1  0  0  0  0
 31 32  1  0  0  0  0
 31 62  1  0  0  0  0
 32 63  1  0  0  0  0
 33 34  1  0  0  0  0
M  END
$$$$
