CHEMBL2322135
 OpenBabel04072215363D

 34 37  0  0  0  0  0  0  0  0999 V2000
   -2.9615   -0.7676   -0.0012 C   0  0  0  0  0  0  0  0  0  0  0  0
   -1.7693   -1.4691   -0.0327 C   0  0  0  0  0  0  0  0  0  0  0  0
   -0.7793   -0.4879   -0.0356 C   0  0  0  0  0  0  0  0  0  0  0  0
   -1.3185    0.7734   -0.0100 C   0  0  0  0  0  0  0  0  0  0  0  0
   -0.6715    1.9501   -0.0048 N   0  0  0  0  0  0  0  0  0  0  0  0
    0.6831    1.8723   -0.0332 C   0  0  0  0  0  0  0  0  0  0  0  0
    1.3142    0.6347   -0.0688 C   0  0  0  0  0  0  0  0  0  0  0  0
    2.6176    0.2273   -0.0940 N   0  0  0  0  0  0  0  0  0  0  0  0
    2.7808   -1.1191   -0.1016 N   0  0  0  0  0  0  0  0  0  0  0  0
    1.5264   -1.6093   -0.0523 C   0  0  0  0  0  0  0  0  0  0  0  0
    1.2381   -3.0723    0.0847 C   0  0  0  0  0  0  0  0  0  0  0  0
    2.3299   -3.8577    0.8228 C   0  0  0  0  0  0  0  0  0  0  0  0
    1.8645   -5.2905    1.0758 C   0  0  0  0  0  0  0  0  0  0  0  0
    1.4715   -5.9885   -0.2241 C   0  0  0  0  0  0  0  0  0  0  0  0
    0.4381   -5.1889   -1.0150 C   0  0  0  0  0  0  0  0  0  0  0  0
    0.8964   -3.7487   -1.2516 C   0  0  0  0  0  0  0  0  0  0  0  0
    0.6215   -0.5491   -0.0650 C   0  0  0  0  0  0  0  0  0  0  0  0
   -2.6750    0.5822    0.0148 N   0  0  0  0  0  0  0  0  0  0  0  0
   -3.9865   -1.1138    0.0091 H   0  0  0  0  0  0  0  0  0  0  0  0
   -1.6757   -2.5455   -0.0572 H   0  0  0  0  0  0  0  0  0  0  0  0
    1.2214    2.8126   -0.0162 H   0  0  0  0  0  0  0  0  0  0  0  0
    3.4492    0.8056   -0.0896 H   0  0  0  0  0  0  0  0  0  0  0  0
    0.3494   -3.1447    0.7255 H   0  0  0  0  0  0  0  0  0  0  0  0
    2.5586   -3.3773    1.7820 H   0  0  0  0  0  0  0  0  0  0  0  0
    3.2604   -3.8686    0.2408 H   0  0  0  0  0  0  0  0  0  0  0  0
    1.0018   -5.2744    1.7547 H   0  0  0  0  0  0  0  0  0  0  0  0
    2.6560   -5.8541    1.5799 H   0  0  0  0  0  0  0  0  0  0  0  0
    1.0724   -6.9837    0.0012 H   0  0  0  0  0  0  0  0  0  0  0  0
    2.3662   -6.1323   -0.8416 H   0  0  0  0  0  0  0  0  0  0  0  0
   -0.5111   -5.1782   -0.4632 H   0  0  0  0  0  0  0  0  0  0  0  0
    0.2405   -5.6813   -1.9735 H   0  0  0  0  0  0  0  0  0  0  0  0
    0.1010   -3.2031   -1.7738 H   0  0  0  0  0  0  0  0  0  0  0  0
    1.7666   -3.7409   -1.9205 H   0  0  0  0  0  0  0  0  0  0  0  0
   -3.3462    1.3361    0.0379 H   0  0  0  0  0  0  0  0  0  0  0  0
  1  2  2  0  0  0  0
  1 18  1  0  0  0  0
  1 19  1  0  0  0  0
  2  3  1  0  0  0  0
  2 20  1  0  0  0  0
  3  4  1  0  0  0  0
  3 17  2  0  0  0  0
  4  5  2  0  0  0  0
  4 18  1  0  0  0  0
  5  6  1  0  0  0  0
  6  7  2  0  0  0  0
  6 21  1  0  0  0  0
  7  8  1  0  0  0  0
  7 17  1  0  0  0  0
  8  9  1  0  0  0  0
  8 22  1  0  0  0  0
  9 10  2  0  0  0  0
 10 11  1  0  0  0  0
 10 17  1  0  0  0  0
 11 12  1  0  0  0  0
 11 16  1  0  0  0  0
 11 23  1  0  0  0  0
 12 13  1  0  0  0  0
 12 24  1  0  0  0  0
 12 25  1  0  0  0  0
 13 14  1  0  0  0  0
 13 26  1  0  0  0  0
 13 27  1  0  0  0  0
 14 15  1  0  0  0  0
 14 28  1  0  0  0  0
 14 29  1  0  0  0  0
 15 16  1  0  0  0  0
 15 30  1  0  0  0  0
 15 31  1  0  0  0  0
 16 32  1  0  0  0  0
 16 33  1  0  0  0  0
 18 34  1  0  0  0  0
M  END
$$$$
