CHEMBL250837
 OpenBabel04072215363D

 40 43  0  0  0  0  0  0  0  0999 V2000
    1.4060   -0.4307   -0.4015 C   0  0  0  0  0  0  0  0  0  0  0  0
    2.5999    0.1676    0.0986 O   0  0  0  0  0  0  0  0  0  0  0  0
    3.2170   -0.4717    1.1451 C   0  0  0  0  0  0  0  0  0  0  0  0
    2.7586   -1.6384    1.7520 C   0  0  0  0  0  0  0  0  0  0  0  0
    3.4496   -2.2130    2.8212 C   0  0  0  0  0  0  0  0  0  0  0  0
    4.6179   -1.5827    3.2742 C   0  0  0  0  0  0  0  0  0  0  0  0
    5.1176   -0.4153    2.6851 C   0  0  0  0  0  0  0  0  0  0  0  0
    4.3966    0.1423    1.6019 C   0  0  0  0  0  0  0  0  0  0  0  0
    6.3187   -0.0723    3.3926 C   0  0  0  0  0  0  0  0  0  0  0  0
    7.1613    1.0640    3.1792 C   0  0  0  0  0  0  0  0  0  0  0  0
    8.4860    1.1830    3.3794 C   0  0  0  0  0  0  0  0  0  0  0  0
    9.4539    0.1587    3.8526 C   0  0  0  0  0  0  0  0  0  0  0  0
    9.3479   -1.0468    3.9305 O   0  0  0  0  0  0  0  0  0  0  0  0
   10.5736    0.9088    4.1657 N   0  0  0  0  0  0  0  0  0  0  0  0
   10.5079    2.2312    3.8076 N   0  0  0  0  0  0  0  0  0  0  0  0
    9.3126    2.4257    3.2970 C   0  0  0  0  0  0  0  0  0  0  0  0
    8.9617    3.7017    2.7426 C   0  0  0  0  0  0  0  0  0  0  0  0
    7.9132    3.8734    1.3972 S   0  0  0  0  0  0  0  0  0  0  0  0
    8.0547    5.5307    1.3556 N   0  0  0  0  0  0  0  0  0  0  0  0
    8.9015    5.9929    2.2557 N   0  0  0  0  0  0  0  0  0  0  0  0
    9.4508    4.9736    3.0280 C   0  0  0  0  0  0  0  0  0  0  0  0
   10.4636    5.3588    4.0456 C   0  0  0  0  0  0  0  0  0  0  0  0
    6.4649   -0.9858    4.4126 C   0  0  0  0  0  0  0  0  0  0  0  0
    5.4683   -1.9137    4.3050 N   0  0  0  0  0  0  0  0  0  0  0  0
    5.3202   -3.0622    5.1696 C   0  0  0  0  0  0  0  0  0  0  0  0
    1.0426    0.1825   -1.2305 H   0  0  0  0  0  0  0  0  0  0  0  0
    0.6236   -0.4511    0.3646 H   0  0  0  0  0  0  0  0  0  0  0  0
    1.6019   -1.4348   -0.7919 H   0  0  0  0  0  0  0  0  0  0  0  0
    1.8534   -2.1374    1.4208 H   0  0  0  0  0  0  0  0  0  0  0  0
    3.0803   -3.1205    3.2871 H   0  0  0  0  0  0  0  0  0  0  0  0
    4.7459    1.0503    1.1190 H   0  0  0  0  0  0  0  0  0  0  0  0
    6.6060    1.9404    2.8643 H   0  0  0  0  0  0  0  0  0  0  0  0
   11.4414    0.4994    4.4931 H   0  0  0  0  0  0  0  0  0  0  0  0
   10.7042    6.4246    3.9678 H   0  0  0  0  0  0  0  0  0  0  0  0
   11.3950    4.8033    3.9031 H   0  0  0  0  0  0  0  0  0  0  0  0
   10.0875    5.1707    5.0556 H   0  0  0  0  0  0  0  0  0  0  0  0
    7.2031   -1.0667    5.1995 H   0  0  0  0  0  0  0  0  0  0  0  0
    6.1447   -3.0898    5.8856 H   0  0  0  0  0  0  0  0  0  0  0  0
    5.3360   -3.9634    4.5519 H   0  0  0  0  0  0  0  0  0  0  0  0
    4.3697   -2.9704    5.7005 H   0  0  0  0  0  0  0  0  0  0  0  0
  1  2  1  0  0  0  0
  1 26  1  0  0  0  0
  1 27  1  0  0  0  0
  1 28  1  0  0  0  0
  2  3  1  0  0  0  0
  3  4  1  0  0  0  0
  3  8  2  0  0  0  0
  4  5  2  0  0  0  0
  4 29  1  0  0  0  0
  5  6  1  0  0  0  0
  5 30  1  0  0  0  0
  6  7  2  0  0  0  0
  6 24  1  0  0  0  0
  7  8  1  0  0  0  0
  7  9  1  0  0  0  0
  8 31  1  0  0  0  0
  9 10  1  0  0  0  0
  9 23  2  0  0  0  0
 10 11  2  0  0  0  0
 10 32  1  0  0  0  0
 11 12  1  0  0  0  0
 11 16  1  0  0  0  0
 12 13  2  0  0  0  0
 12 14  1  0  0  0  0
 14 15  1  0  0  0  0
 14 33  1  0  0  0  0
 15 16  2  0  0  0  0
 16 17  1  0  0  0  0
 17 18  1  0  0  0  0
 17 21  2  0  0  0  0
 18 19  1  0  0  0  0
 19 20  2  0  0  0  0
 20 21  1  0  0  0  0
 21 22  1  0  0  0  0
 22 34  1  0  0  0  0
 22 35  1  0  0  0  0
 22 36  1  0  0  0  0
 23 24  1  0  0  0  0
 23 37  1  0  0  0  0
 24 25  1  0  0  0  0
 25 38  1  0  0  0  0
 25 39  1  0  0  0  0
 25 40  1  0  0  0  0
M  END
$$$$
