CHEMBL3951728
 OpenBabel04072215373D

 73 76  0  0  1  0  0  0  0  0999 V2000
    0.9486    3.2586   -4.5087 C   0  0  0  0  0  0  0  0  0  0  0  0
    2.0840    2.5132   -4.7745 O   0  0  0  0  0  0  0  0  0  0  0  0
    2.7716    1.8376   -3.8305 C   0  0  0  0  0  0  0  0  0  0  0  0
    2.1542    1.4765   -2.6211 C   0  0  0  0  0  0  0  0  0  0  0  0
    2.8900    0.8718   -1.6118 C   0  0  0  0  0  0  0  0  0  0  0  0
    2.2930    0.4269   -0.4660 O   0  0  0  0  0  0  0  0  0  0  0  0
    0.9762   -0.0194   -0.3826 C   0  0  0  0  0  0  0  0  0  0  0  0
    4.2337    0.6723   -1.8411 C   0  0  0  0  0  0  0  0  0  0  0  0
    4.8691    0.8110   -3.1266 C   0  0  0  0  0  0  0  0  0  0  0  0
    6.1873    0.1926   -3.4030 N   0  0  0  0  0  0  0  0  0  0  0  0
    6.5905   -0.8135   -2.3457 C   0  0  0  0  0  0  0  0  0  0  0  0
    5.7802   -1.8455   -1.5027 C   0  0  0  0  0  0  0  0  0  0  0  0
    5.6175   -3.2369   -1.9263 N   0  0  0  0  0  0  0  0  0  0  0  0
    5.1083   -4.0111   -0.7709 C   0  0  0  0  0  0  0  0  0  0  0  0
    6.2072   -4.3841    0.2864 C   0  0  2  0  0  0  0  0  0  0  0  0
    6.7641   -3.3574    1.3358 C   0  0  0  0  0  0  0  0  0  0  0  0
    7.2645   -5.1006   -0.3200 O   0  0  0  0  0  0  0  0  0  0  0  0
    7.8212   -4.4618   -1.4659 C   0  0  2  0  0  0  0  0  0  0  0  0
    8.8857   -3.4130   -1.1172 C   0  0  0  0  0  0  0  0  0  0  0  0
    6.7621   -3.9910   -2.5027 C   0  0  0  0  0  0  0  0  0  0  0  0
    7.3657    0.7485   -4.2006 C   0  0  0  0  0  0  0  0  0  0  0  0
    8.5562    0.5156   -3.4909 C   0  0  0  0  0  0  0  0  0  0  0  0
    9.7230    0.9406   -3.7689 C   0  0  0  0  0  0  0  0  0  0  0  0
    9.9595    1.6329   -4.8410 C   0  0  0  0  0  0  0  0  0  0  0  0
   11.1373    2.1793   -4.7274 N   0  0  0  0  0  0  0  0  0  0  0  0
   11.7191    2.8135   -5.6692 C   0  0  0  0  0  0  0  0  0  0  0  0
   11.2722    2.6473   -6.9557 C   0  0  0  0  0  0  0  0  0  0  0  0
   12.6146    2.7603   -7.8280 C   0  0  0  0  0  0  0  0  0  0  0  0
   13.8174    2.3322   -7.1714 C   0  0  0  0  0  0  0  0  0  0  0  0
   14.8938    2.4683   -7.9197 N   0  0  0  0  0  0  0  0  0  0  0  0
   14.5197    2.9277   -9.0877 N   0  0  0  0  0  0  0  0  0  0  0  0
   15.5873    3.1402  -10.0705 C   0  0  0  0  0  0  0  0  0  0  0  0
   13.1441    3.1050   -9.1132 C   0  0  0  0  0  0  0  0  0  0  0  0
    9.8585    2.3363   -7.0769 N   0  0  0  0  0  0  0  0  0  0  0  0
    9.1114    1.8527   -5.9321 C   0  0  0  0  0  0  0  0  0  0  0  0
    7.6455    1.4581   -5.5456 C   0  0  0  0  0  0  0  0  0  0  0  0
    4.1094    1.4582   -4.0995 C   0  0  0  0  0  0  0  0  0  0  0  0
    2.0206    1.4366    2.4350 Cl  0  0  0  0  0  0  0  0  0  0  0  0
    0.5913    3.7070   -5.4502 H   0  0  0  0  0  0  0  0  0  0  0  0
    1.2034    4.0732   -3.7889 H   0  0  0  0  0  0  0  0  0  0  0  0
    0.1395    2.6339   -4.0890 H   0  0  0  0  0  0  0  0  0  0  0  0
    1.1098    1.6685   -2.4308 H   0  0  0  0  0  0  0  0  0  0  0  0
    0.7497   -0.4442    0.6199 H   0  0  0  0  0  0  0  0  0  0  0  0
    0.8021   -0.8431   -1.1122 H   0  0  0  0  0  0  0  0  0  0  0  0
    0.2571    0.8004   -0.5669 H   0  0  0  0  0  0  0  0  0  0  0  0
    4.7773    0.3471   -0.9605 H   0  0  0  0  0  0  0  0  0  0  0  0
    6.9908   -0.1560   -1.5251 H   0  0  0  0  0  0  0  0  0  0  0  0
    7.3654   -1.4679   -2.7700 H   0  0  0  0  0  0  0  0  0  0  0  0
    4.8292   -1.5609   -1.0568 H   0  0  0  0  0  0  0  0  0  0  0  0
    6.4047   -1.8817   -0.6144 H   0  0  0  0  0  0  0  0  0  0  0  0
    4.6911   -4.9599   -1.1654 H   0  0  0  0  0  0  0  0  0  0  0  0
    4.2428   -3.5015   -0.2770 H   0  0  0  0  0  0  0  0  0  0  0  0
    5.6654   -5.1018    0.9434 H   0  0  0  0  0  0  0  0  0  0  0  0
    7.4154   -2.5461    1.0090 H   0  0  0  0  0  0  0  0  0  0  0  0
    7.4063   -3.9096    2.0493 H   0  0  0  0  0  0  0  0  0  0  0  0
    5.9366   -2.8803    1.9097 H   0  0  0  0  0  0  0  0  0  0  0  0
    8.4038   -5.2550   -1.9803 H   0  0  0  0  0  0  0  0  0  0  0  0
    8.4839   -2.4594   -0.7604 H   0  0  0  0  0  0  0  0  0  0  0  0
    9.4693   -3.1638   -2.0260 H   0  0  0  0  0  0  0  0  0  0  0  0
    9.5755   -3.8266   -0.3506 H   0  0  0  0  0  0  0  0  0  0  0  0
    6.3250   -4.9123   -2.9432 H   0  0  0  0  0  0  0  0  0  0  0  0
    7.2348   -3.4818   -3.3729 H   0  0  0  0  0  0  0  0  0  0  0  0
    8.6766    0.0324   -2.5639 H   0  0  0  0  0  0  0  0  0  0  0  0
   10.5296    0.7190   -3.0885 H   0  0  0  0  0  0  0  0  0  0  0  0
   12.6536    3.2002   -5.3404 H   0  0  0  0  0  0  0  0  0  0  0  0
   13.9607    1.9227   -6.1765 H   0  0  0  0  0  0  0  0  0  0  0  0
   16.5852    2.8965   -9.6076 H   0  0  0  0  0  0  0  0  0  0  0  0
   15.6602    4.1986  -10.3905 H   0  0  0  0  0  0  0  0  0  0  0  0
   15.4717    2.4480  -10.9211 H   0  0  0  0  0  0  0  0  0  0  0  0
   12.6201    3.4709   -9.9836 H   0  0  0  0  0  0  0  0  0  0  0  0
    6.8287    1.6679   -6.2470 H   0  0  0  0  0  0  0  0  0  0  0  0
    4.5426    1.6590   -5.0582 H   0  0  0  0  0  0  0  0  0  0  0  0
    2.3191    0.1155    2.1774 H   0  0  0  0  0  0  0  0  0  0  0  0
  1  2  1  0  0  0  0
  1 39  1  0  0  0  0
  1 40  1  0  0  0  0
  1 41  1  0  0  0  0
  2  3  1  0  0  0  0
  3  4  1  0  0  0  0
  3 37  2  0  0  0  0
  4  5  2  0  0  0  0
  4 42  1  0  0  0  0
  5  6  1  0  0  0  0
  5  8  1  0  0  0  0
  6  7  1  0  0  0  0
  7 43  1  0  0  0  0
  7 44  1  0  0  0  0
  7 45  1  0  0  0  0
  8  9  2  0  0  0  0
  8 46  1  0  0  0  0
  9 10  1  0  0  0  0
  9 37  1  0  0  0  0
 10 11  1  0  0  0  0
 10 21  1  0  0  0  0
 11 12  1  0  0  0  0
 11 47  1  0  0  0  0
 11 48  1  0  0  0  0
 12 13  1  0  0  0  0
 12 49  1  0  0  0  0
 12 50  1  0  0  0  0
 13 14  1  0  0  0  0
 13 20  1  0  0  0  0
 14 15  1  0  0  0  0
 14 51  1  0  0  0  0
 14 52  1  0  0  0  0
 15 17  1  0  0  0  0
 15 16  1  0  0  0  0
 15 53  1  1  0  0  0
 16 54  1  0  0  0  0
 16 55  1  0  0  0  0
 16 56  1  0  0  0  0
 17 18  1  0  0  0  0
 18 20  1  0  0  0  0
 18 19  1  0  0  0  0
 18 57  1  6  0  0  0
 19 58  1  0  0  0  0
 19 59  1  0  0  0  0
 19 60  1  0  0  0  0
 20 61  1  0  0  0  0
 20 62  1  0  0  0  0
 21 22  1  0  0  0  0
 21 36  2  0  0  0  0
 22 23  2  0  0  0  0
 22 63  1  0  0  0  0
 23 24  1  0  0  0  0
 23 64  1  0  0  0  0
 24 25  1  0  0  0  0
 24 35  2  0  0  0  0
 25 26  2  0  0  0  0
 26 27  1  0  0  0  0
 26 65  1  0  0  0  0
 27 28  1  0  0  0  0
 27 34  2  0  0  0  0
 28 29  1  0  0  0  0
 28 33  2  0  0  0  0
 29 30  2  0  0  0  0
 29 66  1  0  0  0  0
 30 31  1  0  0  0  0
 31 32  1  0  0  0  0
 31 33  1  0  0  0  0
 32 67  1  0  0  0  0
 32 68  1  0  0  0  0
 32 69  1  0  0  0  0
 33 70  1  0  0  0  0
 34 35  1  0  0  0  0
 35 36  1  0  0  0  0
 36 71  1  0  0  0  0
 37 72  1  0  0  0  0
 38 73  1  0  0  0  0
M  END
$$$$
