CHEMBL2063436
 OpenBabel04072215363D

 67 71  0  0  0  0  0  0  0  0999 V2000
    4.1228    3.9658   -4.0312 C   0  0  0  0  0  0  0  0  0  0  0  0
    3.8548    2.8934   -3.0225 C   0  0  0  0  0  0  0  0  0  0  0  0
    2.8519    3.1292   -2.1626 N   0  0  0  0  0  0  0  0  0  0  0  0
    2.6185    2.2160   -1.2061 C   0  0  0  0  0  0  0  0  0  0  0  0
    1.6473    2.4715   -0.2127 N   0  0  0  0  0  0  0  0  0  0  0  0
    0.9585    3.6323   -0.0810 C   0  0  0  0  0  0  0  0  0  0  0  0
    0.0682    4.0798    0.8583 C   0  0  0  0  0  0  0  0  0  0  0  0
   -0.2890    5.4057    0.4583 C   0  0  0  0  0  0  0  0  0  0  0  0
   -1.1923    6.3493    1.1245 C   0  0  0  0  0  0  0  0  0  0  0  0
   -1.7828    6.0427    2.3562 C   0  0  0  0  0  0  0  0  0  0  0  0
   -2.6505    6.9461    2.9784 C   0  0  0  0  0  0  0  0  0  0  0  0
   -2.9571    8.1720    2.3757 C   0  0  0  0  0  0  0  0  0  0  0  0
   -3.9248    9.1203    3.0291 C   0  0  0  0  0  0  0  0  0  0  0  0
   -3.2822   10.0038    3.9673 N   0  0  0  0  0  0  0  0  0  0  0  0
   -3.9724   11.0407    4.5227 C   0  0  0  0  0  0  0  0  0  0  0  0
   -5.1690   11.2353    4.3666 O   0  0  0  0  0  0  0  0  0  0  0  0
   -3.1243   11.8513    5.1995 O   0  0  0  0  0  0  0  0  0  0  0  0
   -3.6166   13.1756    5.4481 C   0  0  0  0  0  0  0  0  0  0  0  0
   -3.8011   13.4851    6.9145 C   0  0  0  0  0  0  0  0  0  0  0  0
   -3.0525   14.5057    7.5224 C   0  0  0  0  0  0  0  0  0  0  0  0
   -3.3035   14.8862    8.8426 C   0  0  0  0  0  0  0  0  0  0  0  0
   -4.3030   14.2486    9.5731 C   0  0  0  0  0  0  0  0  0  0  0  0
   -5.0429   13.2223    8.9874 C   0  0  0  0  0  0  0  0  0  0  0  0
   -4.7937   12.8407    7.6656 C   0  0  0  0  0  0  0  0  0  0  0  0
   -2.3538    8.4936    1.1534 C   0  0  0  0  0  0  0  0  0  0  0  0
   -1.4841    7.5895    0.5350 C   0  0  0  0  0  0  0  0  0  0  0  0
    0.3394    5.7361   -0.6824 N   0  0  0  0  0  0  0  0  0  0  0  0
    1.0828    4.6620   -0.9732 N   0  0  0  0  0  0  0  0  0  0  0  0
    3.3995    1.0915   -1.1050 C   0  0  0  0  0  0  0  0  0  0  0  0
    4.4283    0.9237   -2.0191 C   0  0  0  0  0  0  0  0  0  0  0  0
    5.2160   -0.2153   -1.8881 N   0  0  0  0  0  0  0  0  0  0  0  0
    5.9235   -0.7182   -3.0704 C   0  0  0  0  0  0  0  0  0  0  0  0
    6.3292   -2.1902   -2.7783 C   0  0  0  0  0  0  0  0  0  0  0  0
    7.1228   -2.3743   -1.5362 N   0  0  0  0  0  0  0  0  0  0  0  0
    6.4303   -1.7211   -0.4022 C   0  0  0  0  0  0  0  0  0  0  0  0
    6.0566   -0.2493   -0.6804 C   0  0  0  0  0  0  0  0  0  0  0  0
    4.6509    1.8112   -3.0002 N   0  0  0  0  0  0  0  0  0  0  0  0
    3.4146    4.7936   -3.9073 H   0  0  0  0  0  0  0  0  0  0  0  0
    4.0165    3.5729   -5.0450 H   0  0  0  0  0  0  0  0  0  0  0  0
    5.1322    4.3627   -3.8934 H   0  0  0  0  0  0  0  0  0  0  0  0
    1.3683    1.6571    0.3229 H   0  0  0  0  0  0  0  0  0  0  0  0
   -0.2645    3.5392    1.7311 H   0  0  0  0  0  0  0  0  0  0  0  0
   -1.5837    5.0970    2.8517 H   0  0  0  0  0  0  0  0  0  0  0  0
   -3.0999    6.6792    3.9323 H   0  0  0  0  0  0  0  0  0  0  0  0
   -4.7049    8.5628    3.5614 H   0  0  0  0  0  0  0  0  0  0  0  0
   -4.4381    9.7204    2.2679 H   0  0  0  0  0  0  0  0  0  0  0  0
   -2.2754   10.0233    4.0477 H   0  0  0  0  0  0  0  0  0  0  0  0
   -4.5473   13.4003    4.9127 H   0  0  0  0  0  0  0  0  0  0  0  0
   -2.8644   13.8524    5.0263 H   0  0  0  0  0  0  0  0  0  0  0  0
   -2.2820   15.0315    6.9628 H   0  0  0  0  0  0  0  0  0  0  0  0
   -2.7298   15.6914    9.2947 H   0  0  0  0  0  0  0  0  0  0  0  0
   -4.5104   14.5564   10.5948 H   0  0  0  0  0  0  0  0  0  0  0  0
   -5.8283   12.7303    9.5556 H   0  0  0  0  0  0  0  0  0  0  0  0
   -5.3998   12.0572    7.2147 H   0  0  0  0  0  0  0  0  0  0  0  0
   -2.5647    9.4412    0.6631 H   0  0  0  0  0  0  0  0  0  0  0  0
   -1.0387    7.8565   -0.4225 H   0  0  0  0  0  0  0  0  0  0  0  0
    1.6656    4.6573   -1.8026 H   0  0  0  0  0  0  0  0  0  0  0  0
    3.2237    0.3483   -0.3387 H   0  0  0  0  0  0  0  0  0  0  0  0
    6.8181   -0.1170   -3.2794 H   0  0  0  0  0  0  0  0  0  0  0  0
    5.2809   -0.7007   -3.9583 H   0  0  0  0  0  0  0  0  0  0  0  0
    6.9047   -2.5874   -3.6208 H   0  0  0  0  0  0  0  0  0  0  0  0
    5.4212   -2.8020   -2.6990 H   0  0  0  0  0  0  0  0  0  0  0  0
    8.0187   -1.9068   -1.6683 H   0  0  0  0  0  0  0  0  0  0  0  0
    7.0707   -1.7724    0.4848 H   0  0  0  0  0  0  0  0  0  0  0  0
    5.5180   -2.2850   -0.1686 H   0  0  0  0  0  0  0  0  0  0  0  0
    6.9660    0.3479   -0.8369 H   0  0  0  0  0  0  0  0  0  0  0  0
    5.5472    0.1594    0.1996 H   0  0  0  0  0  0  0  0  0  0  0  0
  1  2  1  0  0  0  0
  1 38  1  0  0  0  0
  1 39  1  0  0  0  0
  1 40  1  0  0  0  0
  2  3  1  0  0  0  0
  2 37  2  0  0  0  0
  3  4  2  0  0  0  0
  4  5  1  0  0  0  0
  4 29  1  0  0  0  0
  5  6  1  0  0  0  0
  5 41  1  0  0  0  0
  6  7  2  0  0  0  0
  6 28  1  0  0  0  0
  7  8  1  0  0  0  0
  7 42  1  0  0  0  0
  8  9  1  0  0  0  0
  8 27  2  0  0  0  0
  9 10  1  0  0  0  0
  9 26  2  0  0  0  0
 10 11  2  0  0  0  0
 10 43  1  0  0  0  0
 11 12  1  0  0  0  0
 11 44  1  0  0  0  0
 12 13  1  0  0  0  0
 12 25  2  0  0  0  0
 13 14  1  0  0  0  0
 13 45  1  0  0  0  0
 13 46  1  0  0  0  0
 14 15  1  0  0  0  0
 14 47  1  0  0  0  0
 15 16  2  0  0  0  0
 15 17  1  0  0  0  0
 17 18  1  0  0  0  0
 18 19  1  0  0  0  0
 18 48  1  0  0  0  0
 18 49  1  0  0  0  0
 19 20  1  0  0  0  0
 19 24  2  0  0  0  0
 20 21  2  0  0  0  0
 20 50  1  0  0  0  0
 21 22  1  0  0  0  0
 21 51  1  0  0  0  0
 22 23  2  0  0  0  0
 22 52  1  0  0  0  0
 23 24  1  0  0  0  0
 23 53  1  0  0  0  0
 24 54  1  0  0  0  0
 25 26  1  0  0  0  0
 25 55  1  0  0  0  0
 26 56  1  0  0  0  0
 27 28  1  0  0  0  0
 28 57  1  0  0  0  0
 29 30  2  0  0  0  0
 29 58  1  0  0  0  0
 30 31  1  0  0  0  0
 30 37  1  0  0  0  0
 31 32  1  0  0  0  0
 31 36  1  0  0  0  0
 32 33  1  0  0  0  0
 32 59  1  0  0  0  0
 32 60  1  0  0  0  0
 33 34  1  0  0  0  0
 33 61  1  0  0  0  0
 33 62  1  0  0  0  0
 34 35  1  0  0  0  0
 34 63  1  0  0  0  0
 35 36  1  0  0  0  0
 35 64  1  0  0  0  0
 35 65  1  0  0  0  0
 36 66  1  0  0  0  0
 36 67  1  0  0  0  0
M  END
$$$$
