CHEMBL3945353
 OpenBabel04072215373D

 51 55  0  0  0  0  0  0  0  0999 V2000
    3.3354   -1.2584    0.1512 C   0  0  0  0  0  0  0  0  0  0  0  0
    2.4826   -0.2056    0.6018 O   0  0  0  0  0  0  0  0  0  0  0  0
    3.0498    1.0324    0.7303 C   0  0  0  0  0  0  0  0  0  0  0  0
    4.1161    1.4353   -0.0785 C   0  0  0  0  0  0  0  0  0  0  0  0
    4.7785    2.6598    0.1384 C   0  0  0  0  0  0  0  0  0  0  0  0
    5.8994    3.1025   -0.5902 C   0  0  0  0  0  0  0  0  0  0  0  0
    6.4248    2.2840   -1.6309 N   0  0  0  0  0  0  0  0  0  0  0  0
    7.6537    2.4517   -2.3100 C   0  0  0  0  0  0  0  0  0  0  0  0
    8.7641    3.0534   -1.7060 C   0  0  0  0  0  0  0  0  0  0  0  0
    9.9576    3.2471   -2.4062 C   0  0  0  0  0  0  0  0  0  0  0  0
   10.0783    2.7861   -3.7158 C   0  0  0  0  0  0  0  0  0  0  0  0
   11.5559    3.1095   -4.5477 Cl  0  0  0  0  0  0  0  0  0  0  0  0
    9.0153    2.0939   -4.3018 C   0  0  0  0  0  0  0  0  0  0  0  0
    9.1107    1.4406   -5.8999 Cl  0  0  0  0  0  0  0  0  0  0  0  0
    7.8175    1.9154   -3.5946 C   0  0  0  0  0  0  0  0  0  0  0  0
    6.5059    4.2684   -0.3010 N   0  0  0  0  0  0  0  0  0  0  0  0
    6.0069    4.9838    0.7087 C   0  0  0  0  0  0  0  0  0  0  0  0
    4.9435    4.6609    1.4497 N   0  0  0  0  0  0  0  0  0  0  0  0
    4.3415    3.5083    1.1649 C   0  0  0  0  0  0  0  0  0  0  0  0
    3.2288    3.1299    1.9082 C   0  0  0  0  0  0  0  0  0  0  0  0
    2.5509    1.9247    1.6901 C   0  0  0  0  0  0  0  0  0  0  0  0
    1.4507    1.7557    2.4993 O   0  0  0  0  0  0  0  0  0  0  0  0
    0.4522    0.8618    1.9971 C   0  0  0  0  0  0  0  0  0  0  0  0
   -0.8961    1.1468    2.6047 C   0  0  0  0  0  0  0  0  0  0  0  0
   -1.7973    0.1936    2.7780 N   0  0  0  0  0  0  0  0  0  0  0  0
   -2.9954    0.7537    3.1475 C   0  0  0  0  0  0  0  0  0  0  0  0
   -3.0000    2.1242    3.2851 C   0  0  0  0  0  0  0  0  0  0  0  0
   -1.4566    2.7510    2.9294 S   0  0  0  0  0  0  0  0  0  0  0  0
   -4.2118    2.9303    3.6110 C   0  0  0  0  0  0  0  0  0  0  0  0
   -5.2887    2.0708    4.1537 N   0  0  0  0  0  0  0  0  0  0  0  0
   -5.4703    0.8454    3.3497 C   0  0  0  0  0  0  0  0  0  0  0  0
   -4.2213   -0.0629    3.3530 C   0  0  0  0  0  0  0  0  0  0  0  0
    3.0686   -2.1657    0.6998 H   0  0  0  0  0  0  0  0  0  0  0  0
    4.4001   -1.0758    0.3365 H   0  0  0  0  0  0  0  0  0  0  0  0
    3.1614   -1.4329   -0.9152 H   0  0  0  0  0  0  0  0  0  0  0  0
    4.4569    0.7855   -0.8772 H   0  0  0  0  0  0  0  0  0  0  0  0
    5.6747    2.0411   -2.2699 H   0  0  0  0  0  0  0  0  0  0  0  0
    8.7140    3.4044   -0.6790 H   0  0  0  0  0  0  0  0  0  0  0  0
   10.7773    3.7671   -1.9208 H   0  0  0  0  0  0  0  0  0  0  0  0
    7.0038    1.3693   -4.0663 H   0  0  0  0  0  0  0  0  0  0  0  0
    6.5202    5.9059    0.9533 H   0  0  0  0  0  0  0  0  0  0  0  0
    2.8787    3.8002    2.6950 H   0  0  0  0  0  0  0  0  0  0  0  0
    0.7293   -0.1631    2.2676 H   0  0  0  0  0  0  0  0  0  0  0  0
    0.3318    0.9611    0.9129 H   0  0  0  0  0  0  0  0  0  0  0  0
   -4.5746    3.4290    2.7037 H   0  0  0  0  0  0  0  0  0  0  0  0
   -3.9801    3.7042    4.3498 H   0  0  0  0  0  0  0  0  0  0  0  0
   -6.1574    2.6024    4.1660 H   0  0  0  0  0  0  0  0  0  0  0  0
   -5.7310    1.1226    2.3196 H   0  0  0  0  0  0  0  0  0  0  0  0
   -6.3189    0.2771    3.7469 H   0  0  0  0  0  0  0  0  0  0  0  0
   -4.3103   -0.8149    2.5615 H   0  0  0  0  0  0  0  0  0  0  0  0
   -4.1429   -0.5887    4.3116 H   0  0  0  0  0  0  0  0  0  0  0  0
  1  2  1  0  0  0  0
  1 33  1  0  0  0  0
  1 34  1  0  0  0  0
  1 35  1  0  0  0  0
  2  3  1  0  0  0  0
  3  4  1  0  0  0  0
  3 21  2  0  0  0  0
  4  5  2  0  0  0  0
  4 36  1  0  0  0  0
  5  6  1  0  0  0  0
  5 19  1  0  0  0  0
  6  7  1  0  0  0  0
  6 16  2  0  0  0  0
  7  8  1  0  0  0  0
  7 37  1  0  0  0  0
  8  9  1  0  0  0  0
  8 15  2  0  0  0  0
  9 10  2  0  0  0  0
  9 38  1  0  0  0  0
 10 11  1  0  0  0  0
 10 39  1  0  0  0  0
 11 12  1  0  0  0  0
 11 13  2  0  0  0  0
 13 14  1  0  0  0  0
 13 15  1  0  0  0  0
 15 40  1  0  0  0  0
 16 17  1  0  0  0  0
 17 18  2  0  0  0  0
 17 41  1  0  0  0  0
 18 19  1  0  0  0  0
 19 20  2  0  0  0  0
 20 21  1  0  0  0  0
 20 42  1  0  0  0  0
 21 22  1  0  0  0  0
 22 23  1  0  0  0  0
 23 24  1  0  0  0  0
 23 43  1  0  0  0  0
 23 44  1  0  0  0  0
 24 25  2  0  0  0  0
 24 28  1  0  0  0  0
 25 26  1  0  0  0  0
 26 27  2  0  0  0  0
 26 32  1  0  0  0  0
 27 28  1  0  0  0  0
 27 29  1  0  0  0  0
 29 30  1  0  0  0  0
 29 45  1  0  0  0  0
 29 46  1  0  0  0  0
 30 31  1  0  0  0  0
 30 47  1  0  0  0  0
 31 32  1  0  0  0  0
 31 48  1  0  0  0  0
 31 49  1  0  0  0  0
 32 50  1  0  0  0  0
 32 51  1  0  0  0  0
M  END
$$$$
