CHEMBL3221269
 OpenBabel04072215363D

 70 72  0  0  0  0  0  0  0  0999 V2000
   11.4790    9.1217   -6.4900 C   0  0  0  0  0  0  0  0  0  0  0  0
   10.7114    9.0364   -5.1784 C   0  0  0  0  0  0  0  0  0  0  0  0
   11.3040    8.1302   -4.3204 O   0  0  0  0  0  0  0  0  0  0  0  0
   11.9126    8.4497   -3.1443 C   0  0  0  0  0  0  0  0  0  0  0  0
   12.2423    9.6019   -2.9050 O   0  0  0  0  0  0  0  0  0  0  0  0
   12.1891    7.4749   -2.2433 N   0  0  0  0  0  0  0  0  0  0  0  0
   11.8049    6.1379   -2.4958 C   0  0  0  0  0  0  0  0  0  0  0  0
   10.4665    5.7561   -2.3214 C   0  0  0  0  0  0  0  0  0  0  0  0
   10.0621    4.4529   -2.6116 C   0  0  0  0  0  0  0  0  0  0  0  0
   10.9958    3.5139   -3.0682 C   0  0  0  0  0  0  0  0  0  0  0  0
   10.5734    2.1991   -3.4013 N   0  0  0  0  0  0  0  0  0  0  0  0
   11.4478    1.0741   -3.3276 C   0  0  0  0  0  0  0  0  0  0  0  0
   12.4861    1.1010   -2.4485 N   0  0  0  0  0  0  0  0  0  0  0  0
   13.3195    0.0479   -2.2983 C   0  0  0  0  0  0  0  0  0  0  0  0
   13.1303   -1.0710   -3.0393 N   0  0  0  0  0  0  0  0  0  0  0  0
   12.1236   -1.1524   -3.9375 C   0  0  0  0  0  0  0  0  0  0  0  0
   11.9702   -2.2993   -4.7035 C   0  0  0  0  0  0  0  0  0  0  0  0
   10.9452   -2.4518   -5.6937 C   0  0  0  0  0  0  0  0  0  0  0  0
   10.8842   -3.6315   -6.4231 O   0  0  0  0  0  0  0  0  0  0  0  0
   11.7967   -4.6641   -6.1305 C   0  0  0  0  0  0  0  0  0  0  0  0
   11.7502   -6.0115   -6.8893 C   0  0  0  0  0  0  0  0  0  0  0  0
   12.8743   -6.9039   -6.4378 N   0  0  0  0  0  0  0  0  0  0  0  0
   12.8306   -7.2305   -4.9847 C   0  0  0  0  0  0  0  0  0  0  0  0
   14.0486   -8.0595   -4.5558 C   0  0  0  0  0  0  0  0  0  0  0  0
   14.0952   -9.3592   -5.3442 C   0  0  0  0  0  0  0  0  0  0  0  0
   14.1416   -9.0268   -6.8349 C   0  0  0  0  0  0  0  0  0  0  0  0
   12.9232   -8.1576   -7.2317 C   0  0  0  0  0  0  0  0  0  0  0  0
   10.0525   -1.3269   -5.8530 C   0  0  0  0  0  0  0  0  0  0  0  0
    8.9999   -1.1656   -6.6999 O   0  0  0  0  0  0  0  0  0  0  0  0
    8.3266   -1.9502   -7.5919 C   0  0  0  0  0  0  0  0  0  0  0  0
   10.2308   -0.1888   -5.0596 C   0  0  0  0  0  0  0  0  0  0  0  0
   11.2370   -0.0757   -4.1064 C   0  0  0  0  0  0  0  0  0  0  0  0
   12.3362    3.9015   -3.2400 C   0  0  0  0  0  0  0  0  0  0  0  0
   12.7483    5.2045   -2.9582 C   0  0  0  0  0  0  0  0  0  0  0  0
   14.1809    5.5970   -3.1924 C   0  0  0  0  0  0  0  0  0  0  0  0
   -0.9368    1.2058    1.1601 Cl  0  0  0  0  0  0  0  0  0  0  0  0
   10.9859    9.8669   -7.1505 H   0  0  0  0  0  0  0  0  0  0  0  0
   11.4903    8.1373   -7.0034 H   0  0  0  0  0  0  0  0  0  0  0  0
   12.5228    9.4500   -6.2994 H   0  0  0  0  0  0  0  0  0  0  0  0
    9.6735    8.6974   -5.3783 H   0  0  0  0  0  0  0  0  0  0  0  0
   10.6625   10.0486   -4.7251 H   0  0  0  0  0  0  0  0  0  0  0  0
   12.7005    7.6973   -1.3754 H   0  0  0  0  0  0  0  0  0  0  0  0
    9.7362    6.4713   -1.9578 H   0  0  0  0  0  0  0  0  0  0  0  0
    9.0260    4.1694   -2.4722 H   0  0  0  0  0  0  0  0  0  0  0  0
    9.5855    2.0680   -3.6605 H   0  0  0  0  0  0  0  0  0  0  0  0
   14.1283    0.0962   -1.5813 H   0  0  0  0  0  0  0  0  0  0  0  0
   12.6992   -3.0664   -4.4935 H   0  0  0  0  0  0  0  0  0  0  0  0
   11.6186   -4.9058   -5.0692 H   0  0  0  0  0  0  0  0  0  0  0  0
   12.8283   -4.2799   -6.2997 H   0  0  0  0  0  0  0  0  0  0  0  0
   11.8781   -5.7974   -7.9739 H   0  0  0  0  0  0  0  0  0  0  0  0
   10.7681   -6.5104   -6.7413 H   0  0  0  0  0  0  0  0  0  0  0  0
   11.8911   -7.7734   -4.7375 H   0  0  0  0  0  0  0  0  0  0  0  0
   12.9053   -6.3239   -4.3594 H   0  0  0  0  0  0  0  0  0  0  0  0
   13.9920   -8.2810   -3.4676 H   0  0  0  0  0  0  0  0  0  0  0  0
   14.9784   -7.4760   -4.7423 H   0  0  0  0  0  0  0  0  0  0  0  0
   13.1920   -9.9660   -5.1132 H   0  0  0  0  0  0  0  0  0  0  0  0
   14.9933   -9.9461   -5.0489 H   0  0  0  0  0  0  0  0  0  0  0  0
   14.1474   -9.9724   -7.4194 H   0  0  0  0  0  0  0  0  0  0  0  0
   15.0795   -8.4747   -7.0558 H   0  0  0  0  0  0  0  0  0  0  0  0
   11.9908   -8.7458   -7.0780 H   0  0  0  0  0  0  0  0  0  0  0  0
   13.0172   -7.9227   -8.3138 H   0  0  0  0  0  0  0  0  0  0  0  0
    7.5219   -1.3033   -8.0203 H   0  0  0  0  0  0  0  0  0  0  0  0
    7.8230   -2.7881   -7.0704 H   0  0  0  0  0  0  0  0  0  0  0  0
    8.9816   -2.2678   -8.4197 H   0  0  0  0  0  0  0  0  0  0  0  0
    9.5516    0.6375   -5.2249 H   0  0  0  0  0  0  0  0  0  0  0  0
   13.0584    3.2001   -3.6337 H   0  0  0  0  0  0  0  0  0  0  0  0
   14.7816    4.7354   -3.5557 H   0  0  0  0  0  0  0  0  0  0  0  0
   14.6283    5.9591   -2.2450 H   0  0  0  0  0  0  0  0  0  0  0  0
   14.2307    6.3980   -3.9597 H   0  0  0  0  0  0  0  0  0  0  0  0
    0.4153    1.3470    1.3711 H   0  0  0  0  0  0  0  0  0  0  0  0
  1  2  1  0  0  0  0
  1 37  1  0  0  0  0
  1 38  1  0  0  0  0
  1 39  1  0  0  0  0
  2  3  1  0  0  0  0
  2 40  1  0  0  0  0
  2 41  1  0  0  0  0
  3  4  1  0  0  0  0
  4  5  2  0  0  0  0
  4  6  1  0  0  0  0
  6  7  1  0  0  0  0
  6 42  1  0  0  0  0
  7  8  1  0  0  0  0
  7 34  2  0  0  0  0
  8  9  2  0  0  0  0
  8 43  1  0  0  0  0
  9 10  1  0  0  0  0
  9 44  1  0  0  0  0
 10 11  1  0  0  0  0
 10 33  2  0  0  0  0
 11 12  1  0  0  0  0
 11 45  1  0  0  0  0
 12 13  1  0  0  0  0
 12 32  2  0  0  0  0
 13 14  2  0  0  0  0
 14 15  1  0  0  0  0
 14 46  1  0  0  0  0
 15 16  2  0  0  0  0
 16 17  1  0  0  0  0
 16 32  1  0  0  0  0
 17 18  2  0  0  0  0
 17 47  1  0  0  0  0
 18 19  1  0  0  0  0
 18 28  1  0  0  0  0
 19 20  1  0  0  0  0
 20 21  1  0  0  0  0
 20 48  1  0  0  0  0
 20 49  1  0  0  0  0
 21 22  1  0  0  0  0
 21 50  1  0  0  0  0
 21 51  1  0  0  0  0
 22 23  1  0  0  0  0
 22 27  1  0  0  0  0
 23 24  1  0  0  0  0
 23 52  1  0  0  0  0
 23 53  1  0  0  0  0
 24 25  1  0  0  0  0
 24 54  1  0  0  0  0
 24 55  1  0  0  0  0
 25 26  1  0  0  0  0
 25 56  1  0  0  0  0
 25 57  1  0  0  0  0
 26 27  1  0  0  0  0
 26 58  1  0  0  0  0
 26 59  1  0  0  0  0
 27 60  1  0  0  0  0
 27 61  1  0  0  0  0
 28 29  1  0  0  0  0
 28 31  2  0  0  0  0
 29 30  1  0  0  0  0
 30 62  1  0  0  0  0
 30 63  1  0  0  0  0
 30 64  1  0  0  0  0
 31 32  1  0  0  0  0
 31 65  1  0  0  0  0
 33 34  1  0  0  0  0
 33 66  1  0  0  0  0
 34 35  1  0  0  0  0
 35 67  1  0  0  0  0
 35 68  1  0  0  0  0
 35 69  1  0  0  0  0
 36 70  1  0  0  0  0
M  END
$$$$
