CHEMBL3660282
 OpenBabel04072215373D

 55 58  0  0  0  0  0  0  0  0999 V2000
    3.2469   -1.4688    2.4054 C   0  0  0  0  0  0  0  0  0  0  0  0
    4.4704   -1.5349    1.6741 O   0  0  0  0  0  0  0  0  0  0  0  0
    4.7557   -0.3796    1.0080 C   0  0  0  0  0  0  0  0  0  0  0  0
    4.0324    0.6085    0.9952 O   0  0  0  0  0  0  0  0  0  0  0  0
    6.0343   -0.4251    0.3054 C   0  0  0  0  0  0  0  0  0  0  0  0
    6.9230   -1.4742    0.1662 C   0  0  0  0  0  0  0  0  0  0  0  0
    7.9954   -1.0425   -0.5803 N   0  0  0  0  0  0  0  0  0  0  0  0
    7.8347    0.2841   -0.9140 C   0  0  0  0  0  0  0  0  0  0  0  0
    8.8188    1.0586   -1.6624 C   0  0  0  0  0  0  0  0  0  0  0  0
    8.5933    2.4005   -1.9490 C   0  0  0  0  0  0  0  0  0  0  0  0
    9.5880    3.1379   -2.5817 C   0  0  0  0  0  0  0  0  0  0  0  0
    9.4817    4.4859   -2.8781 O   0  0  0  0  0  0  0  0  0  0  0  0
    8.7576    5.3151   -2.0448 C   0  0  0  0  0  0  0  0  0  0  0  0
    8.6592    5.1291   -0.6697 C   0  0  0  0  0  0  0  0  0  0  0  0
    7.8426    5.9566    0.1028 C   0  0  0  0  0  0  0  0  0  0  0  0
    7.1572    7.0374   -0.4510 C   0  0  0  0  0  0  0  0  0  0  0  0
    6.2970    7.8740    0.3177 N   0  0  0  0  0  0  0  0  0  0  0  0
    6.0649    7.7547    1.6751 C   0  0  0  0  0  0  0  0  0  0  0  0
    6.6047    6.9406    2.4219 O   0  0  0  0  0  0  0  0  0  0  0  0
    5.1091    8.6425    2.1547 N   0  0  0  0  0  0  0  0  0  0  0  0
    4.7483    8.6115    3.5272 C   0  0  0  0  0  0  0  0  0  0  0  0
    3.4051    8.5039    3.8701 C   0  0  0  0  0  0  0  0  0  0  0  0
    3.0351    8.4399    5.2163 C   0  0  0  0  0  0  0  0  0  0  0  0
    3.9962    8.5099    6.2354 C   0  0  0  0  0  0  0  0  0  0  0  0
    3.3936    8.4881    7.8523 Cl  0  0  0  0  0  0  0  0  0  0  0  0
    5.3542    8.6033    5.9178 C   0  0  0  0  0  0  0  0  0  0  0  0
    6.4663    8.6317    6.9369 C   0  0  0  0  0  0  0  0  0  0  0  0
    6.0933    8.5714    8.2421 F   0  0  0  0  0  0  0  0  0  0  0  0
    7.3420    7.5997    6.7687 F   0  0  0  0  0  0  0  0  0  0  0  0
    7.2193    9.7659    6.8345 F   0  0  0  0  0  0  0  0  0  0  0  0
    5.7111    8.6572    4.5467 C   0  0  0  0  0  0  0  0  0  0  0  0
    7.3282    7.2852   -1.8208 C   0  0  0  0  0  0  0  0  0  0  0  0
    8.1224    6.4255   -2.6126 C   0  0  0  0  0  0  0  0  0  0  0  0
   10.7410    2.4807   -2.9930 C   0  0  0  0  0  0  0  0  0  0  0  0
   10.8707    1.1294   -2.6930 C   0  0  0  0  0  0  0  0  0  0  0  0
    9.9429    0.4032   -2.0225 N   0  0  0  0  0  0  0  0  0  0  0  0
    6.6160    0.6697   -0.3869 C   0  0  0  0  0  0  0  0  0  0  0  0
    3.1853   -2.3515    3.0482 H   0  0  0  0  0  0  0  0  0  0  0  0
    2.3972   -1.4768    1.7161 H   0  0  0  0  0  0  0  0  0  0  0  0
    3.2157   -0.5804    3.0450 H   0  0  0  0  0  0  0  0  0  0  0  0
    6.8868   -2.4938    0.5333 H   0  0  0  0  0  0  0  0  0  0  0  0
    8.8017   -1.5924   -0.8500 H   0  0  0  0  0  0  0  0  0  0  0  0
    7.6642    2.8677   -1.6521 H   0  0  0  0  0  0  0  0  0  0  0  0
    9.1837    4.3218   -0.1662 H   0  0  0  0  0  0  0  0  0  0  0  0
    7.7734    5.6991    1.1553 H   0  0  0  0  0  0  0  0  0  0  0  0
    5.8663    8.6533   -0.1636 H   0  0  0  0  0  0  0  0  0  0  0  0
    4.3621    8.8367    1.4988 H   0  0  0  0  0  0  0  0  0  0  0  0
    2.6382    8.4013    3.1082 H   0  0  0  0  0  0  0  0  0  0  0  0
    1.9836    8.3202    5.4708 H   0  0  0  0  0  0  0  0  0  0  0  0
    6.7684    8.7350    4.2818 H   0  0  0  0  0  0  0  0  0  0  0  0
    6.8524    8.1356   -2.3020 H   0  0  0  0  0  0  0  0  0  0  0  0
    8.2367    6.6233   -3.6761 H   0  0  0  0  0  0  0  0  0  0  0  0
   11.5222    3.0046   -3.5312 H   0  0  0  0  0  0  0  0  0  0  0  0
   11.7582    0.5788   -2.9932 H   0  0  0  0  0  0  0  0  0  0  0  0
    6.1693    1.6549   -0.4622 H   0  0  0  0  0  0  0  0  0  0  0  0
  1  2  1  0  0  0  0
  1 38  1  0  0  0  0
  1 39  1  0  0  0  0
  1 40  1  0  0  0  0
  2  3  1  0  0  0  0
  3  4  2  0  0  0  0
  3  5  1  0  0  0  0
  5  6  2  0  0  0  0
  5 37  1  0  0  0  0
  6  7  1  0  0  0  0
  6 41  1  0  0  0  0
  7  8  1  0  0  0  0
  7 42  1  0  0  0  0
  8  9  1  0  0  0  0
  8 37  2  0  0  0  0
  9 10  1  0  0  0  0
  9 36  2  0  0  0  0
 10 11  2  0  0  0  0
 10 43  1  0  0  0  0
 11 12  1  0  0  0  0
 11 34  1  0  0  0  0
 12 13  1  0  0  0  0
 13 14  1  0  0  0  0
 13 33  2  0  0  0  0
 14 15  2  0  0  0  0
 14 44  1  0  0  0  0
 15 16  1  0  0  0  0
 15 45  1  0  0  0  0
 16 17  1  0  0  0  0
 16 32  2  0  0  0  0
 17 18  1  0  0  0  0
 17 46  1  0  0  0  0
 18 19  2  0  0  0  0
 18 20  1  0  0  0  0
 20 21  1  0  0  0  0
 20 47  1  0  0  0  0
 21 22  1  0  0  0  0
 21 31  2  0  0  0  0
 22 23  2  0  0  0  0
 22 48  1  0  0  0  0
 23 24  1  0  0  0  0
 23 49  1  0  0  0  0
 24 25  1  0  0  0  0
 24 26  2  0  0  0  0
 26 27  1  0  0  0  0
 26 31  1  0  0  0  0
 27 28  1  0  0  0  0
 27 29  1  0  0  0  0
 27 30  1  0  0  0  0
 31 50  1  0  0  0  0
 32 33  1  0  0  0  0
 32 51  1  0  0  0  0
 33 52  1  0  0  0  0
 34 35  2  0  0  0  0
 34 53  1  0  0  0  0
 35 36  1  0  0  0  0
 35 54  1  0  0  0  0
 37 55  1  0  0  0  0
M  END
$$$$
