CHEMBL3978754
 OpenBabel04072215373D

 63 67  0  0  0  0  0  0  0  0999 V2000
   -2.5030    8.1245    4.5829 C   0  0  0  0  0  0  0  0  0  0  0  0
   -2.1566    7.0816    5.4904 O   0  0  0  0  0  0  0  0  0  0  0  0
   -1.0536    6.3570    5.0785 C   0  0  0  0  0  0  0  0  0  0  0  0
   -0.6919    5.2973    5.8799 C   0  0  0  0  0  0  0  0  0  0  0  0
    0.3955    4.5743    5.4527 C   0  0  0  0  0  0  0  0  0  0  0  0
    1.0982    4.8807    4.3485 N   0  0  0  0  0  0  0  0  0  0  0  0
    0.6700    5.9597    3.6742 C   0  0  0  0  0  0  0  0  0  0  0  0
    1.5422    6.4295    2.6423 C   0  0  0  0  0  0  0  0  0  0  0  0
    2.3361    6.8025    1.8264 C   0  0  0  0  0  0  0  0  0  0  0  0
    3.3623    7.1932    0.8316 C   0  0  0  0  0  0  0  0  0  0  0  0
    4.6427    7.6791    1.4474 N   0  0  0  0  0  0  0  0  0  0  0  0
    5.6337    6.6559    1.6299 C   0  0  0  0  0  0  0  0  0  0  0  0
    5.2503    5.3272    1.8492 C   0  0  0  0  0  0  0  0  0  0  0  0
    6.1811    4.3296    2.1059 C   0  0  0  0  0  0  0  0  0  0  0  0
    7.5231    4.6091    2.1839 C   0  0  0  0  0  0  0  0  0  0  0  0
    8.2963    3.5999    2.5969 N   0  0  0  0  0  0  0  0  0  0  0  0
    9.6036    3.8761    2.7356 C   0  0  0  0  0  0  0  0  0  0  0  0
   10.1621    5.0968    2.3888 C   0  0  0  0  0  0  0  0  0  0  0  0
   11.6054    5.2578    2.5357 C   0  0  0  0  0  0  0  0  0  0  0  0
   12.5143    4.5292    3.3517 C   0  0  0  0  0  0  0  0  0  0  0  0
   13.7881    4.8721    3.1557 N   0  0  0  0  0  0  0  0  0  0  0  0
   13.7130    5.8145    2.2010 N   0  0  0  0  0  0  0  0  0  0  0  0
   14.9300    6.3355    1.6247 C   0  0  0  0  0  0  0  0  0  0  0  0
   12.4281    6.1095    1.8259 C   0  0  0  0  0  0  0  0  0  0  0  0
    9.3758    6.1238    1.9387 N   0  0  0  0  0  0  0  0  0  0  0  0
    8.0147    5.9038    1.8876 C   0  0  0  0  0  0  0  0  0  0  0  0
    7.0353    6.9004    1.6049 C   0  0  0  0  0  0  0  0  0  0  0  0
    4.5660    8.9695    2.0929 C   0  0  0  0  0  0  0  0  0  0  0  0
    5.3631    9.3254    3.2111 C   0  0  0  0  0  0  0  0  0  0  0  0
    6.2346    8.4365    3.7115 F   0  0  0  0  0  0  0  0  0  0  0  0
    5.2461   10.5778    3.8526 C   0  0  0  0  0  0  0  0  0  0  0  0
    5.9504   11.0471    4.9306 O   0  0  0  0  0  0  0  0  0  0  0  0
    6.9373   10.2107    5.5123 C   0  0  0  0  0  0  0  0  0  0  0  0
    4.3122   11.5118    3.3982 C   0  0  0  0  0  0  0  0  0  0  0  0
    3.5121   11.2188    2.3082 C   0  0  0  0  0  0  0  0  0  0  0  0
    2.5647   12.0487    1.7690 O   0  0  0  0  0  0  0  0  0  0  0  0
    2.3771   13.3155    2.3846 C   0  0  0  0  0  0  0  0  0  0  0  0
    3.6572    9.9770    1.6696 C   0  0  0  0  0  0  0  0  0  0  0  0
    2.8854    9.7994    0.5854 F   0  0  0  0  0  0  0  0  0  0  0  0
   -0.3894    6.7218    3.9693 N   0  0  0  0  0  0  0  0  0  0  0  0
   -3.4164    8.6004    4.9516 H   0  0  0  0  0  0  0  0  0  0  0  0
   -2.7158    7.7278    3.5839 H   0  0  0  0  0  0  0  0  0  0  0  0
   -1.7184    8.8881    4.5446 H   0  0  0  0  0  0  0  0  0  0  0  0
   -1.2248    5.0554    6.7884 H   0  0  0  0  0  0  0  0  0  0  0  0
    0.7589    3.7172    6.0117 H   0  0  0  0  0  0  0  0  0  0  0  0
    2.9401    7.9037    0.1217 H   0  0  0  0  0  0  0  0  0  0  0  0
    3.5633    6.3433    0.1641 H   0  0  0  0  0  0  0  0  0  0  0  0
    4.2098    5.0205    1.8876 H   0  0  0  0  0  0  0  0  0  0  0  0
    5.8360    3.3175    2.3018 H   0  0  0  0  0  0  0  0  0  0  0  0
   10.1862    3.0602    3.1490 H   0  0  0  0  0  0  0  0  0  0  0  0
   12.3073    3.7478    4.0725 H   0  0  0  0  0  0  0  0  0  0  0  0
   15.7946    5.8653    2.1040 H   0  0  0  0  0  0  0  0  0  0  0  0
   14.9581    7.4149    1.7838 H   0  0  0  0  0  0  0  0  0  0  0  0
   14.9315    6.0968    0.5586 H   0  0  0  0  0  0  0  0  0  0  0  0
   12.2178    6.8514    1.0684 H   0  0  0  0  0  0  0  0  0  0  0  0
    7.3915    7.9076    1.3955 H   0  0  0  0  0  0  0  0  0  0  0  0
    7.3878   10.7705    6.3391 H   0  0  0  0  0  0  0  0  0  0  0  0
    7.7330    9.9797    4.7985 H   0  0  0  0  0  0  0  0  0  0  0  0
    6.4883    9.3066    5.9328 H   0  0  0  0  0  0  0  0  0  0  0  0
    4.2410   12.4607    3.9204 H   0  0  0  0  0  0  0  0  0  0  0  0
    1.5848   13.8372    1.8390 H   0  0  0  0  0  0  0  0  0  0  0  0
    3.2856   13.9222    2.3158 H   0  0  0  0  0  0  0  0  0  0  0  0
    2.0498   13.2054    3.4235 H   0  0  0  0  0  0  0  0  0  0  0  0
  1  2  1  0  0  0  0
  1 41  1  0  0  0  0
  1 42  1  0  0  0  0
  1 43  1  0  0  0  0
  2  3  1  0  0  0  0
  3  4  1  0  0  0  0
  3 40  2  0  0  0  0
  4  5  2  0  0  0  0
  4 44  1  0  0  0  0
  5  6  1  0  0  0  0
  5 45  1  0  0  0  0
  6  7  2  0  0  0  0
  7  8  1  0  0  0  0
  7 40  1  0  0  0  0
  8  9  3  0  0  0  0
  9 10  1  0  0  0  0
 10 11  1  0  0  0  0
 10 46  1  0  0  0  0
 10 47  1  0  0  0  0
 11 12  1  0  0  0  0
 11 28  1  0  0  0  0
 12 13  1  0  0  0  0
 12 27  2  0  0  0  0
 13 14  2  0  0  0  0
 13 48  1  0  0  0  0
 14 15  1  0  0  0  0
 14 49  1  0  0  0  0
 15 16  1  0  0  0  0
 15 26  2  0  0  0  0
 16 17  2  0  0  0  0
 17 18  1  0  0  0  0
 17 50  1  0  0  0  0
 18 19  1  0  0  0  0
 18 25  2  0  0  0  0
 19 20  1  0  0  0  0
 19 24  2  0  0  0  0
 20 21  2  0  0  0  0
 20 51  1  0  0  0  0
 21 22  1  0  0  0  0
 22 23  1  0  0  0  0
 22 24  1  0  0  0  0
 23 52  1  0  0  0  0
 23 53  1  0  0  0  0
 23 54  1  0  0  0  0
 24 55  1  0  0  0  0
 25 26  1  0  0  0  0
 26 27  1  0  0  0  0
 27 56  1  0  0  0  0
 28 29  1  0  0  0  0
 28 38  2  0  0  0  0
 29 30  1  0  0  0  0
 29 31  2  0  0  0  0
 31 32  1  0  0  0  0
 31 34  1  0  0  0  0
 32 33  1  0  0  0  0
 33 57  1  0  0  0  0
 33 58  1  0  0  0  0
 33 59  1  0  0  0  0
 34 35  2  0  0  0  0
 34 60  1  0  0  0  0
 35 36  1  0  0  0  0
 35 38  1  0  0  0  0
 36 37  1  0  0  0  0
 37 61  1  0  0  0  0
 37 62  1  0  0  0  0
 37 63  1  0  0  0  0
 38 39  1  0  0  0  0
M  END
$$$$
