CHEMBL3671479
 OpenBabel04072215373D

 61 64  0  0  0  0  0  0  0  0999 V2000
    2.6698   -1.9245   -1.6553 C   0  0  0  0  0  0  0  0  0  0  0  0
    3.4129   -1.0815   -0.9275 C   0  0  0  0  0  0  0  0  0  0  0  0
    4.1946   -0.0132   -1.6046 C   0  0  0  0  0  0  0  0  0  0  0  0
    4.2386    0.0760   -2.8261 O   0  0  0  0  0  0  0  0  0  0  0  0
    4.7742    0.8745   -0.7116 N   0  0  0  0  0  0  0  0  0  0  0  0
    5.3448    2.0768   -1.1800 C   0  0  0  0  0  0  0  0  0  0  0  0
    6.3724    1.9224   -2.1137 C   0  0  0  0  0  0  0  0  0  0  0  0
    6.9561    3.0221   -2.7586 C   0  0  0  0  0  0  0  0  0  0  0  0
    7.9871    2.9014   -3.7047 C   0  0  0  0  0  0  0  0  0  0  0  0
    8.4317    1.6131   -4.0730 N   0  0  0  0  0  0  0  0  0  0  0  0
    9.7205    1.1872   -4.4417 C   0  0  0  0  0  0  0  0  0  0  0  0
   10.8736    1.8422   -3.9967 C   0  0  0  0  0  0  0  0  0  0  0  0
   12.1383    1.2854   -4.2100 C   0  0  0  0  0  0  0  0  0  0  0  0
   12.2588    0.0704   -4.8826 C   0  0  0  0  0  0  0  0  0  0  0  0
   13.9600   -0.7318   -5.0663 Br  0  0  0  0  0  0  0  0  0  0  0  0
   11.1327   -0.5749   -5.3805 C   0  0  0  0  0  0  0  0  0  0  0  0
    9.8796   -0.0155   -5.1488 C   0  0  0  0  0  0  0  0  0  0  0  0
    8.7912   -0.6648   -5.5932 F   0  0  0  0  0  0  0  0  0  0  0  0
    8.5537    3.9774   -4.2705 N   0  0  0  0  0  0  0  0  0  0  0  0
    8.0477    5.1649   -3.9301 C   0  0  0  0  0  0  0  0  0  0  0  0
    7.0628    5.3878   -3.0437 N   0  0  0  0  0  0  0  0  0  0  0  0
    6.5327    4.3126   -2.4493 C   0  0  0  0  0  0  0  0  0  0  0  0
    5.5341    4.4607   -1.4833 C   0  0  0  0  0  0  0  0  0  0  0  0
    4.9410    3.3704   -0.8146 C   0  0  0  0  0  0  0  0  0  0  0  0
    3.9645    3.7693    0.0690 O   0  0  0  0  0  0  0  0  0  0  0  0
    3.3854    2.7795    0.9035 C   0  0  0  0  0  0  0  0  0  0  0  0
    2.4018    3.3668    1.9272 C   0  0  0  0  0  0  0  0  0  0  0  0
    1.8460    2.2304    2.8099 C   0  0  0  0  0  0  0  0  0  0  0  0
    0.8445    1.3450    2.0629 C   0  0  0  0  0  0  0  0  0  0  0  0
   -0.1968    2.1533    1.4389 N   0  0  0  0  0  0  0  0  0  0  0  0
   -1.5140    1.7480    1.5960 C   0  0  0  0  0  0  0  0  0  0  0  0
   -1.8334    0.7292    2.2076 O   0  0  0  0  0  0  0  0  0  0  0  0
   -2.5687    2.6164    1.0146 C   0  0  0  0  0  0  0  0  0  0  0  0
   -3.7615    2.0998    0.6955 C   0  0  0  0  0  0  0  0  0  0  0  0
    0.2812    3.2059    0.5397 C   0  0  0  0  0  0  0  0  0  0  0  0
    1.2381    4.1357    1.2815 C   0  0  0  0  0  0  0  0  0  0  0  0
    2.0830   -2.7060   -1.1854 H   0  0  0  0  0  0  0  0  0  0  0  0
    2.6234   -1.8519   -2.7410 H   0  0  0  0  0  0  0  0  0  0  0  0
    3.4439   -1.1605    0.1503 H   0  0  0  0  0  0  0  0  0  0  0  0
    4.5430    0.7887    0.2632 H   0  0  0  0  0  0  0  0  0  0  0  0
    6.7313    0.9169   -2.3291 H   0  0  0  0  0  0  0  0  0  0  0  0
    7.6854    1.0653   -4.4940 H   0  0  0  0  0  0  0  0  0  0  0  0
   10.7951    2.7717   -3.4384 H   0  0  0  0  0  0  0  0  0  0  0  0
   13.0151    1.7966   -3.8204 H   0  0  0  0  0  0  0  0  0  0  0  0
   11.2057   -1.5150   -5.9164 H   0  0  0  0  0  0  0  0  0  0  0  0
    8.4711    6.0336   -4.4210 H   0  0  0  0  0  0  0  0  0  0  0  0
    5.1924    5.4699   -1.2559 H   0  0  0  0  0  0  0  0  0  0  0  0
    4.1835    2.2912    1.4741 H   0  0  0  0  0  0  0  0  0  0  0  0
    2.8567    2.0577    0.2772 H   0  0  0  0  0  0  0  0  0  0  0  0
    2.9564    4.0719    2.5593 H   0  0  0  0  0  0  0  0  0  0  0  0
    1.3437    2.6715    3.6795 H   0  0  0  0  0  0  0  0  0  0  0  0
    2.6639    1.6110    3.1982 H   0  0  0  0  0  0  0  0  0  0  0  0
    0.4250    0.6128    2.7610 H   0  0  0  0  0  0  0  0  0  0  0  0
    1.3359    0.7702    1.2694 H   0  0  0  0  0  0  0  0  0  0  0  0
   -2.3917    3.6765    0.9148 H   0  0  0  0  0  0  0  0  0  0  0  0
   -3.9740    1.0420    0.8353 H   0  0  0  0  0  0  0  0  0  0  0  0
   -4.5540    2.7256    0.3032 H   0  0  0  0  0  0  0  0  0  0  0  0
   -0.5303    3.7872    0.1032 H   0  0  0  0  0  0  0  0  0  0  0  0
    0.7846    2.7130   -0.3011 H   0  0  0  0  0  0  0  0  0  0  0  0
    0.6773    4.6463    2.0767 H   0  0  0  0  0  0  0  0  0  0  0  0
    1.6100    4.9144    0.6072 H   0  0  0  0  0  0  0  0  0  0  0  0
  1  2  2  0  0  0  0
  1 37  1  0  0  0  0
  1 38  1  0  0  0  0
  2  3  1  0  0  0  0
  2 39  1  0  0  0  0
  3  4  2  0  0  0  0
  3  5  1  0  0  0  0
  5  6  1  0  0  0  0
  5 40  1  0  0  0  0
  6  7  1  0  0  0  0
  6 24  2  0  0  0  0
  7  8  2  0  0  0  0
  7 41  1  0  0  0  0
  8  9  1  0  0  0  0
  8 22  1  0  0  0  0
  9 10  1  0  0  0  0
  9 19  2  0  0  0  0
 10 11  1  0  0  0  0
 10 42  1  0  0  0  0
 11 12  1  0  0  0  0
 11 17  2  0  0  0  0
 12 13  2  0  0  0  0
 12 43  1  0  0  0  0
 13 14  1  0  0  0  0
 13 44  1  0  0  0  0
 14 15  1  0  0  0  0
 14 16  2  0  0  0  0
 16 17  1  0  0  0  0
 16 45  1  0  0  0  0
 17 18  1  0  0  0  0
 19 20  1  0  0  0  0
 20 21  2  0  0  0  0
 20 46  1  0  0  0  0
 21 22  1  0  0  0  0
 22 23  2  0  0  0  0
 23 24  1  0  0  0  0
 23 47  1  0  0  0  0
 24 25  1  0  0  0  0
 25 26  1  0  0  0  0
 26 27  1  0  0  0  0
 26 48  1  0  0  0  0
 26 49  1  0  0  0  0
 27 28  1  0  0  0  0
 27 36  1  0  0  0  0
 27 50  1  0  0  0  0
 28 29  1  0  0  0  0
 28 51  1  0  0  0  0
 28 52  1  0  0  0  0
 29 30  1  0  0  0  0
 29 53  1  0  0  0  0
 29 54  1  0  0  0  0
 30 31  1  0  0  0  0
 30 35  1  0  0  0  0
 31 32  2  0  0  0  0
 31 33  1  0  0  0  0
 33 34  2  0  0  0  0
 33 55  1  0  0  0  0
 34 56  1  0  0  0  0
 34 57  1  0  0  0  0
 35 36  1  0  0  0  0
 35 58  1  0  0  0  0
 35 59  1  0  0  0  0
 36 60  1  0  0  0  0
 36 61  1  0  0  0  0
M  END
$$$$
