CHEMBL4285414
 OpenBabel04072215383D

 45 48  0  0  0  0  0  0  0  0999 V2000
    2.6138   -1.6298   -0.4485 O   0  0  0  0  0  0  0  0  0  0  0  0
    2.1982   -0.4843   -0.5691 C   0  0  0  0  0  0  0  0  0  0  0  0
    0.8440   -0.1547   -0.5326 N   0  0  0  0  0  0  0  0  0  0  0  0
   -0.0644   -1.1643   -0.4214 N   0  0  0  0  0  0  0  0  0  0  0  0
   -1.3140   -0.8374   -0.4473 C   0  0  0  0  0  0  0  0  0  0  0  0
   -2.3626   -1.8758   -0.3612 C   0  0  0  0  0  0  0  0  0  0  0  0
   -2.0090   -3.2283   -0.2810 C   0  0  0  0  0  0  0  0  0  0  0  0
   -3.0005   -4.2056   -0.1866 C   0  0  0  0  0  0  0  0  0  0  0  0
   -4.3418   -3.8273   -0.1786 C   0  0  0  0  0  0  0  0  0  0  0  0
   -5.6854   -5.1499   -0.0406 Br  0  0  0  0  0  0  0  0  0  0  0  0
   -4.7005   -2.4806   -0.2681 C   0  0  0  0  0  0  0  0  0  0  0  0
   -3.7085   -1.4989   -0.3591 C   0  0  0  0  0  0  0  0  0  0  0  0
    2.9876    0.6421   -0.7491 N   0  0  0  0  0  0  0  0  0  0  0  0
    4.3940    0.6797   -0.8735 C   0  0  0  0  0  0  0  0  0  0  0  0
    5.2151   -0.4515   -0.8477 C   0  0  0  0  0  0  0  0  0  0  0  0
    6.6095   -0.3273   -0.8899 C   0  0  0  0  0  0  0  0  0  0  0  0
    7.2013    0.9284   -0.9808 C   0  0  0  0  0  0  0  0  0  0  0  0
    8.5757    0.9421   -0.9694 O   0  0  0  0  0  0  0  0  0  0  0  0
    9.2579    1.9875   -0.3844 C   0  0  0  0  0  0  0  0  0  0  0  0
    8.7567    2.7798    0.6542 C   0  0  0  0  0  0  0  0  0  0  0  0
    9.5017    3.8618    1.1011 C   0  0  0  0  0  0  0  0  0  0  0  0
   10.7386    4.1986    0.6785 N   0  0  0  0  0  0  0  0  0  0  0  0
   11.2172    3.3460   -0.2467 C   0  0  0  0  0  0  0  0  0  0  0  0
   12.4595    3.4412   -0.8069 N   0  0  0  0  0  0  0  0  0  0  0  0
   12.6527    2.4137   -1.6938 C   0  0  0  0  0  0  0  0  0  0  0  0
   11.4942    1.6647   -1.7249 C   0  0  0  0  0  0  0  0  0  0  0  0
   10.5717    2.2516   -0.8106 C   0  0  0  0  0  0  0  0  0  0  0  0
    6.3751    2.0467   -1.1198 C   0  0  0  0  0  0  0  0  0  0  0  0
    6.8837    3.2727   -1.3119 F   0  0  0  0  0  0  0  0  0  0  0  0
    4.9884    1.9330   -1.0326 C   0  0  0  0  0  0  0  0  0  0  0  0
    0.5278    0.7618   -0.8114 H   0  0  0  0  0  0  0  0  0  0  0  0
   -1.6448    0.2128   -0.5274 H   0  0  0  0  0  0  0  0  0  0  0  0
   -0.9616   -3.5270   -0.2892 H   0  0  0  0  0  0  0  0  0  0  0  0
   -2.7138   -5.2520   -0.1177 H   0  0  0  0  0  0  0  0  0  0  0  0
   -5.7479   -2.1892   -0.2652 H   0  0  0  0  0  0  0  0  0  0  0  0
   -3.9986   -0.4539   -0.4241 H   0  0  0  0  0  0  0  0  0  0  0  0
    2.5174    1.5321   -0.6996 H   0  0  0  0  0  0  0  0  0  0  0  0
    4.8071   -1.4556   -0.7775 H   0  0  0  0  0  0  0  0  0  0  0  0
    7.2277   -1.2208   -0.8392 H   0  0  0  0  0  0  0  0  0  0  0  0
    7.7831    2.5997    1.0916 H   0  0  0  0  0  0  0  0  0  0  0  0
    9.0835    4.5276    1.8523 H   0  0  0  0  0  0  0  0  0  0  0  0
   13.1248    4.1610   -0.5687 H   0  0  0  0  0  0  0  0  0  0  0  0
   13.5915    2.3056   -2.2209 H   0  0  0  0  0  0  0  0  0  0  0  0
   11.3309    0.7799   -2.3267 H   0  0  0  0  0  0  0  0  0  0  0  0
    4.3985    2.8414   -1.0945 H   0  0  0  0  0  0  0  0  0  0  0  0
  1  2  2  0  0  0  0
  2  3  1  0  0  0  0
  2 13  1  0  0  0  0
  3  4  1  0  0  0  0
  3 31  1  0  0  0  0
  4  5  2  0  0  0  0
  5  6  1  0  0  0  0
  5 32  1  0  0  0  0
  6  7  1  0  0  0  0
  6 12  2  0  0  0  0
  7  8  2  0  0  0  0
  7 33  1  0  0  0  0
  8  9  1  0  0  0  0
  8 34  1  0  0  0  0
  9 10  1  0  0  0  0
  9 11  2  0  0  0  0
 11 12  1  0  0  0  0
 11 35  1  0  0  0  0
 12 36  1  0  0  0  0
 13 14  1  0  0  0  0
 13 37  1  0  0  0  0
 14 15  1  0  0  0  0
 14 30  2  0  0  0  0
 15 16  2  0  0  0  0
 15 38  1  0  0  0  0
 16 17  1  0  0  0  0
 16 39  1  0  0  0  0
 17 18  1  0  0  0  0
 17 28  2  0  0  0  0
 18 19  1  0  0  0  0
 19 20  1  0  0  0  0
 19 27  2  0  0  0  0
 20 21  2  0  0  0  0
 20 40  1  0  0  0  0
 21 22  1  0  0  0  0
 21 41  1  0  0  0  0
 22 23  2  0  0  0  0
 23 24  1  0  0  0  0
 23 27  1  0  0  0  0
 24 25  1  0  0  0  0
 24 42  1  0  0  0  0
 25 26  2  0  0  0  0
 25 43  1  0  0  0  0
 26 27  1  0  0  0  0
 26 44  1  0  0  0  0
 28 29  1  0  0  0  0
 28 30  1  0  0  0  0
 30 45  1  0  0  0  0
M  END
$$$$
