CHEMBL496762
 OpenBabel04072215383D

 55 59  0  0  0  0  0  0  0  0999 V2000
    0.8004    0.0792   -0.0476 C   0  0  0  0  0  0  0  0  0  0  0  0
    2.1899    0.1627   -0.4664 N   0  0  0  0  0  0  0  0  0  0  0  0
    3.0056    1.2286   -0.0191 C   0  0  0  0  0  0  0  0  0  0  0  0
    2.7337    1.8795    1.2034 C   0  0  0  0  0  0  0  0  0  0  0  0
    3.5863    2.8506    1.7280 C   0  0  0  0  0  0  0  0  0  0  0  0
    4.7391    3.1870    1.0439 C   0  0  0  0  0  0  0  0  0  0  0  0
    5.0231    2.5640   -0.1719 C   0  0  0  0  0  0  0  0  0  0  0  0
    6.1790    2.9700   -0.8261 N   0  0  0  0  0  0  0  0  0  0  0  0
    6.5666    2.4992   -2.0338 C   0  0  0  0  0  0  0  0  0  0  0  0
    7.6221    2.9107   -2.5148 O   0  0  0  0  0  0  0  0  0  0  0  0
    5.7167    1.4586   -2.7007 C   0  0  0  0  0  0  0  0  0  0  0  0
    6.1661    0.9224   -3.9583 C   0  0  0  0  0  0  0  0  0  0  0  0
    5.5501    0.3416   -4.9814 N   0  0  0  0  0  0  0  0  0  0  0  0
    6.5589   -0.0732   -5.8396 C   0  0  0  0  0  0  0  0  0  0  0  0
    6.5140   -0.7719   -7.0559 C   0  0  0  0  0  0  0  0  0  0  0  0
    7.7147   -1.1995   -7.6757 C   0  0  0  0  0  0  0  0  0  0  0  0
    7.6286   -1.9736   -8.8382 N   0  0  0  0  0  0  0  0  0  0  0  0
    8.7737   -2.0405   -9.7668 C   0  0  0  0  0  0  0  0  0  0  0  0
    8.2871   -2.6308  -11.1146 C   0  0  0  0  0  0  0  0  0  0  0  0
    7.6513   -3.9645  -10.9729 N   0  0  0  0  0  0  0  0  0  0  0  0
    7.0861   -4.3954  -12.2512 C   0  0  0  0  0  0  0  0  0  0  0  0
    6.5828   -3.9061   -9.9457 C   0  0  0  0  0  0  0  0  0  0  0  0
    7.0610   -3.3191   -8.6007 C   0  0  0  0  0  0  0  0  0  0  0  0
    8.9374   -0.8466   -7.0915 C   0  0  0  0  0  0  0  0  0  0  0  0
    9.0140   -0.0865   -5.9233 C   0  0  0  0  0  0  0  0  0  0  0  0
    7.8018    0.2635   -5.3338 C   0  0  0  0  0  0  0  0  0  0  0  0
    7.5170    0.9689   -4.2088 N   0  0  0  0  0  0  0  0  0  0  0  0
    4.6088    0.9878   -2.0711 C   0  0  0  0  0  0  0  0  0  0  0  0
    3.8246   -0.0448   -2.5682 N   0  0  0  0  0  0  0  0  0  0  0  0
    4.1925    1.5759   -0.7354 C   0  0  0  0  0  0  0  0  0  0  0  0
    0.3662   -0.8423   -0.4478 H   0  0  0  0  0  0  0  0  0  0  0  0
    0.2305    0.9193   -0.4569 H   0  0  0  0  0  0  0  0  0  0  0  0
    0.6788    0.0422    1.0385 H   0  0  0  0  0  0  0  0  0  0  0  0
    2.6974   -0.7091   -0.2822 H   0  0  0  0  0  0  0  0  0  0  0  0
    1.8574    1.6318    1.7921 H   0  0  0  0  0  0  0  0  0  0  0  0
    3.3519    3.3341    2.6724 H   0  0  0  0  0  0  0  0  0  0  0  0
    5.4064    3.9384    1.4564 H   0  0  0  0  0  0  0  0  0  0  0  0
    6.7877    3.6658   -0.4156 H   0  0  0  0  0  0  0  0  0  0  0  0
    5.5534   -0.9950   -7.5083 H   0  0  0  0  0  0  0  0  0  0  0  0
    9.5733   -2.6718   -9.3561 H   0  0  0  0  0  0  0  0  0  0  0  0
    9.1865   -1.0415   -9.9516 H   0  0  0  0  0  0  0  0  0  0  0  0
    9.1479   -2.7107  -11.7896 H   0  0  0  0  0  0  0  0  0  0  0  0
    7.5790   -1.9219  -11.5644 H   0  0  0  0  0  0  0  0  0  0  0  0
    7.8693   -4.4733  -13.0122 H   0  0  0  0  0  0  0  0  0  0  0  0
    6.3168   -3.7052  -12.6177 H   0  0  0  0  0  0  0  0  0  0  0  0
    6.6352   -5.3891  -12.1544 H   0  0  0  0  0  0  0  0  0  0  0  0
    6.2007   -4.9169   -9.7623 H   0  0  0  0  0  0  0  0  0  0  0  0
    5.7451   -3.2943  -10.3070 H   0  0  0  0  0  0  0  0  0  0  0  0
    7.8238   -3.9719   -8.1541 H   0  0  0  0  0  0  0  0  0  0  0  0
    6.2089   -3.2925   -7.9122 H   0  0  0  0  0  0  0  0  0  0  0  0
    9.8755   -1.1872   -7.5248 H   0  0  0  0  0  0  0  0  0  0  0  0
    9.9651    0.1785   -5.4770 H   0  0  0  0  0  0  0  0  0  0  0  0
    8.1931    1.4460   -3.6240 H   0  0  0  0  0  0  0  0  0  0  0  0
    3.8983   -0.1400   -3.5873 H   0  0  0  0  0  0  0  0  0  0  0  0
    2.8561    0.0328   -2.2426 H   0  0  0  0  0  0  0  0  0  0  0  0
  1  2  1  0  0  0  0
  1 31  1  0  0  0  0
  1 32  1  0  0  0  0
  1 33  1  0  0  0  0
  2  3  1  0  0  0  0
  2 34  1  0  0  0  0
  3  4  1  0  0  0  0
  3 30  2  0  0  0  0
  4  5  2  0  0  0  0
  4 35  1  0  0  0  0
  5  6  1  0  0  0  0
  5 36  1  0  0  0  0
  6  7  2  0  0  0  0
  6 37  1  0  0  0  0
  7  8  1  0  0  0  0
  7 30  1  0  0  0  0
  8  9  1  0  0  0  0
  8 38  1  0  0  0  0
  9 10  2  0  0  0  0
  9 11  1  0  0  0  0
 11 12  1  0  0  0  0
 11 28  2  0  0  0  0
 12 13  2  0  0  0  0
 12 27  1  0  0  0  0
 13 14  1  0  0  0  0
 14 15  1  0  0  0  0
 14 26  2  0  0  0  0
 15 16  2  0  0  0  0
 15 39  1  0  0  0  0
 16 17  1  0  0  0  0
 16 24  1  0  0  0  0
 17 18  1  0  0  0  0
 17 23  1  0  0  0  0
 18 19  1  0  0  0  0
 18 40  1  0  0  0  0
 18 41  1  0  0  0  0
 19 20  1  0  0  0  0
 19 42  1  0  0  0  0
 19 43  1  0  0  0  0
 20 21  1  0  0  0  0
 20 22  1  0  0  0  0
 21 44  1  0  0  0  0
 21 45  1  0  0  0  0
 21 46  1  0  0  0  0
 22 23  1  0  0  0  0
 22 47  1  0  0  0  0
 22 48  1  0  0  0  0
 23 49  1  0  0  0  0
 23 50  1  0  0  0  0
 24 25  2  0  0  0  0
 24 51  1  0  0  0  0
 25 26  1  0  0  0  0
 25 52  1  0  0  0  0
 26 27  1  0  0  0  0
 27 53  1  0  0  0  0
 28 29  1  0  0  0  0
 28 30  1  0  0  0  0
 29 54  1  0  0  0  0
 29 55  1  0  0  0  0
M  END
$$$$
