CHEMBL3948623
 OpenBabel04072215373D

 69 73  0  0  0  0  0  0  0  0999 V2000
    9.7750    0.6085   -1.5014 C   0  0  0  0  0  0  0  0  0  0  0  0
    8.3410    0.5754   -1.6501 N   0  0  0  0  0  0  0  0  0  0  0  0
    7.5088    0.9490   -0.6100 C   0  0  0  0  0  0  0  0  0  0  0  0
    7.9638    1.2754    0.4880 O   0  0  0  0  0  0  0  0  0  0  0  0
    6.0008    0.9335   -0.9178 C   0  0  0  0  0  0  0  0  0  0  0  0
    5.5833   -0.4979   -1.3214 C   0  0  0  0  0  0  0  0  0  0  0  0
    5.2098    1.3026    0.3559 C   0  0  0  0  0  0  0  0  0  0  0  0
    5.7199    1.9252   -1.9692 N   0  0  0  0  0  0  0  0  0  0  0  0
    5.9716    3.2758   -1.9176 C   0  0  0  0  0  0  0  0  0  0  0  0
    5.5021    3.8173   -3.0993 C   0  0  0  0  0  0  0  0  0  0  0  0
    5.5053    5.2188   -3.4746 C   0  0  0  0  0  0  0  0  0  0  0  0
    6.0335    6.2102   -2.6628 C   0  0  0  0  0  0  0  0  0  0  0  0
    6.0064    7.5214   -2.9935 N   0  0  0  0  0  0  0  0  0  0  0  0
    5.4173    7.8281   -4.1624 C   0  0  0  0  0  0  0  0  0  0  0  0
    5.3332    9.1517   -4.5453 C   0  0  0  0  0  0  0  0  0  0  0  0
    4.7036    9.5231   -5.7374 C   0  0  0  0  0  0  0  0  0  0  0  0
    4.0967    8.5830   -6.5811 C   0  0  0  0  0  0  0  0  0  0  0  0
    3.3715    9.0028   -7.7329 N   0  0  0  0  0  0  0  0  0  0  0  0
    3.3277    8.0919   -8.8993 C   0  0  0  0  0  0  0  0  0  0  0  0
    4.3587    8.3587   -9.9784 C   0  0  0  0  0  0  0  0  0  0  0  0
    5.8329    8.2051   -9.6943 C   0  0  0  0  0  0  0  0  0  0  0  0
    5.2900    9.5552  -10.0472 C   0  0  0  0  0  0  0  0  0  0  0  0
    2.6830   10.2508   -7.9017 C   0  0  0  0  0  0  0  0  0  0  0  0
    2.4511   10.8122   -9.1723 C   0  0  0  0  0  0  0  0  0  0  0  0
    1.9182   12.0903   -9.3506 C   0  0  0  0  0  0  0  0  0  0  0  0
    1.7483   12.7122  -10.5595 O   0  0  0  0  0  0  0  0  0  0  0  0
    2.2028   12.0044  -11.7110 C   0  0  0  0  0  0  0  0  0  0  0  0
    1.5342   12.8264   -8.2354 C   0  0  0  0  0  0  0  0  0  0  0  0
    1.6499   12.2698   -6.9648 C   0  0  0  0  0  0  0  0  0  0  0  0
    1.2856   12.8927   -5.8003 O   0  0  0  0  0  0  0  0  0  0  0  0
    0.2506   13.8614   -5.9307 C   0  0  0  0  0  0  0  0  0  0  0  0
    2.2200   10.9989   -6.8086 C   0  0  0  0  0  0  0  0  0  0  0  0
    4.2354    7.2344   -6.1914 C   0  0  0  0  0  0  0  0  0  0  0  0
    4.8712    6.8366   -5.0073 C   0  0  0  0  0  0  0  0  0  0  0  0
    4.9294    5.5274   -4.6657 N   0  0  0  0  0  0  0  0  0  0  0  0
    5.0082    2.7011   -3.8064 C   0  0  0  0  0  0  0  0  0  0  0  0
    5.1653    1.5526   -3.1428 N   0  0  0  0  0  0  0  0  0  0  0  0
   10.2372    0.3184   -2.4475 H   0  0  0  0  0  0  0  0  0  0  0  0
   10.0706   -0.0867   -0.7109 H   0  0  0  0  0  0  0  0  0  0  0  0
   10.0877    1.6205   -1.2273 H   0  0  0  0  0  0  0  0  0  0  0  0
    7.9520    0.4421   -2.5792 H   0  0  0  0  0  0  0  0  0  0  0  0
    5.8117   -1.2135   -0.5231 H   0  0  0  0  0  0  0  0  0  0  0  0
    6.1035   -0.8441   -2.2215 H   0  0  0  0  0  0  0  0  0  0  0  0
    4.5068   -0.5561   -1.5231 H   0  0  0  0  0  0  0  0  0  0  0  0
    5.3863    0.5720    1.1547 H   0  0  0  0  0  0  0  0  0  0  0  0
    4.1320    1.3361    0.1609 H   0  0  0  0  0  0  0  0  0  0  0  0
    5.5036    2.2822    0.7514 H   0  0  0  0  0  0  0  0  0  0  0  0
    6.4386    3.7148   -1.0456 H   0  0  0  0  0  0  0  0  0  0  0  0
    6.4915    5.9958   -1.7052 H   0  0  0  0  0  0  0  0  0  0  0  0
    5.7504    9.9196   -3.8982 H   0  0  0  0  0  0  0  0  0  0  0  0
    4.6902   10.5807   -5.9881 H   0  0  0  0  0  0  0  0  0  0  0  0
    2.3259    8.1355   -9.3514 H   0  0  0  0  0  0  0  0  0  0  0  0
    3.4195    7.0385   -8.6267 H   0  0  0  0  0  0  0  0  0  0  0  0
    3.9990    7.9755  -10.9303 H   0  0  0  0  0  0  0  0  0  0  0  0
    6.4363    7.6928  -10.4351 H   0  0  0  0  0  0  0  0  0  0  0  0
    6.1594    8.0583   -8.6738 H   0  0  0  0  0  0  0  0  0  0  0  0
    5.5193    9.9612  -11.0272 H   0  0  0  0  0  0  0  0  0  0  0  0
    5.2768   10.3044   -9.2628 H   0  0  0  0  0  0  0  0  0  0  0  0
    2.7345   10.2592  -10.0543 H   0  0  0  0  0  0  0  0  0  0  0  0
    2.0089   12.6251  -12.5908 H   0  0  0  0  0  0  0  0  0  0  0  0
    1.6494   11.0673  -11.8406 H   0  0  0  0  0  0  0  0  0  0  0  0
    3.2814   11.8208  -11.6648 H   0  0  0  0  0  0  0  0  0  0  0  0
    1.1562   13.8316   -8.3863 H   0  0  0  0  0  0  0  0  0  0  0  0
   -0.0909   14.1225   -4.9247 H   0  0  0  0  0  0  0  0  0  0  0  0
   -0.6059   13.4549   -6.4800 H   0  0  0  0  0  0  0  0  0  0  0  0
    0.6238   14.7754   -6.4034 H   0  0  0  0  0  0  0  0  0  0  0  0
    2.2828   10.5969   -5.7993 H   0  0  0  0  0  0  0  0  0  0  0  0
    3.8036    6.4306   -6.7790 H   0  0  0  0  0  0  0  0  0  0  0  0
    4.5409    2.6855   -4.7839 H   0  0  0  0  0  0  0  0  0  0  0  0
  1  2  1  0  0  0  0
  1 38  1  0  0  0  0
  1 39  1  0  0  0  0
  1 40  1  0  0  0  0
  2  3  1  0  0  0  0
  2 41  1  0  0  0  0
  3  4  2  0  0  0  0
  3  5  1  0  0  0  0
  5  6  1  0  0  0  0
  5  7  1  0  0  0  0
  5  8  1  0  0  0  0
  6 42  1  0  0  0  0
  6 43  1  0  0  0  0
  6 44  1  0  0  0  0
  7 45  1  0  0  0  0
  7 46  1  0  0  0  0
  7 47  1  0  0  0  0
  8  9  1  0  0  0  0
  8 37  1  0  0  0  0
  9 10  2  0  0  0  0
  9 48  1  0  0  0  0
 10 11  1  0  0  0  0
 10 36  1  0  0  0  0
 11 12  1  0  0  0  0
 11 35  2  0  0  0  0
 12 13  2  0  0  0  0
 12 49  1  0  0  0  0
 13 14  1  0  0  0  0
 14 15  1  0  0  0  0
 14 34  2  0  0  0  0
 15 16  2  0  0  0  0
 15 50  1  0  0  0  0
 16 17  1  0  0  0  0
 16 51  1  0  0  0  0
 17 18  1  0  0  0  0
 17 33  2  0  0  0  0
 18 19  1  0  0  0  0
 18 23  1  0  0  0  0
 19 20  1  0  0  0  0
 19 52  1  0  0  0  0
 19 53  1  0  0  0  0
 20 21  1  0  0  0  0
 20 22  1  0  0  0  0
 20 54  1  0  0  0  0
 21 22  1  0  0  0  0
 21 55  1  0  0  0  0
 21 56  1  0  0  0  0
 22 57  1  0  0  0  0
 22 58  1  0  0  0  0
 23 24  1  0  0  0  0
 23 32  2  0  0  0  0
 24 25  2  0  0  0  0
 24 59  1  0  0  0  0
 25 26  1  0  0  0  0
 25 28  1  0  0  0  0
 26 27  1  0  0  0  0
 27 60  1  0  0  0  0
 27 61  1  0  0  0  0
 27 62  1  0  0  0  0
 28 29  2  0  0  0  0
 28 63  1  0  0  0  0
 29 30  1  0  0  0  0
 29 32  1  0  0  0  0
 30 31  1  0  0  0  0
 31 64  1  0  0  0  0
 31 65  1  0  0  0  0
 31 66  1  0  0  0  0
 32 67  1  0  0  0  0
 33 34  1  0  0  0  0
 33 68  1  0  0  0  0
 34 35  1  0  0  0  0
 36 37  2  0  0  0  0
 36 69  1  0  0  0  0
M  END
$$$$
