CHEMBL2086749
 OpenBabel04072215363D

 67 72  0  0  0  0  0  0  0  0999 V2000
    6.3784   -4.0136   -3.6842 C   0  0  0  0  0  0  0  0  0  0  0  0
    5.3246   -3.0172   -3.2116 C   0  0  0  0  0  0  0  0  0  0  0  0
    3.9963   -3.2048   -3.8303 N   0  0  0  0  0  0  0  0  0  0  0  0
    3.4434   -4.5291   -3.5056 C   0  0  0  0  0  0  0  0  0  0  0  0
    2.0304   -4.7055   -4.0547 C   0  0  0  0  0  0  0  0  0  0  0  0
    1.0942   -3.6486   -3.4662 C   0  0  0  0  0  0  0  0  0  0  0  0
    1.0248   -3.7195   -2.0241 O   0  0  0  0  0  0  0  0  0  0  0  0
    0.4819   -4.8444   -1.4504 C   0  0  0  0  0  0  0  0  0  0  0  0
   -0.4187   -5.6981   -2.1063 C   0  0  0  0  0  0  0  0  0  0  0  0
   -0.8899   -6.8484   -1.4774 C   0  0  0  0  0  0  0  0  0  0  0  0
   -0.4573   -7.0983   -0.1880 C   0  0  0  0  0  0  0  0  0  0  0  0
    0.4105   -6.2592    0.5191 C   0  0  0  0  0  0  0  0  0  0  0  0
    0.8813   -5.1148   -0.1209 C   0  0  0  0  0  0  0  0  0  0  0  0
    0.5876   -6.8936    1.8627 C   0  0  0  0  0  0  0  0  0  0  0  0
    1.2798   -6.5031    2.9637 C   0  0  0  0  0  0  0  0  0  0  0  0
    1.9541   -5.1855    2.9789 C   0  0  0  0  0  0  0  0  0  0  0  0
    1.2320   -4.0410    3.3558 C   0  0  0  0  0  0  0  0  0  0  0  0
    1.8734   -2.8088    3.4680 C   0  0  0  0  0  0  0  0  0  0  0  0
    3.2356   -2.7098    3.1936 C   0  0  0  0  0  0  0  0  0  0  0  0
    3.9550   -3.8389    2.7991 C   0  0  0  0  0  0  0  0  0  0  0  0
    3.3188   -5.0772    2.6951 C   0  0  0  0  0  0  0  0  0  0  0  0
    1.2353   -7.2641    4.1870 C   0  0  0  0  0  0  0  0  0  0  0  0
    1.9944   -8.2189    4.7085 N   0  0  0  0  0  0  0  0  0  0  0  0
    1.4358   -8.5242    5.9485 C   0  0  0  0  0  0  0  0  0  0  0  0
    1.7837   -9.4873    6.9299 C   0  0  0  0  0  0  0  0  0  0  0  0
    0.9864   -9.5868    8.0862 C   0  0  0  0  0  0  0  0  0  0  0  0
    1.1279  -10.4688    9.1241 O   0  0  0  0  0  0  0  0  0  0  0  0
    2.1680  -11.4300    9.0763 C   0  0  0  0  0  0  0  0  0  0  0  0
   -0.1038   -8.7283    8.2717 C   0  0  0  0  0  0  0  0  0  0  0  0
   -0.4404   -7.7519    7.3375 C   0  0  0  0  0  0  0  0  0  0  0  0
    0.3494   -7.6941    6.1938 C   0  0  0  0  0  0  0  0  0  0  0  0
    0.2766   -6.8858    5.0954 N   0  0  0  0  0  0  0  0  0  0  0  0
   -0.2736   -8.1467    1.8361 C   0  0  0  0  0  0  0  0  0  0  0  0
   -0.5186   -8.9334    2.7270 O   0  0  0  0  0  0  0  0  0  0  0  0
   -0.8348   -8.1900    0.5749 N   0  0  0  0  0  0  0  0  0  0  0  0
    1.6602   -2.2804   -3.8612 C   0  0  0  0  0  0  0  0  0  0  0  0
    3.1045   -2.1159   -3.3830 C   0  0  0  0  0  0  0  0  0  0  0  0
    7.3531   -3.7508   -3.2602 H   0  0  0  0  0  0  0  0  0  0  0  0
    6.4697   -4.0059   -4.7747 H   0  0  0  0  0  0  0  0  0  0  0  0
    6.1529   -5.0339   -3.3589 H   0  0  0  0  0  0  0  0  0  0  0  0
    5.6925   -2.0137   -3.4594 H   0  0  0  0  0  0  0  0  0  0  0  0
    5.2515   -3.0702   -2.1173 H   0  0  0  0  0  0  0  0  0  0  0  0
    3.4476   -4.6989   -2.4215 H   0  0  0  0  0  0  0  0  0  0  0  0
    4.0577   -5.3136   -3.9599 H   0  0  0  0  0  0  0  0  0  0  0  0
    1.6898   -5.7193   -3.8244 H   0  0  0  0  0  0  0  0  0  0  0  0
    2.0422   -4.6226   -5.1498 H   0  0  0  0  0  0  0  0  0  0  0  0
    0.0874   -3.7193   -3.8935 H   0  0  0  0  0  0  0  0  0  0  0  0
   -0.7640   -5.4961   -3.1151 H   0  0  0  0  0  0  0  0  0  0  0  0
   -1.5710   -7.5171   -1.9904 H   0  0  0  0  0  0  0  0  0  0  0  0
    1.5636   -4.4274    0.3673 H   0  0  0  0  0  0  0  0  0  0  0  0
    0.1696   -4.1030    3.5772 H   0  0  0  0  0  0  0  0  0  0  0  0
    1.3143   -1.9308    3.7810 H   0  0  0  0  0  0  0  0  0  0  0  0
    3.7401   -1.7523    3.2961 H   0  0  0  0  0  0  0  0  0  0  0  0
    5.0184   -3.7581    2.5896 H   0  0  0  0  0  0  0  0  0  0  0  0
    3.8935   -5.9565    2.4118 H   0  0  0  0  0  0  0  0  0  0  0  0
    2.6395  -10.1277    6.7580 H   0  0  0  0  0  0  0  0  0  0  0  0
    2.0342  -12.0919    9.9408 H   0  0  0  0  0  0  0  0  0  0  0  0
    3.1458  -10.9511    9.1756 H   0  0  0  0  0  0  0  0  0  0  0  0
    2.1098  -12.0499    8.1775 H   0  0  0  0  0  0  0  0  0  0  0  0
   -0.7144   -8.8360    9.1669 H   0  0  0  0  0  0  0  0  0  0  0  0
   -1.2876   -7.0947    7.4908 H   0  0  0  0  0  0  0  0  0  0  0  0
   -0.3910   -6.1444    4.9632 H   0  0  0  0  0  0  0  0  0  0  0  0
   -1.4705   -8.9195    0.2963 H   0  0  0  0  0  0  0  0  0  0  0  0
    1.0488   -1.4789   -3.4306 H   0  0  0  0  0  0  0  0  0  0  0  0
    1.6217   -2.1675   -4.9533 H   0  0  0  0  0  0  0  0  0  0  0  0
    3.1101   -2.0323   -2.2889 H   0  0  0  0  0  0  0  0  0  0  0  0
    3.4815   -1.1643   -3.7798 H   0  0  0  0  0  0  0  0  0  0  0  0
  1  2  1  0  0  0  0
  1 38  1  0  0  0  0
  1 39  1  0  0  0  0
  1 40  1  0  0  0  0
  2  3  1  0  0  0  0
  2 41  1  0  0  0  0
  2 42  1  0  0  0  0
  3  4  1  0  0  0  0
  3 37  1  0  0  0  0
  4  5  1  0  0  0  0
  4 43  1  0  0  0  0
  4 44  1  0  0  0  0
  5  6  1  0  0  0  0
  5 45  1  0  0  0  0
  5 46  1  0  0  0  0
  6  7  1  0  0  0  0
  6 36  1  0  0  0  0
  6 47  1  0  0  0  0
  7  8  1  0  0  0  0
  8  9  1  0  0  0  0
  8 13  2  0  0  0  0
  9 10  2  0  0  0  0
  9 48  1  0  0  0  0
 10 11  1  0  0  0  0
 10 49  1  0  0  0  0
 11 12  2  0  0  0  0
 11 35  1  0  0  0  0
 12 13  1  0  0  0  0
 12 14  1  0  0  0  0
 13 50  1  0  0  0  0
 14 15  2  3  0  0  0
 14 33  1  0  0  0  0
 15 16  1  0  0  0  0
 15 22  1  0  0  0  0
 16 17  1  0  0  0  0
 16 21  2  0  0  0  0
 17 18  2  0  0  0  0
 17 51  1  0  0  0  0
 18 19  1  0  0  0  0
 18 52  1  0  0  0  0
 19 20  2  0  0  0  0
 19 53  1  0  0  0  0
 20 21  1  0  0  0  0
 20 54  1  0  0  0  0
 21 55  1  0  0  0  0
 22 23  2  0  0  0  0
 22 32  1  0  0  0  0
 23 24  1  0  0  0  0
 24 25  1  0  0  0  0
 24 31  2  0  0  0  0
 25 26  2  0  0  0  0
 25 56  1  0  0  0  0
 26 27  1  0  0  0  0
 26 29  1  0  0  0  0
 27 28  1  0  0  0  0
 28 57  1  0  0  0  0
 28 58  1  0  0  0  0
 28 59  1  0  0  0  0
 29 30  2  0  0  0  0
 29 60  1  0  0  0  0
 30 31  1  0  0  0  0
 30 61  1  0  0  0  0
 31 32  1  0  0  0  0
 32 62  1  0  0  0  0
 33 34  2  0  0  0  0
 33 35  1  0  0  0  0
 35 63  1  0  0  0  0
 36 37  1  0  0  0  0
 36 64  1  0  0  0  0
 36 65  1  0  0  0  0
 37 66  1  0  0  0  0
 37 67  1  0  0  0  0
M  END
$$$$
