CHEMBL1945559
 OpenBabel04072215363D

 40 43  0  0  1  0  0  0  0  0999 V2000
    1.0180    0.2121   -0.0408 C   0  0  0  0  0  0  0  0  0  0  0  0
    2.4660    0.1710   -0.0927 N   0  0  0  0  0  0  0  0  0  0  0  0
    3.2898    1.2795   -0.1745 C   0  0  0  0  0  0  0  0  0  0  0  0
    4.5798    0.8272   -0.0114 C   0  0  0  0  0  0  0  0  0  0  0  0
    4.5642   -0.5889    0.0147 C   0  0  0  0  0  0  0  0  0  0  0  0
    5.5966   -1.5486    0.0788 C   0  0  0  0  0  0  0  0  0  0  0  0
    5.2782   -2.9082    0.0860 C   0  0  0  0  0  0  0  0  0  0  0  0
    3.9573   -3.3139    0.0315 C   0  0  0  0  0  0  0  0  0  0  0  0
    3.6754   -5.0264    0.0517 Cl  0  0  0  0  0  0  0  0  0  0  0  0
    2.8984   -2.3822   -0.0387 C   0  0  0  0  0  0  0  0  0  0  0  0
    1.2610   -2.9262   -0.1271 Cl  0  0  0  0  0  0  0  0  0  0  0  0
    3.2281   -1.0009   -0.0459 C   0  0  0  0  0  0  0  0  0  0  0  0
    5.7611    1.6966    0.0463 C   0  0  3  0  0  0  0  0  0  0  0  0
    6.3586    1.7627    1.4424 C   0  0  0  0  0  0  0  0  0  0  0  0
    6.8543    1.8176    2.6005 N   0  0  0  0  0  0  0  0  0  0  0  0
    5.3466    3.3892   -0.1261 C   0  0  0  0  0  0  0  0  0  0  0  0
    6.2669    4.1400   -1.1542 C   0  0  0  0  0  0  0  0  0  0  0  0
    6.2251    5.6995   -1.1023 C   0  0  0  0  0  0  0  0  0  0  0  0
    6.2527    6.3174    0.2188 N   0  0  0  0  0  0  0  0  0  0  0  0
    5.2859    5.7087    1.1167 C   0  0  0  0  0  0  0  0  0  0  0  0
    5.5497    4.2116    1.2148 C   0  0  0  0  0  0  0  0  0  0  0  0
    3.9387    3.5581   -0.5410 N   0  0  0  0  0  0  0  0  0  0  0  0
    2.9073    2.6582   -0.4017 C   0  0  0  0  0  0  0  0  0  0  0  0
    1.7714    3.0698   -0.5289 O   0  0  0  0  0  0  0  0  0  0  0  0
    0.6482    1.2277    0.0743 H   0  0  0  0  0  0  0  0  0  0  0  0
    0.6913   -0.3481    0.8386 H   0  0  0  0  0  0  0  0  0  0  0  0
    0.6253   -0.2145   -0.9668 H   0  0  0  0  0  0  0  0  0  0  0  0
    6.6385   -1.2408    0.1164 H   0  0  0  0  0  0  0  0  0  0  0  0
    6.0869   -3.6319    0.1349 H   0  0  0  0  0  0  0  0  0  0  0  0
    6.5174    1.4527   -0.7060 H   0  0  0  0  0  0  0  0  0  0  0  0
    5.9992    3.8481   -2.1770 H   0  0  0  0  0  0  0  0  0  0  0  0
    7.3086    3.8386   -0.9918 H   0  0  0  0  0  0  0  0  0  0  0  0
    7.0849    6.0979   -1.6575 H   0  0  0  0  0  0  0  0  0  0  0  0
    5.3395    6.0754   -1.6280 H   0  0  0  0  0  0  0  0  0  0  0  0
    7.1873    6.2797    0.6285 H   0  0  0  0  0  0  0  0  0  0  0  0
    4.2636    5.9247    0.7931 H   0  0  0  0  0  0  0  0  0  0  0  0
    5.3922    6.1621    2.1106 H   0  0  0  0  0  0  0  0  0  0  0  0
    4.9291    3.8085    2.0214 H   0  0  0  0  0  0  0  0  0  0  0  0
    6.6063    4.1397    1.5216 H   0  0  0  0  0  0  0  0  0  0  0  0
    3.5790    4.5020   -0.6458 H   0  0  0  0  0  0  0  0  0  0  0  0
  1  2  1  0  0  0  0
  1 25  1  0  0  0  0
  1 26  1  0  0  0  0
  1 27  1  0  0  0  0
  2  3  1  0  0  0  0
  2 12  1  0  0  0  0
  3  4  2  0  0  0  0
  3 23  1  0  0  0  0
  4  5  1  0  0  0  0
  4 13  1  0  0  0  0
  5  6  1  0  0  0  0
  5 12  2  0  0  0  0
  6  7  2  0  0  0  0
  6 28  1  0  0  0  0
  7  8  1  0  0  0  0
  7 29  1  0  0  0  0
  8  9  1  0  0  0  0
  8 10  2  0  0  0  0
 10 11  1  0  0  0  0
 10 12  1  0  0  0  0
 13 14  1  0  0  0  0
 13 16  1  0  0  0  0
 13 30  1  0  0  0  0
 14 15  3  0  0  0  0
 16 17  1  0  0  0  0
 16 21  1  0  0  0  0
 16 22  1  0  0  0  0
 17 18  1  0  0  0  0
 17 31  1  0  0  0  0
 17 32  1  0  0  0  0
 18 19  1  0  0  0  0
 18 33  1  0  0  0  0
 18 34  1  0  0  0  0
 19 20  1  0  0  0  0
 19 35  1  0  0  0  0
 20 21  1  0  0  0  0
 20 36  1  0  0  0  0
 20 37  1  0  0  0  0
 21 38  1  0  0  0  0
 21 39  1  0  0  0  0
 22 23  1  0  0  0  0
 22 40  1  0  0  0  0
 23 24  2  0  0  0  0
M  END
$$$$
