CHEMBL3919145
 OpenBabel04072215373D

 53 57  0  0  1  0  0  0  0  0999 V2000
    3.0088   -1.0794   -0.5489 C   0  0  0  0  0  0  0  0  0  0  0  0
    2.6155    0.0939    0.1817 O   0  0  0  0  0  0  0  0  0  0  0  0
    3.2351    1.2616   -0.2049 C   0  0  0  0  0  0  0  0  0  0  0  0
    4.3678    1.2332   -1.0294 C   0  0  0  0  0  0  0  0  0  0  0  0
    4.9004    2.4093   -1.5869 C   0  0  0  0  0  0  0  0  0  0  0  0
    5.9143    2.4085   -2.5671 C   0  0  0  0  0  0  0  0  0  0  0  0
    6.4344    1.1698   -3.0174 N   0  0  0  0  0  0  0  0  0  0  0  0
    6.8420    0.7755   -4.3044 C   0  0  0  0  0  0  0  0  0  0  0  0
    6.4221    1.4424   -5.4555 C   0  0  0  0  0  0  0  0  0  0  0  0
    6.7396    0.9576   -6.7316 C   0  0  0  0  0  0  0  0  0  0  0  0
    7.4880   -0.2098   -6.8702 C   0  0  0  0  0  0  0  0  0  0  0  0
    7.8049   -0.7854   -8.4673 Cl  0  0  0  0  0  0  0  0  0  0  0  0
    7.9319   -0.8807   -5.7268 C   0  0  0  0  0  0  0  0  0  0  0  0
    8.8759   -2.3281   -5.8107 Cl  0  0  0  0  0  0  0  0  0  0  0  0
    7.6015   -0.3881   -4.4537 C   0  0  0  0  0  0  0  0  0  0  0  0
    6.3527    3.5468   -3.1141 N   0  0  0  0  0  0  0  0  0  0  0  0
    5.7953    4.6797   -2.6666 C   0  0  0  0  0  0  0  0  0  0  0  0
    4.8208    4.7804   -1.7480 N   0  0  0  0  0  0  0  0  0  0  0  0
    4.3607    3.6393   -1.2299 C   0  0  0  0  0  0  0  0  0  0  0  0
    3.2996    3.6708   -0.3236 C   0  0  0  0  0  0  0  0  0  0  0  0
    2.7299    2.5041    0.2184 C   0  0  0  0  0  0  0  0  0  0  0  0
    1.6739    2.5293    1.1058 O   0  0  0  0  0  0  0  0  0  0  0  0
    1.4909    3.7281    1.8874 C   0  0  2  0  0  0  0  0  0  0  0  0
    0.6314    3.4216    3.1116 C   0  0  0  0  0  0  0  0  0  0  0  0
   -0.1365    4.6925    3.3596 C   0  0  1  0  0  0  0  0  0  0  0  0
    0.4749    5.5248    4.3575 O   0  0  0  0  0  0  0  0  0  0  0  0
    0.2096    6.8713    3.9351 C   0  0  0  0  0  0  0  0  0  0  0  0
    0.4283    6.8469    2.4307 C   0  0  2  0  0  0  0  0  0  0  0  0
   -0.2819    7.9226    1.8183 O   0  0  0  0  0  0  0  0  0  0  0  0
   -0.0485    8.0024    0.4168 C   0  0  0  0  0  0  0  0  0  0  0  0
   -0.0928    5.4578    2.0516 C   0  0  1  0  0  0  0  0  0  0  0  0
    0.8091    4.7716    1.1637 O   0  0  0  0  0  0  0  0  0  0  0  0
    2.3006   -1.8874   -0.3517 H   0  0  0  0  0  0  0  0  0  0  0  0
    3.9997   -1.4162   -0.2185 H   0  0  0  0  0  0  0  0  0  0  0  0
    3.0071   -0.9120   -1.6359 H   0  0  0  0  0  0  0  0  0  0  0  0
    4.8257    0.2959   -1.3021 H   0  0  0  0  0  0  0  0  0  0  0  0
    6.8085    0.6148   -2.2554 H   0  0  0  0  0  0  0  0  0  0  0  0
    5.8072    2.3387   -5.3837 H   0  0  0  0  0  0  0  0  0  0  0  0
    6.3799    1.4913   -7.6117 H   0  0  0  0  0  0  0  0  0  0  0  0
    7.9433   -0.9369   -3.5778 H   0  0  0  0  0  0  0  0  0  0  0  0
    6.1770    5.6042   -3.0759 H   0  0  0  0  0  0  0  0  0  0  0  0
    2.8929    4.6468   -0.0842 H   0  0  0  0  0  0  0  0  0  0  0  0
    2.4597    4.1144    2.2294 H   0  0  0  0  0  0  0  0  0  0  0  0
    1.2465    3.1162    3.9643 H   0  0  0  0  0  0  0  0  0  0  0  0
   -0.0631    2.6027    2.8921 H   0  0  0  0  0  0  0  0  0  0  0  0
   -1.1644    4.4999    3.6876 H   0  0  0  0  0  0  0  0  0  0  0  0
    0.8793    7.5678    4.4490 H   0  0  0  0  0  0  0  0  0  0  0  0
   -0.8208    7.1445    4.1990 H   0  0  0  0  0  0  0  0  0  0  0  0
    1.5004    6.9443    2.2171 H   0  0  0  0  0  0  0  0  0  0  0  0
   -0.5607    8.8902    0.0354 H   0  0  0  0  0  0  0  0  0  0  0  0
   -0.4578    7.1265   -0.0934 H   0  0  0  0  0  0  0  0  0  0  0  0
    1.0208    8.0990    0.2071 H   0  0  0  0  0  0  0  0  0  0  0  0
   -1.0734    5.4925    1.5659 H   0  0  0  0  0  0  0  0  0  0  0  0
  1  2  1  0  0  0  0
  1 33  1  0  0  0  0
  1 34  1  0  0  0  0
  1 35  1  0  0  0  0
  2  3  1  0  0  0  0
  3  4  1  0  0  0  0
  3 21  2  0  0  0  0
  4  5  2  0  0  0  0
  4 36  1  0  0  0  0
  5  6  1  0  0  0  0
  5 19  1  0  0  0  0
  6  7  1  0  0  0  0
  6 16  2  0  0  0  0
  7  8  1  0  0  0  0
  7 37  1  0  0  0  0
  8  9  1  0  0  0  0
  8 15  2  0  0  0  0
  9 10  2  0  0  0  0
  9 38  1  0  0  0  0
 10 11  1  0  0  0  0
 10 39  1  0  0  0  0
 11 12  1  0  0  0  0
 11 13  2  0  0  0  0
 13 14  1  0  0  0  0
 13 15  1  0  0  0  0
 15 40  1  0  0  0  0
 16 17  1  0  0  0  0
 17 18  2  0  0  0  0
 17 41  1  0  0  0  0
 18 19  1  0  0  0  0
 19 20  2  0  0  0  0
 20 21  1  0  0  0  0
 20 42  1  0  0  0  0
 21 22  1  0  0  0  0
 22 23  1  0  0  0  0
 23 24  1  0  0  0  0
 23 32  1  0  0  0  0
 23 43  1  1  0  0  0
 24 25  1  0  0  0  0
 24 44  1  0  0  0  0
 24 45  1  0  0  0  0
 25 26  1  0  0  0  0
 25 31  1  0  0  0  0
 25 46  1  1  0  0  0
 26 27  1  0  0  0  0
 27 28  1  0  0  0  0
 27 47  1  0  0  0  0
 27 48  1  0  0  0  0
 28 29  1  0  0  0  0
 28 31  1  0  0  0  0
 28 49  1  6  0  0  0
 29 30  1  0  0  0  0
 30 50  1  0  0  0  0
 30 51  1  0  0  0  0
 30 52  1  0  0  0  0
 31 32  1  0  0  0  0
 31 53  1  6  0  0  0
M  END
$$$$
