CHEMBL3656106
 OpenBabel04072215373D

 62 65  0  0  0  0  0  0  0  0999 V2000
    2.1394   -1.5912    3.8290 C   0  0  0  0  0  0  0  0  0  0  0  0
    2.5305   -0.5632    2.9202 O   0  0  0  0  0  0  0  0  0  0  0  0
    3.6109    0.1666    3.3334 C   0  0  0  0  0  0  0  0  0  0  0  0
    4.2217   -0.0131    4.3815 O   0  0  0  0  0  0  0  0  0  0  0  0
    3.9357    1.2493    2.3199 C   0  0  0  0  0  0  0  0  0  0  0  0
    5.0685    2.0482    2.7447 N   0  0  0  0  0  0  0  0  0  0  0  0
    5.5214    3.0715    1.9597 C   0  0  0  0  0  0  0  0  0  0  0  0
    5.0215    3.3369    0.8677 O   0  0  0  0  0  0  0  0  0  0  0  0
    6.6351    3.8512    2.5045 C   0  0  0  0  0  0  0  0  0  0  0  0
    7.3097    3.7110    3.7063 C   0  0  0  0  0  0  0  0  0  0  0  0
    8.2837    4.6817    3.7819 N   0  0  0  0  0  0  0  0  0  0  0  0
    8.2060    5.5036    2.6814 C   0  0  0  0  0  0  0  0  0  0  0  0
    9.0194    6.6971    2.4894 C   0  0  0  0  0  0  0  0  0  0  0  0
    8.8824    7.4434    1.3254 C   0  0  0  0  0  0  0  0  0  0  0  0
    9.6279    8.6037    1.1544 C   0  0  0  0  0  0  0  0  0  0  0  0
    9.5455    9.4186    0.0384 O   0  0  0  0  0  0  0  0  0  0  0  0
    8.3484    9.5090   -0.6436 C   0  0  0  0  0  0  0  0  0  0  0  0
    7.1154    9.3918   -0.0147 C   0  0  0  0  0  0  0  0  0  0  0  0
    5.9363    9.3665   -0.7616 C   0  0  0  0  0  0  0  0  0  0  0  0
    5.9450    9.5249   -2.1451 C   0  0  0  0  0  0  0  0  0  0  0  0
    4.7503    9.4328   -2.9295 N   0  0  0  0  0  0  0  0  0  0  0  0
    3.4853    9.1753   -2.4063 C   0  0  0  0  0  0  0  0  0  0  0  0
    3.2328    9.0008   -1.2284 O   0  0  0  0  0  0  0  0  0  0  0  0
    2.4878    9.1272   -3.3797 N   0  0  0  0  0  0  0  0  0  0  0  0
    1.1577    8.8404   -2.9413 C   0  0  0  0  0  0  0  0  0  0  0  0
    0.5182    9.6754   -2.0163 C   0  0  0  0  0  0  0  0  0  0  0  0
   -0.7737    9.3861   -1.5531 C   0  0  0  0  0  0  0  0  0  0  0  0
   -1.4568   10.3059   -0.5769 C   0  0  0  0  0  0  0  0  0  0  0  0
   -1.4263    8.2328   -2.0087 C   0  0  0  0  0  0  0  0  0  0  0  0
   -0.7942    7.3947   -2.9321 C   0  0  0  0  0  0  0  0  0  0  0  0
    0.4816    7.7109   -3.4046 C   0  0  0  0  0  0  0  0  0  0  0  0
    1.0819    6.8775   -4.2687 F   0  0  0  0  0  0  0  0  0  0  0  0
    7.1716    9.7713   -2.7690 C   0  0  0  0  0  0  0  0  0  0  0  0
    8.3735    9.7587   -2.0185 C   0  0  0  0  0  0  0  0  0  0  0  0
   10.5509    8.9378    2.1313 C   0  0  0  0  0  0  0  0  0  0  0  0
   10.6413    8.1261    3.2589 C   0  0  0  0  0  0  0  0  0  0  0  0
    9.8851    7.0203    3.4740 N   0  0  0  0  0  0  0  0  0  0  0  0
    7.2408    4.9559    1.8564 C   0  0  0  0  0  0  0  0  0  0  0  0
    1.2723   -2.1077    3.4046 H   0  0  0  0  0  0  0  0  0  0  0  0
    1.8468   -1.1636    4.7930 H   0  0  0  0  0  0  0  0  0  0  0  0
    2.9462   -2.3183    3.9556 H   0  0  0  0  0  0  0  0  0  0  0  0
    3.0761    1.9167    2.2149 H   0  0  0  0  0  0  0  0  0  0  0  0
    4.1757    0.7899    1.3561 H   0  0  0  0  0  0  0  0  0  0  0  0
    5.3755    1.9802    3.7064 H   0  0  0  0  0  0  0  0  0  0  0  0
    7.1905    3.0115    4.5218 H   0  0  0  0  0  0  0  0  0  0  0  0
    8.9405    4.8173    4.5395 H   0  0  0  0  0  0  0  0  0  0  0  0
    8.1717    7.1262    0.5728 H   0  0  0  0  0  0  0  0  0  0  0  0
    7.0346    9.2533    1.0595 H   0  0  0  0  0  0  0  0  0  0  0  0
    5.0367    9.1937   -0.1830 H   0  0  0  0  0  0  0  0  0  0  0  0
    4.8402    9.5571   -3.9236 H   0  0  0  0  0  0  0  0  0  0  0  0
    2.7635    8.6729   -4.2422 H   0  0  0  0  0  0  0  0  0  0  0  0
    1.0303   10.5623   -1.6535 H   0  0  0  0  0  0  0  0  0  0  0  0
   -0.8129   11.1527   -0.3134 H   0  0  0  0  0  0  0  0  0  0  0  0
   -1.7002    9.7729    0.3487 H   0  0  0  0  0  0  0  0  0  0  0  0
   -2.3748   10.7106   -1.0144 H   0  0  0  0  0  0  0  0  0  0  0  0
   -2.4206    7.9787   -1.6428 H   0  0  0  0  0  0  0  0  0  0  0  0
   -1.2865    6.4890   -3.2748 H   0  0  0  0  0  0  0  0  0  0  0  0
    7.2359    9.9619   -3.8350 H   0  0  0  0  0  0  0  0  0  0  0  0
    9.3262    9.9291   -2.5179 H   0  0  0  0  0  0  0  0  0  0  0  0
   11.1902    9.8067    2.0187 H   0  0  0  0  0  0  0  0  0  0  0  0
   11.3625    8.3489    4.0387 H   0  0  0  0  0  0  0  0  0  0  0  0
    6.9475    5.3336    0.8841 H   0  0  0  0  0  0  0  0  0  0  0  0
  1  2  1  0  0  0  0
  1 39  1  0  0  0  0
  1 40  1  0  0  0  0
  1 41  1  0  0  0  0
  2  3  1  0  0  0  0
  3  4  2  0  0  0  0
  3  5  1  0  0  0  0
  5  6  1  0  0  0  0
  5 42  1  0  0  0  0
  5 43  1  0  0  0  0
  6  7  1  0  0  0  0
  6 44  1  0  0  0  0
  7  8  2  0  0  0  0
  7  9  1  0  0  0  0
  9 10  2  0  0  0  0
  9 38  1  0  0  0  0
 10 11  1  0  0  0  0
 10 45  1  0  0  0  0
 11 12  1  0  0  0  0
 11 46  1  0  0  0  0
 12 13  1  0  0  0  0
 12 38  2  0  0  0  0
 13 14  1  0  0  0  0
 13 37  2  0  0  0  0
 14 15  2  0  0  0  0
 14 47  1  0  0  0  0
 15 16  1  0  0  0  0
 15 35  1  0  0  0  0
 16 17  1  0  0  0  0
 17 18  1  0  0  0  0
 17 34  2  0  0  0  0
 18 19  2  0  0  0  0
 18 48  1  0  0  0  0
 19 20  1  0  0  0  0
 19 49  1  0  0  0  0
 20 21  1  0  0  0  0
 20 33  2  0  0  0  0
 21 22  1  0  0  0  0
 21 50  1  0  0  0  0
 22 23  2  0  0  0  0
 22 24  1  0  0  0  0
 24 25  1  0  0  0  0
 24 51  1  0  0  0  0
 25 26  1  0  0  0  0
 25 31  2  0  0  0  0
 26 27  2  0  0  0  0
 26 52  1  0  0  0  0
 27 28  1  0  0  0  0
 27 29  1  0  0  0  0
 28 53  1  0  0  0  0
 28 54  1  0  0  0  0
 28 55  1  0  0  0  0
 29 30  2  0  0  0  0
 29 56  1  0  0  0  0
 30 31  1  0  0  0  0
 30 57  1  0  0  0  0
 31 32  1  0  0  0  0
 33 34  1  0  0  0  0
 33 58  1  0  0  0  0
 34 59  1  0  0  0  0
 35 36  2  0  0  0  0
 35 60  1  0  0  0  0
 36 37  1  0  0  0  0
 36 61  1  0  0  0  0
 38 62  1  0  0  0  0
M  END
$$$$
