CHEMBL405233
 OpenBabel04072215373D

 34 36  0  0  0  0  0  0  0  0999 V2000
    2.4655    0.0900    0.0079 C   0  0  0  0  0  0  0  0  0  0  0  0
    0.9638    0.0726   -0.0020 C   0  0  0  0  0  0  0  0  0  0  0  0
    0.2595    0.0524   -1.2125 C   0  0  0  0  0  0  0  0  0  0  0  0
   -1.1298    0.0277   -1.2131 C   0  0  0  0  0  0  0  0  0  0  0  0
   -1.8279    0.0206   -0.0021 C   0  0  0  0  0  0  0  0  0  0  0  0
   -3.3075   -0.0037    0.0084 C   0  0  0  0  0  0  0  0  0  0  0  0
   -3.9116   -0.5673    1.0165 N   0  0  0  0  0  0  0  0  0  0  0  0
   -5.3252   -0.5876    1.0561 C   0  0  0  0  0  0  0  0  0  0  0  0
   -5.9599   -0.3555    2.2829 C   0  0  0  0  0  0  0  0  0  0  0  0
   -5.1987    0.0722    3.3840 N   0  0  0  0  0  0  0  0  0  0  0  0
   -7.2871   -0.4255    2.4613 N   0  0  0  0  0  0  0  0  0  0  0  0
   -7.9945   -0.7490    1.3741 C   0  0  0  0  0  0  0  0  0  0  0  0
   -7.5113   -0.9968    0.1456 N   0  0  0  0  0  0  0  0  0  0  0  0
   -6.1762   -0.9134   -0.0025 C   0  0  0  0  0  0  0  0  0  0  0  0
   -5.7378   -1.2275   -1.2834 N   0  0  0  0  0  0  0  0  0  0  0  0
   -4.7145   -0.4480   -1.9647 C   0  0  0  0  0  0  0  0  0  0  0  0
   -4.0365    0.6352   -1.1467 C   0  0  0  0  0  0  0  0  0  0  0  0
   -1.1319    0.0429    1.2103 C   0  0  0  0  0  0  0  0  0  0  0  0
    0.2592    0.0649    1.2068 C   0  0  0  0  0  0  0  0  0  0  0  0
    2.8744    0.1263   -1.0072 H   0  0  0  0  0  0  0  0  0  0  0  0
    2.8513   -0.8115    0.4945 H   0  0  0  0  0  0  0  0  0  0  0  0
    2.8255    0.9729    0.5454 H   0  0  0  0  0  0  0  0  0  0  0  0
    0.7898    0.0656   -2.1626 H   0  0  0  0  0  0  0  0  0  0  0  0
   -1.6519    0.0161   -2.1627 H   0  0  0  0  0  0  0  0  0  0  0  0
   -4.2998   -0.4034    3.3836 H   0  0  0  0  0  0  0  0  0  0  0  0
   -5.7474   -0.0211    4.2303 H   0  0  0  0  0  0  0  0  0  0  0  0
   -9.0712   -0.8151    1.4946 H   0  0  0  0  0  0  0  0  0  0  0  0
   -6.5640   -1.4053   -1.8461 H   0  0  0  0  0  0  0  0  0  0  0  0
   -5.1709    0.0216   -2.8419 H   0  0  0  0  0  0  0  0  0  0  0  0
   -3.9628   -1.1491   -2.3451 H   0  0  0  0  0  0  0  0  0  0  0  0
   -4.7423    1.3861   -0.7730 H   0  0  0  0  0  0  0  0  0  0  0  0
   -3.3407    1.1847   -1.7846 H   0  0  0  0  0  0  0  0  0  0  0  0
   -1.6747    0.0578    2.1525 H   0  0  0  0  0  0  0  0  0  0  0  0
    0.7950    0.0828    2.1556 H   0  0  0  0  0  0  0  0  0  0  0  0
  1  2  1  0  0  0  0
  1 20  1  0  0  0  0
  1 21  1  0  0  0  0
  1 22  1  0  0  0  0
  2  3  1  0  0  0  0
  2 19  2  0  0  0  0
  3  4  2  0  0  0  0
  3 23  1  0  0  0  0
  4  5  1  0  0  0  0
  4 24  1  0  0  0  0
  5  6  1  0  0  0  0
  5 18  2  0  0  0  0
  6  7  2  0  0  0  0
  6 17  1  0  0  0  0
  7  8  1  0  0  0  0
  8  9  1  0  0  0  0
  8 14  2  0  0  0  0
  9 10  1  0  0  0  0
  9 11  2  0  0  0  0
 10 25  1  0  0  0  0
 10 26  1  0  0  0  0
 11 12  1  0  0  0  0
 12 13  2  0  0  0  0
 12 27  1  0  0  0  0
 13 14  1  0  0  0  0
 14 15  1  0  0  0  0
 15 16  1  0  0  0  0
 15 28  1  0  0  0  0
 16 17  1  0  0  0  0
 16 29  1  0  0  0  0
 16 30  1  0  0  0  0
 17 31  1  0  0  0  0
 17 32  1  0  0  0  0
 18 19  1  0  0  0  0
 18 33  1  0  0  0  0
 19 34  1  0  0  0  0
M  END
$$$$
