CHEMBL3690548
 OpenBabel04072215373D

 56 59  0  0  0  0  0  0  0  0999 V2000
    1.7787   -2.2096   -1.1244 C   0  0  0  0  0  0  0  0  0  0  0  0
    1.0953   -1.0205   -0.5253 C   0  0  0  0  0  0  0  0  0  0  0  0
    1.7334    0.1555   -0.5698 N   0  0  0  0  0  0  0  0  0  0  0  0
    1.0817    1.2005   -0.0355 C   0  0  0  0  0  0  0  0  0  0  0  0
    1.7684    2.5239   -0.0710 C   0  0  0  0  0  0  0  0  0  0  0  0
    1.5604    3.5530    0.9562 C   0  0  0  0  0  0  0  0  0  0  0  0
    2.1757    4.7427    0.8603 C   0  0  0  0  0  0  0  0  0  0  0  0
    3.0685    4.9870   -0.1865 N   0  0  0  0  0  0  0  0  0  0  0  0
    3.8868    6.0847   -0.4708 C   0  0  0  0  0  0  0  0  0  0  0  0
    4.0986    7.2920    0.3514 C   0  0  0  0  0  0  0  0  0  0  0  0
    4.0258    7.2348    1.7480 C   0  0  0  0  0  0  0  0  0  0  0  0
    4.2221    8.3703    2.5254 C   0  0  0  0  0  0  0  0  0  0  0  0
    4.5824    9.5707    1.9245 C   0  0  0  0  0  0  0  0  0  0  0  0
    4.7605    9.6575    0.5433 C   0  0  0  0  0  0  0  0  0  0  0  0
    5.2351   10.8342   -0.0899 N   0  0  0  0  0  0  0  0  0  0  0  0
    5.6914   11.9681    0.5544 C   0  0  0  0  0  0  0  0  0  0  0  0
    5.7629   12.1565    1.7595 O   0  0  0  0  0  0  0  0  0  0  0  0
    6.0505   12.9731   -0.3197 N   0  0  0  0  0  0  0  0  0  0  0  0
    6.5645   14.2286    0.2496 C   0  0  0  0  0  0  0  0  0  0  0  0
    8.0234   14.2154    0.7343 C   0  0  0  0  0  0  0  0  0  0  0  0
    8.6691   13.0798    0.3838 F   0  0  0  0  0  0  0  0  0  0  0  0
    8.7043   15.2427    0.1640 F   0  0  0  0  0  0  0  0  0  0  0  0
    8.1255   14.3654    2.0711 F   0  0  0  0  0  0  0  0  0  0  0  0
    4.4716    8.5223   -0.2402 C   0  0  0  0  0  0  0  0  0  0  0  0
    4.4907    5.7342   -1.6686 C   0  0  0  0  0  0  0  0  0  0  0  0
    4.1179    4.4932   -2.1050 N   0  0  0  0  0  0  0  0  0  0  0  0
    3.2911    4.0430   -1.1901 C   0  0  0  0  0  0  0  0  0  0  0  0
    2.6163    2.7901   -1.0943 C   0  0  0  0  0  0  0  0  0  0  0  0
   -0.1825    1.0763    0.5191 C   0  0  0  0  0  0  0  0  0  0  0  0
   -0.7805   -0.1685    0.5465 C   0  0  0  0  0  0  0  0  0  0  0  0
   -2.0330   -0.3842    1.0896 N   0  0  0  0  0  0  0  0  0  0  0  0
   -2.5945   -1.7315    1.0748 C   0  0  0  0  0  0  0  0  0  0  0  0
   -2.8551    0.6232    1.7409 C   0  0  0  0  0  0  0  0  0  0  0  0
   -0.1217   -1.2146    0.0150 N   0  0  0  0  0  0  0  0  0  0  0  0
    2.7481   -1.9330   -1.5507 H   0  0  0  0  0  0  0  0  0  0  0  0
    1.1601   -2.6337   -1.9212 H   0  0  0  0  0  0  0  0  0  0  0  0
    1.9421   -2.9725   -0.3574 H   0  0  0  0  0  0  0  0  0  0  0  0
    0.9119    3.3422    1.8003 H   0  0  0  0  0  0  0  0  0  0  0  0
    2.0013    5.5199    1.5886 H   0  0  0  0  0  0  0  0  0  0  0  0
    3.8461    6.3023    2.2722 H   0  0  0  0  0  0  0  0  0  0  0  0
    4.1283    8.3185    3.6068 H   0  0  0  0  0  0  0  0  0  0  0  0
    4.7382   10.4189    2.5820 H   0  0  0  0  0  0  0  0  0  0  0  0
    5.3037   10.8172   -1.0950 H   0  0  0  0  0  0  0  0  0  0  0  0
    6.4039   12.6960   -1.2240 H   0  0  0  0  0  0  0  0  0  0  0  0
    5.9182   14.5164    1.0878 H   0  0  0  0  0  0  0  0  0  0  0  0
    6.4395   14.9903   -0.5258 H   0  0  0  0  0  0  0  0  0  0  0  0
    4.5639    8.5839   -1.3221 H   0  0  0  0  0  0  0  0  0  0  0  0
    5.2122    6.3133   -2.2331 H   0  0  0  0  0  0  0  0  0  0  0  0
    2.8105    2.0680   -1.8815 H   0  0  0  0  0  0  0  0  0  0  0  0
   -0.6789    1.9518    0.9031 H   0  0  0  0  0  0  0  0  0  0  0  0
   -1.9705   -2.4910    0.5949 H   0  0  0  0  0  0  0  0  0  0  0  0
   -3.5542   -1.7229    0.5460 H   0  0  0  0  0  0  0  0  0  0  0  0
   -2.7798   -2.0667    2.1017 H   0  0  0  0  0  0  0  0  0  0  0  0
   -2.4323    1.6290    1.7628 H   0  0  0  0  0  0  0  0  0  0  0  0
   -3.0426    0.3366    2.7817 H   0  0  0  0  0  0  0  0  0  0  0  0
   -3.8227    0.6975    1.2320 H   0  0  0  0  0  0  0  0  0  0  0  0
  1  2  1  0  0  0  0
  1 35  1  0  0  0  0
  1 36  1  0  0  0  0
  1 37  1  0  0  0  0
  2  3  1  0  0  0  0
  2 34  2  0  0  0  0
  3  4  2  0  0  0  0
  4  5  1  0  0  0  0
  4 29  1  0  0  0  0
  5  6  1  0  0  0  0
  5 28  2  0  0  0  0
  6  7  2  0  0  0  0
  6 38  1  0  0  0  0
  7  8  1  0  0  0  0
  7 39  1  0  0  0  0
  8  9  1  0  0  0  0
  8 27  1  0  0  0  0
  9 10  1  0  0  0  0
  9 25  2  0  0  0  0
 10 11  1  0  0  0  0
 10 24  2  0  0  0  0
 11 12  2  0  0  0  0
 11 40  1  0  0  0  0
 12 13  1  0  0  0  0
 12 41  1  0  0  0  0
 13 14  2  0  0  0  0
 13 42  1  0  0  0  0
 14 15  1  0  0  0  0
 14 24  1  0  0  0  0
 15 16  1  0  0  0  0
 15 43  1  0  0  0  0
 16 17  2  0  0  0  0
 16 18  1  0  0  0  0
 18 19  1  0  0  0  0
 18 44  1  0  0  0  0
 19 20  1  0  0  0  0
 19 45  1  0  0  0  0
 19 46  1  0  0  0  0
 20 21  1  0  0  0  0
 20 22  1  0  0  0  0
 20 23  1  0  0  0  0
 24 47  1  0  0  0  0
 25 26  1  0  0  0  0
 25 48  1  0  0  0  0
 26 27  2  0  0  0  0
 27 28  1  0  0  0  0
 28 49  1  0  0  0  0
 29 30  2  0  0  0  0
 29 50  1  0  0  0  0
 30 31  1  0  0  0  0
 30 34  1  0  0  0  0
 31 32  1  0  0  0  0
 31 33  1  0  0  0  0
 32 51  1  0  0  0  0
 32 52  1  0  0  0  0
 32 53  1  0  0  0  0
 33 54  1  0  0  0  0
 33 55  1  0  0  0  0
 33 56  1  0  0  0  0
M  END
$$$$
