CHEMBL3706824
 OpenBabel04072215373D

 58 61  0  0  0  0  0  0  0  0999 V2000
    1.1110   -0.7090    0.5465 C   0  0  0  0  0  0  0  0  0  0  0  0
    2.3605   -0.0832    0.3270 O   0  0  0  0  0  0  0  0  0  0  0  0
    2.8462    0.6388    1.4649 C   0  0  0  0  0  0  0  0  0  0  0  0
    4.1619    1.2585    1.0100 C   0  0  0  0  0  0  0  0  0  0  0  0
    4.8303    2.0066    2.0047 O   0  0  0  0  0  0  0  0  0  0  0  0
    6.1891    2.1757    1.8836 C   0  0  0  0  0  0  0  0  0  0  0  0
    6.7634    2.4322    3.1538 C   0  0  0  0  0  0  0  0  0  0  0  0
    8.1327    2.5813    3.3767 C   0  0  0  0  0  0  0  0  0  0  0  0
    8.5901    2.7540    4.6237 N   0  0  0  0  0  0  0  0  0  0  0  0
    9.9163    2.8613    4.7742 C   0  0  0  0  0  0  0  0  0  0  0  0
   10.8256    2.8463    3.7951 N   0  0  0  0  0  0  0  0  0  0  0  0
   10.3600    2.6941    2.5424 C   0  0  0  0  0  0  0  0  0  0  0  0
   11.2914    2.7065    1.4634 N   0  0  0  0  0  0  0  0  0  0  0  0
   12.6712    2.6274    1.6596 C   0  0  0  0  0  0  0  0  0  0  0  0
   13.2986    1.7322    2.4313 C   0  0  0  0  0  0  0  0  0  0  0  0
   14.7589    1.7106    2.6614 C   0  0  0  0  0  0  0  0  0  0  0  0
   15.2190    0.8862    3.4396 O   0  0  0  0  0  0  0  0  0  0  0  0
   15.5934    2.7608    1.9754 C   0  0  0  0  0  0  0  0  0  0  0  0
   16.9589    2.8223    2.2930 N   0  0  0  0  0  0  0  0  0  0  0  0
   17.5360    4.0230    2.9043 C   0  0  0  0  0  0  0  0  0  0  0  0
   17.8808    1.7819    1.9958 C   0  0  0  0  0  0  0  0  0  0  0  0
   17.7111    0.9662    0.8654 C   0  0  0  0  0  0  0  0  0  0  0  0
   18.6429   -0.0233    0.5315 C   0  0  0  0  0  0  0  0  0  0  0  0
   19.7599   -0.2381    1.3367 C   0  0  0  0  0  0  0  0  0  0  0  0
   19.9371    0.5316    2.4746 C   0  0  0  0  0  0  0  0  0  0  0  0
   19.0117    1.5304    2.7957 C   0  0  0  0  0  0  0  0  0  0  0  0
   14.9656    3.6330    1.1717 C   0  0  0  0  0  0  0  0  0  0  0  0
   13.5113    3.6155    0.9171 C   0  0  0  0  0  0  0  0  0  0  0  0
   13.0002    4.4104    0.1319 O   0  0  0  0  0  0  0  0  0  0  0  0
    8.9856    2.5244    2.2764 C   0  0  0  0  0  0  0  0  0  0  0  0
    8.4293    2.2694    1.0030 C   0  0  0  0  0  0  0  0  0  0  0  0
    7.0475    2.0941    0.7810 C   0  0  0  0  0  0  0  0  0  0  0  0
    6.8528    1.7567   -0.5247 O   0  0  0  0  0  0  0  0  0  0  0  0
    5.7352    2.1743   -1.2812 C   0  0  0  0  0  0  0  0  0  0  0  0
    0.8376   -1.2369   -0.3721 H   0  0  0  0  0  0  0  0  0  0  0  0
    0.3414    0.0369    0.7609 H   0  0  0  0  0  0  0  0  0  0  0  0
    1.1844   -1.4363    1.3587 H   0  0  0  0  0  0  0  0  0  0  0  0
    2.9943   -0.0304    2.3183 H   0  0  0  0  0  0  0  0  0  0  0  0
    2.1315    1.4201    1.7512 H   0  0  0  0  0  0  0  0  0  0  0  0
    3.8675    1.9456    0.2171 H   0  0  0  0  0  0  0  0  0  0  0  0
    4.7977    0.4564    0.6219 H   0  0  0  0  0  0  0  0  0  0  0  0
    6.1068    2.4718    4.0242 H   0  0  0  0  0  0  0  0  0  0  0  0
   10.2915    2.9710    5.7865 H   0  0  0  0  0  0  0  0  0  0  0  0
   11.0609    3.4735    0.8251 H   0  0  0  0  0  0  0  0  0  0  0  0
   12.7388    0.9772    2.9708 H   0  0  0  0  0  0  0  0  0  0  0  0
   16.7780    4.8005    3.0548 H   0  0  0  0  0  0  0  0  0  0  0  0
   18.3158    4.4453    2.2609 H   0  0  0  0  0  0  0  0  0  0  0  0
   17.9544    3.8175    3.8953 H   0  0  0  0  0  0  0  0  0  0  0  0
   16.8655    1.1181    0.2015 H   0  0  0  0  0  0  0  0  0  0  0  0
   18.4987   -0.6218   -0.3646 H   0  0  0  0  0  0  0  0  0  0  0  0
   20.4789   -1.0098    1.0771 H   0  0  0  0  0  0  0  0  0  0  0  0
   20.7871    0.3658    3.1357 H   0  0  0  0  0  0  0  0  0  0  0  0
   19.1785    2.0849    3.7129 H   0  0  0  0  0  0  0  0  0  0  0  0
   15.5155    4.4112    0.6564 H   0  0  0  0  0  0  0  0  0  0  0  0
    9.0982    2.1640    0.1485 H   0  0  0  0  0  0  0  0  0  0  0  0
    6.0764    2.4650   -2.2794 H   0  0  0  0  0  0  0  0  0  0  0  0
    5.2033    3.0277   -0.8548 H   0  0  0  0  0  0  0  0  0  0  0  0
    5.0862    1.3059   -1.4361 H   0  0  0  0  0  0  0  0  0  0  0  0
  1  2  1  0  0  0  0
  1 35  1  0  0  0  0
  1 36  1  0  0  0  0
  1 37  1  0  0  0  0
  2  3  1  0  0  0  0
  3  4  1  0  0  0  0
  3 38  1  0  0  0  0
  3 39  1  0  0  0  0
  4  5  1  0  0  0  0
  4 40  1  0  0  0  0
  4 41  1  0  0  0  0
  5  6  1  0  0  0  0
  6  7  1  0  0  0  0
  6 32  2  0  0  0  0
  7  8  2  0  0  0  0
  7 42  1  0  0  0  0
  8  9  1  0  0  0  0
  8 30  1  0  0  0  0
  9 10  2  0  0  0  0
 10 11  1  0  0  0  0
 10 43  1  0  0  0  0
 11 12  2  0  0  0  0
 12 13  1  0  0  0  0
 12 30  1  0  0  0  0
 13 14  1  0  0  0  0
 13 44  1  0  0  0  0
 14 15  2  0  0  0  0
 14 28  1  0  0  0  0
 15 16  1  0  0  0  0
 15 45  1  0  0  0  0
 16 17  2  0  0  0  0
 16 18  1  0  0  0  0
 18 19  1  0  0  0  0
 18 27  2  0  0  0  0
 19 20  1  0  0  0  0
 19 21  1  0  0  0  0
 20 46  1  0  0  0  0
 20 47  1  0  0  0  0
 20 48  1  0  0  0  0
 21 22  1  0  0  0  0
 21 26  2  0  0  0  0
 22 23  2  0  0  0  0
 22 49  1  0  0  0  0
 23 24  1  0  0  0  0
 23 50  1  0  0  0  0
 24 25  2  0  0  0  0
 24 51  1  0  0  0  0
 25 26  1  0  0  0  0
 25 52  1  0  0  0  0
 26 53  1  0  0  0  0
 27 28  1  0  0  0  0
 27 54  1  0  0  0  0
 28 29  2  0  0  0  0
 30 31  2  0  0  0  0
 31 32  1  0  0  0  0
 31 55  1  0  0  0  0
 32 33  1  0  0  0  0
 33 34  1  0  0  0  0
 34 56  1  0  0  0  0
 34 57  1  0  0  0  0
 34 58  1  0  0  0  0
M  END
$$$$
