CHEMBL245768
 OpenBabel04072215363D

 51 55  0  0  0  0  0  0  0  0999 V2000
   -1.8207    2.0341   -2.7484 C   0  0  0  0  0  0  0  0  0  0  0  0
   -2.6855    2.0049   -1.5733 N   0  0  0  0  0  0  0  0  0  0  0  0
   -3.2434    0.6583   -1.3503 C   0  0  0  0  0  0  0  0  0  0  0  0
   -4.1569    0.6370   -0.1012 C   0  0  0  0  0  0  0  0  0  0  0  0
   -3.5051    1.0647    1.1657 N   0  0  0  0  0  0  0  0  0  0  0  0
   -2.4863    0.1031    1.6513 C   0  0  0  0  0  0  0  0  0  0  0  0
   -3.0577   -1.2939    1.9358 C   0  0  0  0  0  0  0  0  0  0  0  0
   -3.2075   -2.1065    1.0251 O   0  0  0  0  0  0  0  0  0  0  0  0
   -3.4072   -1.5062    3.2628 N   0  0  0  0  0  0  0  0  0  0  0  0
   -3.9257   -2.7240    3.7310 C   0  0  0  0  0  0  0  0  0  0  0  0
   -3.5085   -3.9668    3.2182 C   0  0  0  0  0  0  0  0  0  0  0  0
   -4.0825   -5.1840    3.6437 C   0  0  0  0  0  0  0  0  0  0  0  0
   -5.1009   -5.1941    4.5903 C   0  0  0  0  0  0  0  0  0  0  0  0
   -5.4837   -3.9741    5.1071 C   0  0  0  0  0  0  0  0  0  0  0  0
   -4.9042   -2.7351    4.7184 C   0  0  0  0  0  0  0  0  0  0  0  0
   -5.5691   -1.5273    5.3988 C   0  0  0  0  0  0  0  0  0  0  0  0
   -6.5894   -2.2671    6.1947 C   0  0  0  0  0  0  0  0  0  0  0  0
   -6.5215   -3.6576    6.0228 C   0  0  0  0  0  0  0  0  0  0  0  0
   -7.4306   -4.3321    6.7072 N   0  0  0  0  0  0  0  0  0  0  0  0
   -8.0977   -3.3359    7.3399 N   0  0  0  0  0  0  0  0  0  0  0  0
   -7.6224   -2.0669    7.0680 C   0  0  0  0  0  0  0  0  0  0  0  0
   -8.1553   -0.7942    7.6235 C   0  0  0  0  0  0  0  0  0  0  0  0
   -7.7063    0.5171    7.2863 C   0  0  0  0  0  0  0  0  0  0  0  0
   -8.3857    1.4983    7.9769 C   0  0  0  0  0  0  0  0  0  0  0  0
   -9.5587    0.8450    9.0338 S   0  0  0  0  0  0  0  0  0  0  0  0
   -9.1656   -0.7539    8.5622 C   0  0  0  0  0  0  0  0  0  0  0  0
   -2.8731    2.3859    0.9033 C   0  0  0  0  0  0  0  0  0  0  0  0
   -1.9793    2.4633   -0.3655 C   0  0  0  0  0  0  0  0  0  0  0  0
   -2.3731    1.7169   -3.6404 H   0  0  0  0  0  0  0  0  0  0  0  0
   -0.9435    1.3867   -2.6393 H   0  0  0  0  0  0  0  0  0  0  0  0
   -1.4745    3.0553   -2.9437 H   0  0  0  0  0  0  0  0  0  0  0  0
   -2.4424   -0.0847   -1.2444 H   0  0  0  0  0  0  0  0  0  0  0  0
   -3.8429    0.3646   -2.2203 H   0  0  0  0  0  0  0  0  0  0  0  0
   -4.6257   -0.3462    0.0040 H   0  0  0  0  0  0  0  0  0  0  0  0
   -4.9985    1.3205   -0.2866 H   0  0  0  0  0  0  0  0  0  0  0  0
   -2.0572    0.4868    2.5847 H   0  0  0  0  0  0  0  0  0  0  0  0
   -1.6542   -0.0277    0.9513 H   0  0  0  0  0  0  0  0  0  0  0  0
   -3.5706   -0.6745    3.8146 H   0  0  0  0  0  0  0  0  0  0  0  0
   -2.7202   -4.0130    2.4678 H   0  0  0  0  0  0  0  0  0  0  0  0
   -3.7390   -6.1186    3.2029 H   0  0  0  0  0  0  0  0  0  0  0  0
   -5.5847   -6.1153    4.8963 H   0  0  0  0  0  0  0  0  0  0  0  0
   -6.0294   -0.8709    4.6532 H   0  0  0  0  0  0  0  0  0  0  0  0
   -4.8567   -0.9941    6.0320 H   0  0  0  0  0  0  0  0  0  0  0  0
   -8.8763   -3.5899    7.9365 H   0  0  0  0  0  0  0  0  0  0  0  0
   -6.9302    0.7483    6.5694 H   0  0  0  0  0  0  0  0  0  0  0  0
   -8.2497    2.5691    7.9131 H   0  0  0  0  0  0  0  0  0  0  0  0
   -9.7034   -1.5738    9.0168 H   0  0  0  0  0  0  0  0  0  0  0  0
   -2.2912    2.7026    1.7785 H   0  0  0  0  0  0  0  0  0  0  0  0
   -3.6765    3.1285    0.8034 H   0  0  0  0  0  0  0  0  0  0  0  0
   -1.0667    1.8748   -0.2064 H   0  0  0  0  0  0  0  0  0  0  0  0
   -1.6685    3.5064   -0.5010 H   0  0  0  0  0  0  0  0  0  0  0  0
  1  2  1  0  0  0  0
  1 29  1  0  0  0  0
  1 30  1  0  0  0  0
  1 31  1  0  0  0  0
  2  3  1  0  0  0  0
  2 28  1  0  0  0  0
  3  4  1  0  0  0  0
  3 32  1  0  0  0  0
  3 33  1  0  0  0  0
  4  5  1  0  0  0  0
  4 34  1  0  0  0  0
  4 35  1  0  0  0  0
  5  6  1  0  0  0  0
  5 27  1  0  0  0  0
  6  7  1  0  0  0  0
  6 36  1  0  0  0  0
  6 37  1  0  0  0  0
  7  8  2  0  0  0  0
  7  9  1  0  0  0  0
  9 10  1  0  0  0  0
  9 38  1  0  0  0  0
 10 11  1  0  0  0  0
 10 15  2  0  0  0  0
 11 12  2  0  0  0  0
 11 39  1  0  0  0  0
 12 13  1  0  0  0  0
 12 40  1  0  0  0  0
 13 14  2  0  0  0  0
 13 41  1  0  0  0  0
 14 15  1  0  0  0  0
 14 18  1  0  0  0  0
 15 16  1  0  0  0  0
 16 17  1  0  0  0  0
 16 42  1  0  0  0  0
 16 43  1  0  0  0  0
 17 18  1  0  0  0  0
 17 21  2  0  0  0  0
 18 19  2  0  0  0  0
 19 20  1  0  0  0  0
 20 21  1  0  0  0  0
 20 44  1  0  0  0  0
 21 22  1  0  0  0  0
 22 23  1  0  0  0  0
 22 26  2  0  0  0  0
 23 24  2  0  0  0  0
 23 45  1  0  0  0  0
 24 25  1  0  0  0  0
 24 46  1  0  0  0  0
 25 26  1  0  0  0  0
 26 47  1  0  0  0  0
 27 28  1  0  0  0  0
 27 48  1  0  0  0  0
 27 49  1  0  0  0  0
 28 50  1  0  0  0  0
 28 51  1  0  0  0  0
M  END
$$$$
