CHEMBL273062
 OpenBabel04072215363D

 52 56  0  0  0  0  0  0  0  0999 V2000
    5.6203  -13.2661    1.0613 C   0  0  0  0  0  0  0  0  0  0  0  0
    5.3079  -12.5197    2.2337 O   0  0  0  0  0  0  0  0  0  0  0  0
    5.3522  -11.1615    2.0862 C   0  0  0  0  0  0  0  0  0  0  0  0
    5.1917  -10.4890    0.8854 C   0  0  0  0  0  0  0  0  0  0  0  0
    5.2583   -9.0996    0.8616 C   0  0  0  0  0  0  0  0  0  0  0  0
    5.4087   -8.3474    2.0484 C   0  0  0  0  0  0  0  0  0  0  0  0
    5.3651   -6.9376    2.1147 C   0  0  0  0  0  0  0  0  0  0  0  0
    5.1716   -6.1075    1.0241 O   0  0  0  0  0  0  0  0  0  0  0  0
    4.0527   -6.2483    0.2295 C   0  0  0  0  0  0  0  0  0  0  0  0
    4.0999   -5.5900   -0.9952 C   0  0  0  0  0  0  0  0  0  0  0  0
    3.0378   -5.6975   -1.9045 C   0  0  0  0  0  0  0  0  0  0  0  0
    1.9127   -6.5233   -1.6469 C   0  0  0  0  0  0  0  0  0  0  0  0
    0.7969   -6.7294   -2.5148 C   0  0  0  0  0  0  0  0  0  0  0  0
    0.5705   -6.0319   -3.8174 C   0  0  0  0  0  0  0  0  0  0  0  0
   -0.5724   -5.6490   -4.0515 O   0  0  0  0  0  0  0  0  0  0  0  0
    1.6419   -5.9499   -4.6894 N   0  0  0  0  0  0  0  0  0  0  0  0
    1.6231   -5.3643   -5.9788 C   0  0  0  0  0  0  0  0  0  0  0  0
    0.5458   -4.6284   -6.4852 C   0  0  0  0  0  0  0  0  0  0  0  0
    0.5577   -4.1514   -7.8010 C   0  0  0  0  0  0  0  0  0  0  0  0
    1.6577   -4.3958   -8.6140 C   0  0  0  0  0  0  0  0  0  0  0  0
    1.6495   -3.8582  -10.2493 Cl  0  0  0  0  0  0  0  0  0  0  0  0
    2.7583   -5.0826   -8.1125 C   0  0  0  0  0  0  0  0  0  0  0  0
    2.7449   -5.5575   -6.7955 C   0  0  0  0  0  0  0  0  0  0  0  0
   -0.2582   -7.5816   -2.1307 C   0  0  0  0  0  0  0  0  0  0  0  0
   -0.2382   -8.2386   -0.9088 C   0  0  0  0  0  0  0  0  0  0  0  0
    0.8261   -8.0313   -0.0421 C   0  0  0  0  0  0  0  0  0  0  0  0
    1.8869   -7.1808   -0.3857 C   0  0  0  0  0  0  0  0  0  0  0  0
    2.9186   -6.9917    0.5480 C   0  0  0  0  0  0  0  0  0  0  0  0
    5.6045   -6.2819    3.3180 C   0  0  0  0  0  0  0  0  0  0  0  0
    5.8245   -7.0531    4.4394 C   0  0  0  0  0  0  0  0  0  0  0  0
    5.8031   -8.4027    4.4323 N   0  0  0  0  0  0  0  0  0  0  0  0
    5.5921   -9.0392    3.2639 C   0  0  0  0  0  0  0  0  0  0  0  0
    5.5545  -10.4268    3.2576 C   0  0  0  0  0  0  0  0  0  0  0  0
    5.6915  -14.3204    1.3418 H   0  0  0  0  0  0  0  0  0  0  0  0
    6.5884  -12.9596    0.6491 H   0  0  0  0  0  0  0  0  0  0  0  0
    4.8286  -13.1768    0.3101 H   0  0  0  0  0  0  0  0  0  0  0  0
    4.9914  -11.0062   -0.0455 H   0  0  0  0  0  0  0  0  0  0  0  0
    5.1543   -8.6048   -0.0985 H   0  0  0  0  0  0  0  0  0  0  0  0
    4.9672   -4.9840   -1.2494 H   0  0  0  0  0  0  0  0  0  0  0  0
    3.1155   -5.1171   -2.8198 H   0  0  0  0  0  0  0  0  0  0  0  0
    2.4797   -6.4589   -4.4391 H   0  0  0  0  0  0  0  0  0  0  0  0
   -0.3320   -4.4096   -5.8844 H   0  0  0  0  0  0  0  0  0  0  0  0
   -0.3021   -3.6037   -8.1784 H   0  0  0  0  0  0  0  0  0  0  0  0
    3.6242   -5.2644   -8.7446 H   0  0  0  0  0  0  0  0  0  0  0  0
    3.6129   -6.0996   -6.4319 H   0  0  0  0  0  0  0  0  0  0  0  0
   -1.1162   -7.7208   -2.7880 H   0  0  0  0  0  0  0  0  0  0  0  0
   -1.0591   -8.8912   -0.6229 H   0  0  0  0  0  0  0  0  0  0  0  0
    0.8189   -8.5459    0.9182 H   0  0  0  0  0  0  0  0  0  0  0  0
    2.8388   -7.4703    1.5214 H   0  0  0  0  0  0  0  0  0  0  0  0
    5.6204   -5.1998    3.3787 H   0  0  0  0  0  0  0  0  0  0  0  0
    6.0262   -6.5980    5.4036 H   0  0  0  0  0  0  0  0  0  0  0  0
    5.6862  -10.9576    4.1987 H   0  0  0  0  0  0  0  0  0  0  0  0
  1  2  1  0  0  0  0
  1 34  1  0  0  0  0
  1 35  1  0  0  0  0
  1 36  1  0  0  0  0
  2  3  1  0  0  0  0
  3  4  1  0  0  0  0
  3 33  2  0  0  0  0
  4  5  2  0  0  0  0
  4 37  1  0  0  0  0
  5  6  1  0  0  0  0
  5 38  1  0  0  0  0
  6  7  1  0  0  0  0
  6 32  2  0  0  0  0
  7  8  1  0  0  0  0
  7 29  2  0  0  0  0
  8  9  1  0  0  0  0
  9 10  1  0  0  0  0
  9 28  2  0  0  0  0
 10 11  2  0  0  0  0
 10 39  1  0  0  0  0
 11 12  1  0  0  0  0
 11 40  1  0  0  0  0
 12 13  1  0  0  0  0
 12 27  2  0  0  0  0
 13 14  1  0  0  0  0
 13 24  2  0  0  0  0
 14 15  2  0  0  0  0
 14 16  1  0  0  0  0
 16 17  1  0  0  0  0
 16 41  1  0  0  0  0
 17 18  1  0  0  0  0
 17 23  2  0  0  0  0
 18 19  2  0  0  0  0
 18 42  1  0  0  0  0
 19 20  1  0  0  0  0
 19 43  1  0  0  0  0
 20 21  1  0  0  0  0
 20 22  2  0  0  0  0
 22 23  1  0  0  0  0
 22 44  1  0  0  0  0
 23 45  1  0  0  0  0
 24 25  1  0  0  0  0
 24 46  1  0  0  0  0
 25 26  2  0  0  0  0
 25 47  1  0  0  0  0
 26 27  1  0  0  0  0
 26 48  1  0  0  0  0
 27 28  1  0  0  0  0
 28 49  1  0  0  0  0
 29 30  1  0  0  0  0
 29 50  1  0  0  0  0
 30 31  2  0  0  0  0
 30 51  1  0  0  0  0
 31 32  1  0  0  0  0
 32 33  1  0  0  0  0
 33 52  1  0  0  0  0
M  END
$$$$
