CHEMBL74197
 OpenBabel04072215383D

 46 49  0  0  0  0  0  0  0  0999 V2000
    0.4754   -1.8226   -4.7661 C   0  0  0  0  0  0  0  0  0  0  0  0
   -0.4116   -2.1071   -3.5916 C   0  0  0  0  0  0  0  0  0  0  0  0
   -1.7906   -1.8906   -3.6470 C   0  0  0  0  0  0  0  0  0  0  0  0
   -2.5963   -2.1261   -2.5268 C   0  0  0  0  0  0  0  0  0  0  0  0
   -4.0745   -1.8935   -2.5822 C   0  0  0  0  0  0  0  0  0  0  0  0
   -2.0064   -2.5893   -1.3391 C   0  0  0  0  0  0  0  0  0  0  0  0
   -0.6325   -2.8460   -1.2658 C   0  0  0  0  0  0  0  0  0  0  0  0
   -0.0427   -3.2437   -0.0474 N   0  0  0  0  0  0  0  0  0  0  0  0
    1.1570   -3.9886    0.0701 C   0  0  0  0  0  0  0  0  0  0  0  0
    1.4496   -4.8983   -0.8850 N   0  0  0  0  0  0  0  0  0  0  0  0
    2.6163   -5.5882   -0.8584 N   0  0  0  0  0  0  0  0  0  0  0  0
    3.5334   -5.3310    0.1000 C   0  0  0  0  0  0  0  0  0  0  0  0
    4.7389   -6.2401    0.0563 C   0  0  0  0  0  0  0  0  0  0  0  0
    4.6149   -7.4194    0.9963 C   0  0  0  0  0  0  0  0  0  0  0  0
    3.5927   -8.3625    0.8280 C   0  0  0  0  0  0  0  0  0  0  0  0
    3.4817   -9.3981    1.7424 C   0  0  0  0  0  0  0  0  0  0  0  0
    4.3173   -9.5655    2.7886 N   0  0  0  0  0  0  0  0  0  0  0  0
    5.3084   -8.6600    2.9224 C   0  0  0  0  0  0  0  0  0  0  0  0
    5.4998   -7.5882    2.0635 C   0  0  0  0  0  0  0  0  0  0  0  0
    3.3083   -4.3719    1.1069 C   0  0  0  0  0  0  0  0  0  0  0  0
    4.2706   -3.9981    2.0778 C   0  0  0  0  0  0  0  0  0  0  0  0
    3.9816   -3.0686    3.0782 C   0  0  0  0  0  0  0  0  0  0  0  0
    2.7164   -2.5061    3.1503 C   0  0  0  0  0  0  0  0  0  0  0  0
    1.7647   -2.8246    2.1822 C   0  0  0  0  0  0  0  0  0  0  0  0
    2.0486   -3.7310    1.1302 C   0  0  0  0  0  0  0  0  0  0  0  0
    0.1517   -2.5780   -2.3997 C   0  0  0  0  0  0  0  0  0  0  0  0
   -0.1032   -1.5205   -5.6443 H   0  0  0  0  0  0  0  0  0  0  0  0
    1.0492   -2.7159   -5.0341 H   0  0  0  0  0  0  0  0  0  0  0  0
    1.1696   -1.0111   -4.5229 H   0  0  0  0  0  0  0  0  0  0  0  0
   -2.2394   -1.5262   -4.5692 H   0  0  0  0  0  0  0  0  0  0  0  0
   -4.3862   -1.5308   -3.5688 H   0  0  0  0  0  0  0  0  0  0  0  0
   -4.3655   -1.1424   -1.8418 H   0  0  0  0  0  0  0  0  0  0  0  0
   -4.6121   -2.8261   -2.3839 H   0  0  0  0  0  0  0  0  0  0  0  0
   -2.6345   -2.7593   -0.4662 H   0  0  0  0  0  0  0  0  0  0  0  0
   -0.6998   -3.5057    0.6767 H   0  0  0  0  0  0  0  0  0  0  0  0
    5.6550   -5.6704    0.2489 H   0  0  0  0  0  0  0  0  0  0  0  0
    4.8612   -6.6301   -0.9638 H   0  0  0  0  0  0  0  0  0  0  0  0
    2.8817   -8.2872    0.0107 H   0  0  0  0  0  0  0  0  0  0  0  0
    2.6900  -10.1370    1.6551 H   0  0  0  0  0  0  0  0  0  0  0  0
    5.9659   -8.8194    3.7720 H   0  0  0  0  0  0  0  0  0  0  0  0
    6.3203   -6.9006    2.2366 H   0  0  0  0  0  0  0  0  0  0  0  0
    5.2771   -4.4075    2.0524 H   0  0  0  0  0  0  0  0  0  0  0  0
    4.7452   -2.7868    3.7987 H   0  0  0  0  0  0  0  0  0  0  0  0
    2.4742   -1.8040    3.9441 H   0  0  0  0  0  0  0  0  0  0  0  0
    0.7906   -2.3432    2.2459 H   0  0  0  0  0  0  0  0  0  0  0  0
    1.2289   -2.7262   -2.3594 H   0  0  0  0  0  0  0  0  0  0  0  0
  1  2  1  0  0  0  0
  1 27  1  0  0  0  0
  1 28  1  0  0  0  0
  1 29  1  0  0  0  0
  2  3  1  0  0  0  0
  2 26  2  0  0  0  0
  3  4  2  0  0  0  0
  3 30  1  0  0  0  0
  4  5  1  0  0  0  0
  4  6  1  0  0  0  0
  5 31  1  0  0  0  0
  5 32  1  0  0  0  0
  5 33  1  0  0  0  0
  6  7  2  0  0  0  0
  6 34  1  0  0  0  0
  7  8  1  0  0  0  0
  7 26  1  0  0  0  0
  8  9  1  0  0  0  0
  8 35  1  0  0  0  0
  9 10  1  0  0  0  0
  9 25  2  0  0  0  0
 10 11  2  0  0  0  0
 11 12  1  0  0  0  0
 12 13  1  0  0  0  0
 12 20  2  0  0  0  0
 13 14  1  0  0  0  0
 13 36  1  0  0  0  0
 13 37  1  0  0  0  0
 14 15  1  0  0  0  0
 14 19  2  0  0  0  0
 15 16  2  0  0  0  0
 15 38  1  0  0  0  0
 16 17  1  0  0  0  0
 16 39  1  0  0  0  0
 17 18  2  0  0  0  0
 18 19  1  0  0  0  0
 18 40  1  0  0  0  0
 19 41  1  0  0  0  0
 20 21  1  0  0  0  0
 20 25  1  0  0  0  0
 21 22  2  0  0  0  0
 21 42  1  0  0  0  0
 22 23  1  0  0  0  0
 22 43  1  0  0  0  0
 23 24  2  0  0  0  0
 23 44  1  0  0  0  0
 24 25  1  0  0  0  0
 24 45  1  0  0  0  0
 26 46  1  0  0  0  0
M  END
$$$$
