CHEMBL24979
 OpenBabel04072215363D

 57 60  0  0  0  0  0  0  0  0999 V2000
    2.4158   -1.3162   -0.7495 C   0  0  0  0  0  0  0  0  0  0  0  0
    2.3384   -0.0239   -0.1424 O   0  0  0  0  0  0  0  0  0  0  0  0
    2.9956    0.9654   -0.8283 C   0  0  0  0  0  0  0  0  0  0  0  0
    4.1092    0.6727   -1.6094 C   0  0  0  0  0  0  0  0  0  0  0  0
    4.6603    1.6234   -2.4842 C   0  0  0  0  0  0  0  0  0  0  0  0
    5.6925    1.3235   -3.3853 C   0  0  0  0  0  0  0  0  0  0  0  0
    6.1008   -0.0241   -3.5173 N   0  0  0  0  0  0  0  0  0  0  0  0
    7.3757   -0.5462   -3.8036 C   0  0  0  0  0  0  0  0  0  0  0  0
    8.5442    0.1541   -3.4939 C   0  0  0  0  0  0  0  0  0  0  0  0
    9.7920   -0.4689   -3.5922 C   0  0  0  0  0  0  0  0  0  0  0  0
    9.8815   -1.7936   -4.0025 C   0  0  0  0  0  0  0  0  0  0  0  0
   11.5622   -2.6578   -4.0165 Br  0  0  0  0  0  0  0  0  0  0  0  0
    8.7394   -2.5020   -4.3540 C   0  0  0  0  0  0  0  0  0  0  0  0
    7.4994   -1.8774   -4.2434 C   0  0  0  0  0  0  0  0  0  0  0  0
    6.3931   -2.5743   -4.5417 F   0  0  0  0  0  0  0  0  0  0  0  0
    6.2397    2.2599   -4.1735 N   0  0  0  0  0  0  0  0  0  0  0  0
    5.7085    3.4851   -4.0873 C   0  0  0  0  0  0  0  0  0  0  0  0
    4.7014    3.8679   -3.2856 N   0  0  0  0  0  0  0  0  0  0  0  0
    4.1786    2.9333   -2.4832 C   0  0  0  0  0  0  0  0  0  0  0  0
    3.1315    3.2453   -1.6158 C   0  0  0  0  0  0  0  0  0  0  0  0
    2.5395    2.2867   -0.7751 C   0  0  0  0  0  0  0  0  0  0  0  0
    1.5163    2.7694    0.0061 O   0  0  0  0  0  0  0  0  0  0  0  0
    1.3206    2.0967    1.2564 C   0  0  0  0  0  0  0  0  0  0  0  0
    0.7721    3.0920    2.2794 C   0  0  0  0  0  0  0  0  0  0  0  0
    0.5512    2.4790    3.6835 C   0  0  0  0  0  0  0  0  0  0  0  0
    0.0230    3.5318    4.6701 C   0  0  0  0  0  0  0  0  0  0  0  0
    1.0861    4.5802    5.0160 C   0  0  0  0  0  0  0  0  0  0  0  0
    2.3320    3.9803    5.5143 N   0  0  0  0  0  0  0  0  0  0  0  0
    3.3451    5.0214    5.7088 C   0  0  0  0  0  0  0  0  0  0  0  0
    2.8611    2.9306    4.6327 C   0  0  0  0  0  0  0  0  0  0  0  0
    1.8101    1.8660    4.3137 C   0  0  0  0  0  0  0  0  0  0  0  0
    1.5806   -1.9196   -0.3880 H   0  0  0  0  0  0  0  0  0  0  0  0
    3.3477   -1.8130   -0.4575 H   0  0  0  0  0  0  0  0  0  0  0  0
    2.3351   -1.2629   -1.8428 H   0  0  0  0  0  0  0  0  0  0  0  0
    4.5681   -0.3110   -1.5536 H   0  0  0  0  0  0  0  0  0  0  0  0
    5.3466   -0.6035   -3.8772 H   0  0  0  0  0  0  0  0  0  0  0  0
    8.4903    1.1779   -3.1322 H   0  0  0  0  0  0  0  0  0  0  0  0
   10.6858    0.0908   -3.3108 H   0  0  0  0  0  0  0  0  0  0  0  0
    8.7870   -3.5347   -4.6848 H   0  0  0  0  0  0  0  0  0  0  0  0
    6.1259    4.2423   -4.7418 H   0  0  0  0  0  0  0  0  0  0  0  0
    2.7577    4.2681   -1.5970 H   0  0  0  0  0  0  0  0  0  0  0  0
    2.2715    1.7060    1.6291 H   0  0  0  0  0  0  0  0  0  0  0  0
    0.5992    1.2845    1.1149 H   0  0  0  0  0  0  0  0  0  0  0  0
   -0.1778    3.4983    1.9076 H   0  0  0  0  0  0  0  0  0  0  0  0
    1.4511    3.9508    2.3195 H   0  0  0  0  0  0  0  0  0  0  0  0
   -0.2039    1.6884    3.5864 H   0  0  0  0  0  0  0  0  0  0  0  0
   -0.2972    3.0296    5.5935 H   0  0  0  0  0  0  0  0  0  0  0  0
   -0.8662    4.0250    4.2622 H   0  0  0  0  0  0  0  0  0  0  0  0
    0.6710    5.2368    5.7907 H   0  0  0  0  0  0  0  0  0  0  0  0
    1.2777    5.2115    4.1400 H   0  0  0  0  0  0  0  0  0  0  0  0
    2.9782    5.8004    6.3856 H   0  0  0  0  0  0  0  0  0  0  0  0
    3.6293    5.4968    4.7619 H   0  0  0  0  0  0  0  0  0  0  0  0
    4.2475    4.6011    6.1657 H   0  0  0  0  0  0  0  0  0  0  0  0
    3.7038    2.4351    5.1309 H   0  0  0  0  0  0  0  0  0  0  0  0
    3.2492    3.3559    3.6989 H   0  0  0  0  0  0  0  0  0  0  0  0
    1.5295    1.3524    5.2436 H   0  0  0  0  0  0  0  0  0  0  0  0
    2.2429    1.0919    3.6721 H   0  0  0  0  0  0  0  0  0  0  0  0
  1  2  1  0  0  0  0
  1 32  1  0  0  0  0
  1 33  1  0  0  0  0
  1 34  1  0  0  0  0
  2  3  1  0  0  0  0
  3  4  1  0  0  0  0
  3 21  2  0  0  0  0
  4  5  2  0  0  0  0
  4 35  1  0  0  0  0
  5  6  1  0  0  0  0
  5 19  1  0  0  0  0
  6  7  1  0  0  0  0
  6 16  2  0  0  0  0
  7  8  1  0  0  0  0
  7 36  1  0  0  0  0
  8  9  1  0  0  0  0
  8 14  2  0  0  0  0
  9 10  2  0  0  0  0
  9 37  1  0  0  0  0
 10 11  1  0  0  0  0
 10 38  1  0  0  0  0
 11 12  1  0  0  0  0
 11 13  2  0  0  0  0
 13 14  1  0  0  0  0
 13 39  1  0  0  0  0
 14 15  1  0  0  0  0
 16 17  1  0  0  0  0
 17 18  2  0  0  0  0
 17 40  1  0  0  0  0
 18 19  1  0  0  0  0
 19 20  2  0  0  0  0
 20 21  1  0  0  0  0
 20 41  1  0  0  0  0
 21 22  1  0  0  0  0
 22 23  1  0  0  0  0
 23 24  1  0  0  0  0
 23 42  1  0  0  0  0
 23 43  1  0  0  0  0
 24 25  1  0  0  0  0
 24 44  1  0  0  0  0
 24 45  1  0  0  0  0
 25 26  1  0  0  0  0
 25 31  1  0  0  0  0
 25 46  1  0  0  0  0
 26 27  1  0  0  0  0
 26 47  1  0  0  0  0
 26 48  1  0  0  0  0
 27 28  1  0  0  0  0
 27 49  1  0  0  0  0
 27 50  1  0  0  0  0
 28 29  1  0  0  0  0
 28 30  1  0  0  0  0
 29 51  1  0  0  0  0
 29 52  1  0  0  0  0
 29 53  1  0  0  0  0
 30 31  1  0  0  0  0
 30 54  1  0  0  0  0
 30 55  1  0  0  0  0
 31 56  1  0  0  0  0
 31 57  1  0  0  0  0
M  END
$$$$
