CHEMBL364411
 OpenBabel04072215373D

 36 39  0  0  0  0  0  0  0  0999 V2000
    2.1519    1.5639   -0.8800 C   0  0  0  0  0  0  0  0  0  0  0  0
    1.4454    0.3986   -0.3990 N   0  0  0  0  0  0  0  0  0  0  0  0
    1.8550   -0.8895   -0.6062 C   0  0  0  0  0  0  0  0  0  0  0  0
    0.9938   -1.7313    0.0590 C   0  0  0  0  0  0  0  0  0  0  0  0
    1.0861   -3.1597    0.1077 C   0  0  0  0  0  0  0  0  0  0  0  0
    2.1726   -3.9470    0.0275 C   0  0  0  0  0  0  0  0  0  0  0  0
    3.6010   -3.5589   -0.1096 C   0  0  0  0  0  0  0  0  0  0  0  0
    4.1599   -2.5056    0.1173 O   0  0  0  0  0  0  0  0  0  0  0  0
    4.2076   -4.7387   -0.5089 N   0  0  0  0  0  0  0  0  0  0  0  0
    3.4187   -5.8572   -0.4184 N   0  0  0  0  0  0  0  0  0  0  0  0
    2.2264   -5.4370   -0.0567 C   0  0  0  0  0  0  0  0  0  0  0  0
    1.1366   -6.3600    0.2919 C   0  0  0  0  0  0  0  0  0  0  0  0
    1.3244   -7.7292    0.1457 C   0  0  0  0  0  0  0  0  0  0  0  0
    0.4054   -8.6442    0.5546 N   0  0  0  0  0  0  0  0  0  0  0  0
   -0.7064   -8.1290    1.1235 C   0  0  0  0  0  0  0  0  0  0  0  0
   -0.8981   -6.7650    1.2659 C   0  0  0  0  0  0  0  0  0  0  0  0
    0.0148   -5.8537    0.8579 N   0  0  0  0  0  0  0  0  0  0  0  0
   -0.0568   -0.9136    0.5972 C   0  0  0  0  0  0  0  0  0  0  0  0
   -1.2531   -1.1700    1.3051 C   0  0  0  0  0  0  0  0  0  0  0  0
   -2.0745   -0.1064    1.6968 C   0  0  0  0  0  0  0  0  0  0  0  0
   -1.7189    1.2095    1.4078 C   0  0  0  0  0  0  0  0  0  0  0  0
   -0.5425    1.4946    0.7120 C   0  0  0  0  0  0  0  0  0  0  0  0
    0.2646    0.4183    0.3078 C   0  0  0  0  0  0  0  0  0  0  0  0
    3.0753    1.2535   -1.3760 H   0  0  0  0  0  0  0  0  0  0  0  0
    2.3912    2.2017   -0.0253 H   0  0  0  0  0  0  0  0  0  0  0  0
    1.5081    2.0881   -1.5901 H   0  0  0  0  0  0  0  0  0  0  0  0
    2.7416   -1.0876   -1.1910 H   0  0  0  0  0  0  0  0  0  0  0  0
    0.1160   -3.6416    0.1835 H   0  0  0  0  0  0  0  0  0  0  0  0
    5.2088   -4.8201   -0.6402 H   0  0  0  0  0  0  0  0  0  0  0  0
    2.2317   -8.1464   -0.2819 H   0  0  0  0  0  0  0  0  0  0  0  0
   -1.4418   -8.8458    1.4715 H   0  0  0  0  0  0  0  0  0  0  0  0
   -1.7959   -6.3654    1.7254 H   0  0  0  0  0  0  0  0  0  0  0  0
   -1.5450   -2.1887    1.5421 H   0  0  0  0  0  0  0  0  0  0  0  0
   -2.9999   -0.3047    2.2323 H   0  0  0  0  0  0  0  0  0  0  0  0
   -2.3623    2.0267    1.7244 H   0  0  0  0  0  0  0  0  0  0  0  0
   -0.2689    2.5209    0.4888 H   0  0  0  0  0  0  0  0  0  0  0  0
  1  2  1  0  0  0  0
  1 24  1  0  0  0  0
  1 25  1  0  0  0  0
  1 26  1  0  0  0  0
  2  3  1  0  0  0  0
  2 23  1  0  0  0  0
  3  4  2  0  0  0  0
  3 27  1  0  0  0  0
  4  5  1  0  0  0  0
  4 18  1  0  0  0  0
  5  6  2  0  0  0  0
  5 28  1  0  0  0  0
  6  7  1  0  0  0  0
  6 11  1  0  0  0  0
  7  8  2  0  0  0  0
  7  9  1  0  0  0  0
  9 10  1  0  0  0  0
  9 29  1  0  0  0  0
 10 11  2  0  0  0  0
 11 12  1  0  0  0  0
 12 13  1  0  0  0  0
 12 17  2  0  0  0  0
 13 14  2  0  0  0  0
 13 30  1  0  0  0  0
 14 15  1  0  0  0  0
 15 16  2  0  0  0  0
 15 31  1  0  0  0  0
 16 17  1  0  0  0  0
 16 32  1  0  0  0  0
 18 19  1  0  0  0  0
 18 23  2  0  0  0  0
 19 20  2  0  0  0  0
 19 33  1  0  0  0  0
 20 21  1  0  0  0  0
 20 34  1  0  0  0  0
 21 22  2  0  0  0  0
 21 35  1  0  0  0  0
 22 23  1  0  0  0  0
 22 36  1  0  0  0  0
M  END
$$$$
