CHEMBL382584
 OpenBabel04072215373D

 41 44  0  0  0  0  0  0  0  0999 V2000
    1.8586    0.0484    0.9747 O   0  0  0  0  0  0  0  0  0  0  0  0
    2.0908   -0.0231   -0.2243 C   0  0  0  0  0  0  0  0  0  0  0  0
    1.5685    0.8317   -1.1901 N   0  0  0  0  0  0  0  0  0  0  0  0
    0.6324    1.8751   -1.0061 C   0  0  0  0  0  0  0  0  0  0  0  0
    0.1141    2.2551    0.2352 C   0  0  0  0  0  0  0  0  0  0  0  0
   -0.7679    3.3324    0.3423 C   0  0  0  0  0  0  0  0  0  0  0  0
   -1.1554    4.0330   -0.7971 C   0  0  0  0  0  0  0  0  0  0  0  0
   -2.3069    5.5230   -0.6410 Br  0  0  0  0  0  0  0  0  0  0  0  0
   -0.6844    3.6461   -2.0476 C   0  0  0  0  0  0  0  0  0  0  0  0
    0.2067    2.5701   -2.1495 C   0  0  0  0  0  0  0  0  0  0  0  0
    2.9970   -1.1126   -0.7345 C   0  0  0  0  0  0  0  0  0  0  0  0
    2.7640   -1.6033   -2.0404 C   0  0  0  0  0  0  0  0  0  0  0  0
    3.5561   -2.6061   -2.5972 C   0  0  0  0  0  0  0  0  0  0  0  0
    4.5962   -3.1478   -1.8584 C   0  0  0  0  0  0  0  0  0  0  0  0
    4.8169   -2.7114   -0.5524 C   0  0  0  0  0  0  0  0  0  0  0  0
    4.0125   -1.7143    0.0497 C   0  0  0  0  0  0  0  0  0  0  0  0
    4.2745   -1.4293    1.5211 C   0  0  0  0  0  0  0  0  0  0  0  0
    5.3762   -0.4705    1.7490 N   0  0  0  0  0  0  0  0  0  0  0  0
    5.1065    0.8845    1.9808 C   0  0  0  0  0  0  0  0  0  0  0  0
    6.0260    1.8194    2.2735 C   0  0  0  0  0  0  0  0  0  0  0  0
    7.4140    1.3502    2.3520 C   0  0  0  0  0  0  0  0  0  0  0  0
    8.5195    1.9845    2.5896 N   0  0  0  0  0  0  0  0  0  0  0  0
    9.4730    0.9720    2.5398 C   0  0  0  0  0  0  0  0  0  0  0  0
    9.0561   -0.2413    2.2958 N   0  0  0  0  0  0  0  0  0  0  0  0
    7.7109   -0.0688    2.1505 C   0  0  0  0  0  0  0  0  0  0  0  0
    6.7050   -0.9008    1.8758 C   0  0  0  0  0  0  0  0  0  0  0  0
    1.9113    0.7330   -2.1358 H   0  0  0  0  0  0  0  0  0  0  0  0
    0.3921    1.7388    1.1487 H   0  0  0  0  0  0  0  0  0  0  0  0
   -1.1344    3.6235    1.3227 H   0  0  0  0  0  0  0  0  0  0  0  0
   -0.9958    4.1750   -2.9439 H   0  0  0  0  0  0  0  0  0  0  0  0
    0.5598    2.2880   -3.1386 H   0  0  0  0  0  0  0  0  0  0  0  0
    1.9288   -1.2459   -2.6385 H   0  0  0  0  0  0  0  0  0  0  0  0
    3.3504   -2.9731   -3.5991 H   0  0  0  0  0  0  0  0  0  0  0  0
    5.2192   -3.9310   -2.2838 H   0  0  0  0  0  0  0  0  0  0  0  0
    5.6184   -3.1815    0.0154 H   0  0  0  0  0  0  0  0  0  0  0  0
    4.5327   -2.3832    2.0050 H   0  0  0  0  0  0  0  0  0  0  0  0
    3.3761   -1.1294    2.0632 H   0  0  0  0  0  0  0  0  0  0  0  0
    4.0531    1.1479    1.9233 H   0  0  0  0  0  0  0  0  0  0  0  0
    5.8021    2.8585    2.4608 H   0  0  0  0  0  0  0  0  0  0  0  0
   10.5393    1.2082    2.7021 H   0  0  0  0  0  0  0  0  0  0  0  0
    6.8799   -1.9621    1.7415 H   0  0  0  0  0  0  0  0  0  0  0  0
  1  2  2  0  0  0  0
  2  3  1  0  0  0  0
  2 11  1  0  0  0  0
  3  4  1  0  0  0  0
  3 27  1  0  0  0  0
  4  5  1  0  0  0  0
  4 10  2  0  0  0  0
  5  6  2  0  0  0  0
  5 28  1  0  0  0  0
  6  7  1  0  0  0  0
  6 29  1  0  0  0  0
  7  8  1  0  0  0  0
  7  9  2  0  0  0  0
  9 10  1  0  0  0  0
  9 30  1  0  0  0  0
 10 31  1  0  0  0  0
 11 12  1  0  0  0  0
 11 16  2  0  0  0  0
 12 13  2  0  0  0  0
 12 32  1  0  0  0  0
 13 14  1  0  0  0  0
 13 33  1  0  0  0  0
 14 15  2  0  0  0  0
 14 34  1  0  0  0  0
 15 16  1  0  0  0  0
 15 35  1  0  0  0  0
 16 17  1  0  0  0  0
 17 18  1  0  0  0  0
 17 36  1  0  0  0  0
 17 37  1  0  0  0  0
 18 19  1  0  0  0  0
 18 26  1  0  0  0  0
 19 20  2  0  0  0  0
 19 38  1  0  0  0  0
 20 21  1  0  0  0  0
 20 39  1  0  0  0  0
 21 22  2  0  0  0  0
 21 25  1  0  0  0  0
 22 23  1  0  0  0  0
 23 24  2  0  0  0  0
 23 40  1  0  0  0  0
 24 25  1  0  0  0  0
 25 26  2  0  0  0  0
 26 41  1  0  0  0  0
M  END
$$$$
