CHEMBL3926223
 OpenBabel04072215373D

 33 35  0  0  0  0  0  0  0  0999 V2000
    4.1888    0.4175   -1.0002 N   0  0  0  0  0  0  0  0  0  0  0  0
    2.8536   -0.1626   -0.1484 S   0  0  0  0  0  0  0  0  0  0  0  0
    2.6653    0.7294    0.9721 O   0  0  0  0  0  0  0  0  0  0  0  0
    1.8392   -0.3762   -1.1498 O   0  0  0  0  0  0  0  0  0  0  0  0
    3.4528   -1.7123    0.4313 C   0  0  0  0  0  0  0  0  0  0  0  0
    4.5466   -1.7669    1.2908 C   0  0  0  0  0  0  0  0  0  0  0  0
    5.0482   -3.0120    1.6903 C   0  0  0  0  0  0  0  0  0  0  0  0
    4.4834   -4.2081    1.2280 C   0  0  0  0  0  0  0  0  0  0  0  0
    4.9049   -5.4993    1.6145 N   0  0  0  0  0  0  0  0  0  0  0  0
    5.8551   -5.9124    2.5817 C   0  0  0  0  0  0  0  0  0  0  0  0
    6.4458   -4.9943    3.3813 N   0  0  0  0  0  0  0  0  0  0  0  0
    7.2962   -5.3476    4.3835 N   0  0  0  0  0  0  0  0  0  0  0  0
    7.5623   -6.6463    4.5775 C   0  0  0  0  0  0  0  0  0  0  0  0
    7.0224   -7.6539    3.7925 C   0  0  0  0  0  0  0  0  0  0  0  0
    7.3732   -8.9997    4.0048 C   0  0  0  0  0  0  0  0  0  0  0  0
    6.8121  -10.0103    3.2299 C   0  0  0  0  0  0  0  0  0  0  0  0
    5.8671   -9.6932    2.2634 C   0  0  0  0  0  0  0  0  0  0  0  0
    5.5142   -8.3577    2.0443 C   0  0  0  0  0  0  0  0  0  0  0  0
    6.1074   -7.2961    2.7807 C   0  0  0  0  0  0  0  0  0  0  0  0
    3.3603   -4.1216    0.3873 C   0  0  0  0  0  0  0  0  0  0  0  0
    2.8450   -2.8870   -0.0121 C   0  0  0  0  0  0  0  0  0  0  0  0
    4.2526    1.4298   -0.8875 H   0  0  0  0  0  0  0  0  0  0  0  0
    4.1463    0.1165   -1.9708 H   0  0  0  0  0  0  0  0  0  0  0  0
    5.0244   -0.8549    1.6435 H   0  0  0  0  0  0  0  0  0  0  0  0
    5.9117   -3.0092    2.3481 H   0  0  0  0  0  0  0  0  0  0  0  0
    4.8745   -6.1323    0.8253 H   0  0  0  0  0  0  0  0  0  0  0  0
    8.2275   -6.8517    5.4096 H   0  0  0  0  0  0  0  0  0  0  0  0
    8.0977   -9.2655    4.7722 H   0  0  0  0  0  0  0  0  0  0  0  0
    7.1052  -11.0449    3.3906 H   0  0  0  0  0  0  0  0  0  0  0  0
    5.4031  -10.4830    1.6761 H   0  0  0  0  0  0  0  0  0  0  0  0
    4.7553   -8.1607    1.2913 H   0  0  0  0  0  0  0  0  0  0  0  0
    2.8639   -5.0267    0.0444 H   0  0  0  0  0  0  0  0  0  0  0  0
    1.9764   -2.8537   -0.6663 H   0  0  0  0  0  0  0  0  0  0  0  0
  1  2  1  0  0  0  0
  1 22  1  0  0  0  0
  1 23  1  0  0  0  0
  2  3  2  0  0  0  0
  2  4  2  0  0  0  0
  2  5  1  0  0  0  0
  5  6  1  0  0  0  0
  5 21  2  0  0  0  0
  6  7  2  0  0  0  0
  6 24  1  0  0  0  0
  7  8  1  0  0  0  0
  7 25  1  0  0  0  0
  8  9  1  0  0  0  0
  8 20  2  0  0  0  0
  9 10  1  0  0  0  0
  9 26  1  0  0  0  0
 10 11  1  0  0  0  0
 10 19  2  0  0  0  0
 11 12  2  0  0  0  0
 12 13  1  0  0  0  0
 13 14  2  0  0  0  0
 13 27  1  0  0  0  0
 14 15  1  0  0  0  0
 14 19  1  0  0  0  0
 15 16  2  0  0  0  0
 15 28  1  0  0  0  0
 16 17  1  0  0  0  0
 16 29  1  0  0  0  0
 17 18  2  0  0  0  0
 17 30  1  0  0  0  0
 18 19  1  0  0  0  0
 18 31  1  0  0  0  0
 20 21  1  0  0  0  0
 20 32  1  0  0  0  0
 21 33  1  0  0  0  0
M  END
$$$$
