CHEMBL1967094
 OpenBabel04072215363D

 39 42  0  0  0  0  0  0  0  0999 V2000
    1.2622    0.5861    0.5268 O   0  0  0  0  0  0  0  0  0  0  0  0
    2.2987    0.0493    0.1427 C   0  0  0  0  0  0  0  0  0  0  0  0
    2.7765   -1.1078    0.7186 N   0  0  0  0  0  0  0  0  0  0  0  0
    2.1135   -1.7676    1.8150 C   0  0  0  0  0  0  0  0  0  0  0  0
    3.0090   -1.8430    3.0262 C   0  0  0  0  0  0  0  0  0  0  0  0
    2.9952   -0.8099    3.9761 C   0  0  0  0  0  0  0  0  0  0  0  0
    3.8431   -0.8520    5.0858 C   0  0  0  0  0  0  0  0  0  0  0  0
    4.7147   -1.9255    5.2496 C   0  0  0  0  0  0  0  0  0  0  0  0
    5.7796   -1.9647    6.6009 Cl  0  0  0  0  0  0  0  0  0  0  0  0
    4.7378   -2.9623    4.3190 C   0  0  0  0  0  0  0  0  0  0  0  0
    3.8896   -2.9204    3.2082 C   0  0  0  0  0  0  0  0  0  0  0  0
    3.1087    0.5910   -0.9401 C   0  0  0  0  0  0  0  0  0  0  0  0
    2.8870    1.7765   -1.6603 C   0  0  0  0  0  0  0  0  0  0  0  0
    3.9172    1.9461   -2.5869 C   0  0  0  0  0  0  0  0  0  0  0  0
    4.3168    2.8810   -3.5511 C   0  0  0  0  0  0  0  0  0  0  0  0
    3.7715    4.1840   -3.9282 C   0  0  0  0  0  0  0  0  0  0  0  0
    3.0932    4.9895   -3.0054 C   0  0  0  0  0  0  0  0  0  0  0  0
    2.6584    6.2683   -3.3684 C   0  0  0  0  0  0  0  0  0  0  0  0
    2.8970    6.7515   -4.6544 C   0  0  0  0  0  0  0  0  0  0  0  0
    3.5628    5.9575   -5.5836 C   0  0  0  0  0  0  0  0  0  0  0  0
    3.9956    4.6820   -5.2220 C   0  0  0  0  0  0  0  0  0  0  0  0
    5.4412    2.4139   -4.1591 N   0  0  0  0  0  0  0  0  0  0  0  0
    5.7227    1.2449   -3.5348 N   0  0  0  0  0  0  0  0  0  0  0  0
    4.8086    0.9568   -2.5909 C   0  0  0  0  0  0  0  0  0  0  0  0
    4.5488   -0.2436   -1.4893 S   0  0  0  0  0  0  0  0  0  0  0  0
    3.6270   -1.5111    0.3469 H   0  0  0  0  0  0  0  0  0  0  0  0
    1.8472   -2.7746    1.4757 H   0  0  0  0  0  0  0  0  0  0  0  0
    1.1789   -1.2576    2.0690 H   0  0  0  0  0  0  0  0  0  0  0  0
    2.3217    0.0371    3.8528 H   0  0  0  0  0  0  0  0  0  0  0  0
    3.8225   -0.0432    5.8113 H   0  0  0  0  0  0  0  0  0  0  0  0
    5.4164   -3.8010    4.4501 H   0  0  0  0  0  0  0  0  0  0  0  0
    3.9210   -3.7352    2.4880 H   0  0  0  0  0  0  0  0  0  0  0  0
    2.0431    2.4295   -1.4843 H   0  0  0  0  0  0  0  0  0  0  0  0
    2.9279    4.6559   -1.9856 H   0  0  0  0  0  0  0  0  0  0  0  0
    2.1537    6.8952   -2.6385 H   0  0  0  0  0  0  0  0  0  0  0  0
    2.5761    7.7532   -4.9280 H   0  0  0  0  0  0  0  0  0  0  0  0
    3.7634    6.3324   -6.5842 H   0  0  0  0  0  0  0  0  0  0  0  0
    4.5330    4.0781   -5.9520 H   0  0  0  0  0  0  0  0  0  0  0  0
    6.5422    0.7226   -3.8145 H   0  0  0  0  0  0  0  0  0  0  0  0
  1  2  2  0  0  0  0
  2  3  1  0  0  0  0
  2 12  1  0  0  0  0
  3  4  1  0  0  0  0
  3 26  1  0  0  0  0
  4  5  1  0  0  0  0
  4 27  1  0  0  0  0
  4 28  1  0  0  0  0
  5  6  1  0  0  0  0
  5 11  2  0  0  0  0
  6  7  2  0  0  0  0
  6 29  1  0  0  0  0
  7  8  1  0  0  0  0
  7 30  1  0  0  0  0
  8  9  1  0  0  0  0
  8 10  2  0  0  0  0
 10 11  1  0  0  0  0
 10 31  1  0  0  0  0
 11 32  1  0  0  0  0
 12 13  2  0  0  0  0
 12 25  1  0  0  0  0
 13 14  1  0  0  0  0
 13 33  1  0  0  0  0
 14 15  1  0  0  0  0
 14 24  2  0  0  0  0
 15 16  1  0  0  0  0
 15 22  2  0  0  0  0
 16 17  1  0  0  0  0
 16 21  2  0  0  0  0
 17 18  2  0  0  0  0
 17 34  1  0  0  0  0
 18 19  1  0  0  0  0
 18 35  1  0  0  0  0
 19 20  2  0  0  0  0
 19 36  1  0  0  0  0
 20 21  1  0  0  0  0
 20 37  1  0  0  0  0
 21 38  1  0  0  0  0
 22 23  1  0  0  0  0
 23 24  1  0  0  0  0
 23 39  1  0  0  0  0
 24 25  1  0  0  0  0
M  END
$$$$
