CHEMBL376475
 OpenBabel04072215373D

 58 61  0  0  0  0  0  0  0  0999 V2000
    2.3935   -0.7029   -0.6206 C   0  0  0  0  0  0  0  0  0  0  0  0
    1.1062   -0.0410   -0.4230 N   0  0  0  0  0  0  0  0  0  0  0  0
    0.0535   -0.6737   -1.2499 C   0  0  0  0  0  0  0  0  0  0  0  0
   -1.3372   -0.0081   -1.0672 C   0  0  0  0  0  0  0  0  0  0  0  0
   -1.7072    0.0027    0.3511 N   0  0  0  0  0  0  0  0  0  0  0  0
   -3.0245    0.0557    0.7989 C   0  0  0  0  0  0  0  0  0  0  0  0
   -3.2747   -0.5353    2.0603 C   0  0  0  0  0  0  0  0  0  0  0  0
   -4.5317   -0.5393    2.6644 C   0  0  0  0  0  0  0  0  0  0  0  0
   -5.6130    0.0497    2.0182 C   0  0  0  0  0  0  0  0  0  0  0  0
   -6.9531    0.1535    2.6917 C   0  0  0  0  0  0  0  0  0  0  0  0
   -7.0050   -0.4816    3.8968 F   0  0  0  0  0  0  0  0  0  0  0  0
   -7.3101    1.4441    2.9422 F   0  0  0  0  0  0  0  0  0  0  0  0
   -7.9646   -0.3774    1.9496 F   0  0  0  0  0  0  0  0  0  0  0  0
   -5.4193    0.5601    0.7272 C   0  0  0  0  0  0  0  0  0  0  0  0
   -4.1564    0.5397    0.0996 C   0  0  0  0  0  0  0  0  0  0  0  0
   -4.0941    1.1134   -1.1965 N   0  0  0  0  0  0  0  0  0  0  0  0
   -4.8802    0.6441   -2.2465 C   0  0  0  0  0  0  0  0  0  0  0  0
   -5.6274   -0.3272   -2.1773 O   0  0  0  0  0  0  0  0  0  0  0  0
   -4.7602    1.3293   -3.5656 C   0  0  0  0  0  0  0  0  0  0  0  0
   -5.0162    0.6142   -4.7567 C   0  0  0  0  0  0  0  0  0  0  0  0
   -4.9585    1.2603   -6.0014 C   0  0  0  0  0  0  0  0  0  0  0  0
   -5.1926    0.5497   -7.2289 C   0  0  0  0  0  0  0  0  0  0  0  0
   -5.3684   -0.0036   -8.2848 C   0  0  0  0  0  0  0  0  0  0  0  0
   -5.5730   -0.6527   -9.5457 C   0  0  0  0  0  0  0  0  0  0  0  0
   -6.8193   -1.0146   -9.9983 C   0  0  0  0  0  0  0  0  0  0  0  0
   -7.0396   -1.6663  -11.1631 N   0  0  0  0  0  0  0  0  0  0  0  0
   -5.9573   -1.9780  -11.8880 C   0  0  0  0  0  0  0  0  0  0  0  0
   -6.1653   -2.6806  -13.0530 N   0  0  0  0  0  0  0  0  0  0  0  0
   -4.7068   -1.6334  -11.5669 N   0  0  0  0  0  0  0  0  0  0  0  0
   -4.5401   -0.9801  -10.3935 C   0  0  0  0  0  0  0  0  0  0  0  0
   -4.6691    2.6234   -6.0588 C   0  0  0  0  0  0  0  0  0  0  0  0
   -4.4283    3.3391   -4.8826 C   0  0  0  0  0  0  0  0  0  0  0  0
   -4.4693    2.6906   -3.6476 C   0  0  0  0  0  0  0  0  0  0  0  0
   -4.2421    3.4135   -2.5455 F   0  0  0  0  0  0  0  0  0  0  0  0
   -0.6678    0.5716    1.2410 C   0  0  0  0  0  0  0  0  0  0  0  0
    0.6967   -0.1129    0.9965 C   0  0  0  0  0  0  0  0  0  0  0  0
    2.7090   -0.6149   -1.6660 H   0  0  0  0  0  0  0  0  0  0  0  0
    2.3647   -1.7659   -0.3559 H   0  0  0  0  0  0  0  0  0  0  0  0
    3.1696   -0.2192   -0.0170 H   0  0  0  0  0  0  0  0  0  0  0  0
   -0.0303   -1.7402   -1.0019 H   0  0  0  0  0  0  0  0  0  0  0  0
    0.3287   -0.6034   -2.3097 H   0  0  0  0  0  0  0  0  0  0  0  0
   -2.0595   -0.5835   -1.6551 H   0  0  0  0  0  0  0  0  0  0  0  0
   -1.3002    1.0173   -1.4523 H   0  0  0  0  0  0  0  0  0  0  0  0
   -2.4675   -1.0481    2.5804 H   0  0  0  0  0  0  0  0  0  0  0  0
   -4.6494   -1.0062    3.6405 H   0  0  0  0  0  0  0  0  0  0  0  0
   -6.2616    1.0237    0.2133 H   0  0  0  0  0  0  0  0  0  0  0  0
   -3.3407    1.7653   -1.3726 H   0  0  0  0  0  0  0  0  0  0  0  0
   -5.2627   -0.4458   -4.7041 H   0  0  0  0  0  0  0  0  0  0  0  0
   -7.7182   -0.7921   -9.4298 H   0  0  0  0  0  0  0  0  0  0  0  0
   -7.0953   -2.5387  -13.3910 H   0  0  0  0  0  0  0  0  0  0  0  0
   -5.4005   -2.5230  -13.6904 H   0  0  0  0  0  0  0  0  0  0  0  0
   -3.5094   -0.7297  -10.1589 H   0  0  0  0  0  0  0  0  0  0  0  0
   -4.6340    3.1434   -7.0136 H   0  0  0  0  0  0  0  0  0  0  0  0
   -4.2194    4.4030   -4.9175 H   0  0  0  0  0  0  0  0  0  0  0  0
   -0.9070    0.4542    2.3043 H   0  0  0  0  0  0  0  0  0  0  0  0
   -0.5839    1.6489    1.0535 H   0  0  0  0  0  0  0  0  0  0  0  0
    0.6364   -1.1601    1.3248 H   0  0  0  0  0  0  0  0  0  0  0  0
    1.4476    0.3812    1.6250 H   0  0  0  0  0  0  0  0  0  0  0  0
  1  2  1  0  0  0  0
  1 37  1  0  0  0  0
  1 38  1  0  0  0  0
  1 39  1  0  0  0  0
  2  3  1  0  0  0  0
  2 36  1  0  0  0  0
  3  4  1  0  0  0  0
  3 40  1  0  0  0  0
  3 41  1  0  0  0  0
  4  5  1  0  0  0  0
  4 42  1  0  0  0  0
  4 43  1  0  0  0  0
  5  6  1  0  0  0  0
  5 35  1  0  0  0  0
  6  7  1  0  0  0  0
  6 15  2  0  0  0  0
  7  8  2  0  0  0  0
  7 44  1  0  0  0  0
  8  9  1  0  0  0  0
  8 45  1  0  0  0  0
  9 10  1  0  0  0  0
  9 14  2  0  0  0  0
 10 11  1  0  0  0  0
 10 12  1  0  0  0  0
 10 13  1  0  0  0  0
 14 15  1  0  0  0  0
 14 46  1  0  0  0  0
 15 16  1  0  0  0  0
 16 17  1  0  0  0  0
 16 47  1  0  0  0  0
 17 18  2  0  0  0  0
 17 19  1  0  0  0  0
 19 20  1  0  0  0  0
 19 33  2  0  0  0  0
 20 21  2  0  0  0  0
 20 48  1  0  0  0  0
 21 22  1  0  0  0  0
 21 31  1  0  0  0  0
 22 23  3  0  0  0  0
 23 24  1  0  0  0  0
 24 25  1  0  0  0  0
 24 30  2  0  0  0  0
 25 26  2  0  0  0  0
 25 49  1  0  0  0  0
 26 27  1  0  0  0  0
 27 28  1  0  0  0  0
 27 29  2  0  0  0  0
 28 50  1  0  0  0  0
 28 51  1  0  0  0  0
 29 30  1  0  0  0  0
 30 52  1  0  0  0  0
 31 32  2  0  0  0  0
 31 53  1  0  0  0  0
 32 33  1  0  0  0  0
 32 54  1  0  0  0  0
 33 34  1  0  0  0  0
 35 36  1  0  0  0  0
 35 55  1  0  0  0  0
 35 56  1  0  0  0  0
 36 57  1  0  0  0  0
 36 58  1  0  0  0  0
M  END
$$$$
