CHEMBL408478
 OpenBabel04072215383D

 64 68  0  0  0  0  0  0  0  0999 V2000
    4.4218    7.6647   11.1044 C   0  0  0  0  0  0  0  0  0  0  0  0
    4.6826    6.2618   11.0665 O   0  0  0  0  0  0  0  0  0  0  0  0
    4.9319    5.7323    9.8286 C   0  0  0  0  0  0  0  0  0  0  0  0
    5.4588    6.5018    8.7775 C   0  0  0  0  0  0  0  0  0  0  0  0
    5.5895    6.0108    7.4860 C   0  0  0  0  0  0  0  0  0  0  0  0
    5.9834    6.8552    6.5167 N   0  0  0  0  0  0  0  0  0  0  0  0
    6.0328    6.3965    5.2488 C   0  0  0  0  0  0  0  0  0  0  0  0
    5.6881    5.1120    4.8876 C   0  0  0  0  0  0  0  0  0  0  0  0
    5.2833    4.2370    5.8938 C   0  0  0  0  0  0  0  0  0  0  0  0
    4.9822    2.9593    5.4669 O   0  0  0  0  0  0  0  0  0  0  0  0
    3.7904    2.3552    5.8105 C   0  0  0  0  0  0  0  0  0  0  0  0
    3.7472    0.9769    5.6186 C   0  0  0  0  0  0  0  0  0  0  0  0
    2.6034    0.2410    5.9594 C   0  0  0  0  0  0  0  0  0  0  0  0
    1.4733    0.8523    6.5581 C   0  0  0  0  0  0  0  0  0  0  0  0
    0.2738    0.1890    6.9596 C   0  0  0  0  0  0  0  0  0  0  0  0
   -0.0332   -1.2547    6.7302 C   0  0  0  0  0  0  0  0  0  0  0  0
   -1.1515   -1.5147    6.2950 O   0  0  0  0  0  0  0  0  0  0  0  0
    0.9307   -2.1721    7.0950 N   0  0  0  0  0  0  0  0  0  0  0  0
    0.7878   -3.5386    6.8901 C   0  0  0  0  0  0  0  0  0  0  0  0
    1.7288   -4.5180    7.3008 C   0  0  0  0  0  0  0  0  0  0  0  0
    1.2092   -5.7172    6.8768 C   0  0  0  0  0  0  0  0  0  0  0  0
    1.6440   -7.1585    6.9333 C   0  0  0  0  0  0  0  0  0  0  0  0
    2.9734   -7.2982    7.6989 C   0  0  0  0  0  0  0  0  0  0  0  0
    0.5796   -8.0144    7.6461 C   0  0  0  0  0  0  0  0  0  0  0  0
    1.8430   -7.6900    5.5019 C   0  0  0  0  0  0  0  0  0  0  0  0
    0.0182   -5.4786    6.2616 O   0  0  0  0  0  0  0  0  0  0  0  0
   -0.2331   -4.1311    6.2659 N   0  0  0  0  0  0  0  0  0  0  0  0
   -0.7910    0.9184    7.5230 C   0  0  0  0  0  0  0  0  0  0  0  0
   -0.6948    2.2896    7.7121 C   0  0  0  0  0  0  0  0  0  0  0  0
    0.4604    2.9536    7.3183 C   0  0  0  0  0  0  0  0  0  0  0  0
    1.5345    2.2630    6.7360 C   0  0  0  0  0  0  0  0  0  0  0  0
    2.6626    2.9949    6.3208 C   0  0  0  0  0  0  0  0  0  0  0  0
    5.2699    4.6644    7.2413 C   0  0  0  0  0  0  0  0  0  0  0  0
    4.9262    3.8477    8.3377 C   0  0  0  0  0  0  0  0  0  0  0  0
    4.6842    4.3760    9.6075 C   0  0  0  0  0  0  0  0  0  0  0  0
    4.1946    3.4306   10.4644 O   0  0  0  0  0  0  0  0  0  0  0  0
    3.4833    3.8577   11.6140 C   0  0  0  0  0  0  0  0  0  0  0  0
    3.7821    7.8647   11.9710 H   0  0  0  0  0  0  0  0  0  0  0  0
    3.8869    8.0269   10.2212 H   0  0  0  0  0  0  0  0  0  0  0  0
    5.3615    8.2104   11.2410 H   0  0  0  0  0  0  0  0  0  0  0  0
    5.7530    7.5352    8.9394 H   0  0  0  0  0  0  0  0  0  0  0  0
    6.3588    7.1217    4.5071 H   0  0  0  0  0  0  0  0  0  0  0  0
    5.7262    4.7985    3.8506 H   0  0  0  0  0  0  0  0  0  0  0  0
    4.6102    0.4658    5.1970 H   0  0  0  0  0  0  0  0  0  0  0  0
    2.6177   -0.8222    5.7365 H   0  0  0  0  0  0  0  0  0  0  0  0
    1.7670   -1.8636    7.5672 H   0  0  0  0  0  0  0  0  0  0  0  0
    2.6606   -4.3653    7.8248 H   0  0  0  0  0  0  0  0  0  0  0  0
    2.8726   -6.9646    8.7384 H   0  0  0  0  0  0  0  0  0  0  0  0
    3.7674   -6.7003    7.2358 H   0  0  0  0  0  0  0  0  0  0  0  0
    3.3142   -8.3408    7.7185 H   0  0  0  0  0  0  0  0  0  0  0  0
    0.4223   -7.6782    8.6774 H   0  0  0  0  0  0  0  0  0  0  0  0
    0.8779   -9.0694    7.6813 H   0  0  0  0  0  0  0  0  0  0  0  0
   -0.3883   -7.9650    7.1342 H   0  0  0  0  0  0  0  0  0  0  0  0
    2.5847   -7.0941    4.9566 H   0  0  0  0  0  0  0  0  0  0  0  0
    0.9093   -7.6560    4.9276 H   0  0  0  0  0  0  0  0  0  0  0  0
    2.1883   -8.7296    5.5077 H   0  0  0  0  0  0  0  0  0  0  0  0
   -1.7159    0.4106    7.7966 H   0  0  0  0  0  0  0  0  0  0  0  0
   -1.5274    2.8421    8.1401 H   0  0  0  0  0  0  0  0  0  0  0  0
    0.5112    4.0318    7.4641 H   0  0  0  0  0  0  0  0  0  0  0  0
    2.6569    4.0764    6.4354 H   0  0  0  0  0  0  0  0  0  0  0  0
    4.7593    2.7836    8.1967 H   0  0  0  0  0  0  0  0  0  0  0  0
    2.8762    3.0098   11.9527 H   0  0  0  0  0  0  0  0  0  0  0  0
    2.7927    4.6795   11.4062 H   0  0  0  0  0  0  0  0  0  0  0  0
    4.1845    4.1030   12.4161 H   0  0  0  0  0  0  0  0  0  0  0  0
  1  2  1  0  0  0  0
  1 38  1  0  0  0  0
  1 39  1  0  0  0  0
  1 40  1  0  0  0  0
  2  3  1  0  0  0  0
  3  4  1  0  0  0  0
  3 35  2  0  0  0  0
  4  5  2  0  0  0  0
  4 41  1  0  0  0  0
  5  6  1  0  0  0  0
  5 33  1  0  0  0  0
  6  7  2  0  0  0  0
  7  8  1  0  0  0  0
  7 42  1  0  0  0  0
  8  9  2  0  0  0  0
  8 43  1  0  0  0  0
  9 10  1  0  0  0  0
  9 33  1  0  0  0  0
 10 11  1  0  0  0  0
 11 12  1  0  0  0  0
 11 32  2  0  0  0  0
 12 13  2  0  0  0  0
 12 44  1  0  0  0  0
 13 14  1  0  0  0  0
 13 45  1  0  0  0  0
 14 15  1  0  0  0  0
 14 31  2  0  0  0  0
 15 16  1  0  0  0  0
 15 28  2  0  0  0  0
 16 17  2  0  0  0  0
 16 18  1  0  0  0  0
 18 19  1  0  0  0  0
 18 46  1  0  0  0  0
 19 20  1  0  0  0  0
 19 27  2  0  0  0  0
 20 21  2  0  0  0  0
 20 47  1  0  0  0  0
 21 22  1  0  0  0  0
 21 26  1  0  0  0  0
 22 23  1  0  0  0  0
 22 24  1  0  0  0  0
 22 25  1  0  0  0  0
 23 48  1  0  0  0  0
 23 49  1  0  0  0  0
 23 50  1  0  0  0  0
 24 51  1  0  0  0  0
 24 52  1  0  0  0  0
 24 53  1  0  0  0  0
 25 54  1  0  0  0  0
 25 55  1  0  0  0  0
 25 56  1  0  0  0  0
 26 27  1  0  0  0  0
 28 29  1  0  0  0  0
 28 57  1  0  0  0  0
 29 30  2  0  0  0  0
 29 58  1  0  0  0  0
 30 31  1  0  0  0  0
 30 59  1  0  0  0  0
 31 32  1  0  0  0  0
 32 60  1  0  0  0  0
 33 34  2  0  0  0  0
 34 35  1  0  0  0  0
 34 61  1  0  0  0  0
 35 36  1  0  0  0  0
 36 37  1  0  0  0  0
 37 62  1  0  0  0  0
 37 63  1  0  0  0  0
 37 64  1  0  0  0  0
M  END
$$$$
