CHEMBL3690486
 OpenBabel04072215373D

 48 51  0  0  0  0  0  0  0  0999 V2000
    2.3858    0.0029    0.0734 N   0  0  0  0  0  0  0  0  0  0  0  0
    0.9900    0.0562    0.1362 C   0  0  0  0  0  0  0  0  0  0  0  0
    0.2680   -1.0128    0.6529 C   0  0  0  0  0  0  0  0  0  0  0  0
   -1.1258   -1.0102    0.5945 C   0  0  0  0  0  0  0  0  0  0  0  0
   -1.7824    0.0619   -0.0080 C   0  0  0  0  0  0  0  0  0  0  0  0
   -3.2646    0.1477   -0.0827 C   0  0  0  0  0  0  0  0  0  0  0  0
   -3.9493    0.7978   -1.2091 C   0  0  0  0  0  0  0  0  0  0  0  0
   -5.2903    0.8829   -1.2328 C   0  0  0  0  0  0  0  0  0  0  0  0
   -6.0357    0.3807   -0.1642 N   0  0  0  0  0  0  0  0  0  0  0  0
   -7.4051    0.3701    0.0863 C   0  0  0  0  0  0  0  0  0  0  0  0
   -8.4876    0.9164   -0.7454 C   0  0  0  0  0  0  0  0  0  0  0  0
   -9.7209    0.2470   -0.7553 C   0  0  0  0  0  0  0  0  0  0  0  0
  -10.7875    0.7232   -1.5087 C   0  0  0  0  0  0  0  0  0  0  0  0
  -10.6409    1.8811   -2.2661 C   0  0  0  0  0  0  0  0  0  0  0  0
   -9.4413    2.5958   -2.2581 C   0  0  0  0  0  0  0  0  0  0  0  0
   -9.2529    3.7931   -2.9912 N   0  0  0  0  0  0  0  0  0  0  0  0
  -10.2165    4.4563   -3.7227 C   0  0  0  0  0  0  0  0  0  0  0  0
  -11.3953    4.1542   -3.8332 O   0  0  0  0  0  0  0  0  0  0  0  0
   -9.7103    5.5394   -4.4062 N   0  0  0  0  0  0  0  0  0  0  0  0
  -10.6493    6.3396   -5.2082 C   0  0  0  0  0  0  0  0  0  0  0  0
  -11.5357    7.3249   -4.4297 C   0  0  0  0  0  0  0  0  0  0  0  0
  -11.1770    7.4140   -3.1283 F   0  0  0  0  0  0  0  0  0  0  0  0
  -11.4071    8.5704   -4.9548 F   0  0  0  0  0  0  0  0  0  0  0  0
  -12.8439    7.0014   -4.4873 F   0  0  0  0  0  0  0  0  0  0  0  0
   -8.3702    2.1057   -1.4892 C   0  0  0  0  0  0  0  0  0  0  0  0
   -7.5144   -0.3253    1.2853 C   0  0  0  0  0  0  0  0  0  0  0  0
   -6.3038   -0.7052    1.7850 N   0  0  0  0  0  0  0  0  0  0  0  0
   -5.4287   -0.2601    0.9149 C   0  0  0  0  0  0  0  0  0  0  0  0
   -4.0100   -0.3503    0.9315 C   0  0  0  0  0  0  0  0  0  0  0  0
   -1.1022    1.0782   -0.5896 N   0  0  0  0  0  0  0  0  0  0  0  0
    0.2522    1.0370   -0.5221 C   0  0  0  0  0  0  0  0  0  0  0  0
    2.8090   -0.5505    0.8130 H   0  0  0  0  0  0  0  0  0  0  0  0
    2.8324    0.9097   -0.0258 H   0  0  0  0  0  0  0  0  0  0  0  0
    0.7773   -1.8591    1.1048 H   0  0  0  0  0  0  0  0  0  0  0  0
   -1.6730   -1.8521    1.0048 H   0  0  0  0  0  0  0  0  0  0  0  0
   -3.3427    1.1972   -2.0171 H   0  0  0  0  0  0  0  0  0  0  0  0
   -5.8142    1.3294   -2.0643 H   0  0  0  0  0  0  0  0  0  0  0  0
   -9.8706   -0.6605   -0.1744 H   0  0  0  0  0  0  0  0  0  0  0  0
  -11.7377    0.1959   -1.5086 H   0  0  0  0  0  0  0  0  0  0  0  0
  -11.4970    2.1957   -2.8529 H   0  0  0  0  0  0  0  0  0  0  0  0
   -8.3295    4.1985   -2.9765 H   0  0  0  0  0  0  0  0  0  0  0  0
   -8.9388    6.0331   -3.9796 H   0  0  0  0  0  0  0  0  0  0  0  0
  -11.2936    5.6551   -5.7738 H   0  0  0  0  0  0  0  0  0  0  0  0
  -10.0440    6.8845   -5.9389 H   0  0  0  0  0  0  0  0  0  0  0  0
   -7.4498    2.6794   -1.4453 H   0  0  0  0  0  0  0  0  0  0  0  0
   -8.4243   -0.5670    1.8208 H   0  0  0  0  0  0  0  0  0  0  0  0
   -3.5763   -0.8216    1.8058 H   0  0  0  0  0  0  0  0  0  0  0  0
    0.7509    1.8549   -1.0344 H   0  0  0  0  0  0  0  0  0  0  0  0
  1  2  1  0  0  0  0
  1 32  1  0  0  0  0
  1 33  1  0  0  0  0
  2  3  1  0  0  0  0
  2 31  2  0  0  0  0
  3  4  2  0  0  0  0
  3 34  1  0  0  0  0
  4  5  1  0  0  0  0
  4 35  1  0  0  0  0
  5  6  1  0  0  0  0
  5 30  2  0  0  0  0
  6  7  1  0  0  0  0
  6 29  2  0  0  0  0
  7  8  2  0  0  0  0
  7 36  1  0  0  0  0
  8  9  1  0  0  0  0
  8 37  1  0  0  0  0
  9 10  1  0  0  0  0
  9 28  1  0  0  0  0
 10 11  1  0  0  0  0
 10 26  2  0  0  0  0
 11 12  1  0  0  0  0
 11 25  2  0  0  0  0
 12 13  2  0  0  0  0
 12 38  1  0  0  0  0
 13 14  1  0  0  0  0
 13 39  1  0  0  0  0
 14 15  2  0  0  0  0
 14 40  1  0  0  0  0
 15 16  1  0  0  0  0
 15 25  1  0  0  0  0
 16 17  1  0  0  0  0
 16 41  1  0  0  0  0
 17 18  2  0  0  0  0
 17 19  1  0  0  0  0
 19 20  1  0  0  0  0
 19 42  1  0  0  0  0
 20 21  1  0  0  0  0
 20 43  1  0  0  0  0
 20 44  1  0  0  0  0
 21 22  1  0  0  0  0
 21 23  1  0  0  0  0
 21 24  1  0  0  0  0
 25 45  1  0  0  0  0
 26 27  1  0  0  0  0
 26 46  1  0  0  0  0
 27 28  2  0  0  0  0
 28 29  1  0  0  0  0
 29 47  1  0  0  0  0
 30 31  1  0  0  0  0
 31 48  1  0  0  0  0
M  END
$$$$
