CHEMBL1940179
 OpenBabel04072215363D

 66 71  0  0  0  0  0  0  0  0999 V2000
    1.5731   -1.1635    0.6799 C   0  0  0  0  0  0  0  0  0  0  0  0
    2.6933   -0.3476    0.0335 C   0  0  0  0  0  0  0  0  0  0  0  0
    2.9301    1.0078    0.6793 C   0  0  0  0  0  0  0  0  0  0  0  0
    3.7524    0.9822    1.8313 C   0  0  0  0  0  0  0  0  0  0  0  0
    4.1330    2.1477    2.5061 C   0  0  0  0  0  0  0  0  0  0  0  0
    3.6757    3.3956    2.0539 C   0  0  0  0  0  0  0  0  0  0  0  0
    2.8526    3.4046    0.9050 C   0  0  0  0  0  0  0  0  0  0  0  0
    2.4682    2.2492    0.1824 C   0  0  0  0  0  0  0  0  0  0  0  0
    1.7050    2.3896   -0.9722 N   0  0  0  0  0  0  0  0  0  0  0  0
    1.7681    3.6022   -1.8092 C   0  0  0  0  0  0  0  0  0  0  0  0
    0.4452    4.3944   -1.7434 C   0  0  0  0  0  0  0  0  0  0  0  0
   -0.7588    3.6228   -2.1263 N   0  0  0  0  0  0  0  0  0  0  0  0
   -0.7459    3.2480   -3.5515 C   0  0  0  0  0  0  0  0  0  0  0  0
   -0.9149    4.5031   -4.4425 C   0  0  0  0  0  0  0  0  0  0  0  0
   -2.0519    3.7769   -5.1815 C   0  0  0  0  0  0  0  0  0  0  0  0
   -2.1843    2.8438   -3.9678 C   0  0  0  0  0  0  0  0  0  0  0  0
   -0.8037    2.4112   -1.2788 C   0  0  0  0  0  0  0  0  0  0  0  0
    0.4949    1.5772   -1.1660 C   0  0  0  0  0  0  0  0  0  0  0  0
    4.0358    4.7233    2.7568 C   0  0  0  0  0  0  0  0  0  0  0  0
    4.8212    5.6303    1.7830 C   0  0  0  0  0  0  0  0  0  0  0  0
    2.7416    5.4344    3.2080 C   0  0  0  0  0  0  0  0  0  0  0  0
    4.8982    4.4542    3.9693 C   0  0  0  0  0  0  0  0  0  0  0  0
    5.3690    5.4034    4.8386 N   0  0  0  0  0  0  0  0  0  0  0  0
    6.1317    4.8050    5.8204 C   0  0  0  0  0  0  0  0  0  0  0  0
    6.8087    5.3700    6.9070 C   0  0  0  0  0  0  0  0  0  0  0  0
    7.5172    4.5022    7.7537 C   0  0  0  0  0  0  0  0  0  0  0  0
    8.2280    5.0416    8.8793 C   0  0  0  0  0  0  0  0  0  0  0  0
    8.7997    5.4844    9.7852 N   0  0  0  0  0  0  0  0  0  0  0  0
    7.5403    3.1267    7.5164 C   0  0  0  0  0  0  0  0  0  0  0  0
    6.8554    2.5841    6.4237 C   0  0  0  0  0  0  0  0  0  0  0  0
    6.1388    3.4312    5.5610 C   0  0  0  0  0  0  0  0  0  0  0  0
    5.3534    3.2255    4.3938 C   0  0  0  0  0  0  0  0  0  0  0  0
    5.0266    1.9998    3.6957 C   0  0  0  0  0  0  0  0  0  0  0  0
    5.4443    0.9007    4.0454 O   0  0  0  0  0  0  0  0  0  0  0  0
    1.7165   -2.2291    0.4753 H   0  0  0  0  0  0  0  0  0  0  0  0
    0.5900   -0.9145    0.2755 H   0  0  0  0  0  0  0  0  0  0  0  0
    1.5273   -1.0238    1.7646 H   0  0  0  0  0  0  0  0  0  0  0  0
    2.5434   -0.2558   -1.0465 H   0  0  0  0  0  0  0  0  0  0  0  0
    3.6203   -0.9306    0.1325 H   0  0  0  0  0  0  0  0  0  0  0  0
    4.1254    0.0232    2.1950 H   0  0  0  0  0  0  0  0  0  0  0  0
    2.4775    4.3679    0.5702 H   0  0  0  0  0  0  0  0  0  0  0  0
    1.9641    3.2975   -2.8435 H   0  0  0  0  0  0  0  0  0  0  0  0
    2.6049    4.2594   -1.5471 H   0  0  0  0  0  0  0  0  0  0  0  0
    0.5265    5.3069   -2.3433 H   0  0  0  0  0  0  0  0  0  0  0  0
    0.2943    4.7426   -0.7114 H   0  0  0  0  0  0  0  0  0  0  0  0
    0.0315    2.5538   -3.8893 H   0  0  0  0  0  0  0  0  0  0  0  0
   -0.0499    4.7414   -5.0698 H   0  0  0  0  0  0  0  0  0  0  0  0
   -1.2483    5.4190   -3.9415 H   0  0  0  0  0  0  0  0  0  0  0  0
   -1.7376    3.2697   -6.0995 H   0  0  0  0  0  0  0  0  0  0  0  0
   -2.9330    4.3890   -5.3944 H   0  0  0  0  0  0  0  0  0  0  0  0
   -2.3140    1.7859   -4.2168 H   0  0  0  0  0  0  0  0  0  0  0  0
   -2.9886    3.1434   -3.2850 H   0  0  0  0  0  0  0  0  0  0  0  0
   -1.6190    1.7465   -1.5914 H   0  0  0  0  0  0  0  0  0  0  0  0
   -1.0797    2.7376   -0.2672 H   0  0  0  0  0  0  0  0  0  0  0  0
    0.6262    0.9602   -2.0620 H   0  0  0  0  0  0  0  0  0  0  0  0
    0.3278    0.9229   -0.3161 H   0  0  0  0  0  0  0  0  0  0  0  0
    4.2467    5.8657    0.8804 H   0  0  0  0  0  0  0  0  0  0  0  0
    5.7562    5.1542    1.4616 H   0  0  0  0  0  0  0  0  0  0  0  0
    5.0867    6.5863    2.2505 H   0  0  0  0  0  0  0  0  0  0  0  0
    2.0806    5.6676    2.3661 H   0  0  0  0  0  0  0  0  0  0  0  0
    2.9572    6.3837    3.7119 H   0  0  0  0  0  0  0  0  0  0  0  0
    2.1718    4.8117    3.9087 H   0  0  0  0  0  0  0  0  0  0  0  0
    5.1932    6.3976    4.7793 H   0  0  0  0  0  0  0  0  0  0  0  0
    6.7871    6.4412    7.0885 H   0  0  0  0  0  0  0  0  0  0  0  0
    8.0921    2.4600    8.1765 H   0  0  0  0  0  0  0  0  0  0  0  0
    6.8763    1.5096    6.2429 H   0  0  0  0  0  0  0  0  0  0  0  0
  1  2  1  0  0  0  0
  1 35  1  0  0  0  0
  1 36  1  0  0  0  0
  1 37  1  0  0  0  0
  2  3  1  0  0  0  0
  2 38  1  0  0  0  0
  2 39  1  0  0  0  0
  3  4  1  0  0  0  0
  3  8  2  0  0  0  0
  4  5  2  0  0  0  0
  4 40  1  0  0  0  0
  5  6  1  0  0  0  0
  5 33  1  0  0  0  0
  6  7  2  0  0  0  0
  6 19  1  0  0  0  0
  7  8  1  0  0  0  0
  7 41  1  0  0  0  0
  8  9  1  0  0  0  0
  9 10  1  0  0  0  0
  9 18  1  0  0  0  0
 10 11  1  0  0  0  0
 10 42  1  0  0  0  0
 10 43  1  0  0  0  0
 11 12  1  0  0  0  0
 11 44  1  0  0  0  0
 11 45  1  0  0  0  0
 12 13  1  0  0  0  0
 12 17  1  0  0  0  0
 13 14  1  0  0  0  0
 13 16  1  0  0  0  0
 13 46  1  0  0  0  0
 14 15  1  0  0  0  0
 14 47  1  0  0  0  0
 14 48  1  0  0  0  0
 15 16  1  0  0  0  0
 15 49  1  0  0  0  0
 15 50  1  0  0  0  0
 16 51  1  0  0  0  0
 16 52  1  0  0  0  0
 17 18  1  0  0  0  0
 17 53  1  0  0  0  0
 17 54  1  0  0  0  0
 18 55  1  0  0  0  0
 18 56  1  0  0  0  0
 19 20  1  0  0  0  0
 19 21  1  0  0  0  0
 19 22  1  0  0  0  0
 20 57  1  0  0  0  0
 20 58  1  0  0  0  0
 20 59  1  0  0  0  0
 21 60  1  0  0  0  0
 21 61  1  0  0  0  0
 21 62  1  0  0  0  0
 22 23  1  0  0  0  0
 22 32  2  0  0  0  0
 23 24  1  0  0  0  0
 23 63  1  0  0  0  0
 24 25  1  0  0  0  0
 24 31  2  0  0  0  0
 25 26  2  0  0  0  0
 25 64  1  0  0  0  0
 26 27  1  0  0  0  0
 26 29  1  0  0  0  0
 27 28  3  0  0  0  0
 29 30  2  0  0  0  0
 29 65  1  0  0  0  0
 30 31  1  0  0  0  0
 30 66  1  0  0  0  0
 31 32  1  0  0  0  0
 32 33  1  0  0  0  0
 33 34  2  0  0  0  0
M  END
$$$$
