CHEMBL194366
 OpenBabel04072215363D

 48 51  0  0  0  0  0  0  0  0999 V2000
    1.9369    0.7850   -1.0650 C   0  0  0  0  0  0  0  0  0  0  0  0
    2.5422    0.2167    0.0907 O   0  0  0  0  0  0  0  0  0  0  0  0
    3.1156   -1.0260   -0.0428 C   0  0  0  0  0  0  0  0  0  0  0  0
    2.6995   -1.9337   -1.0215 C   0  0  0  0  0  0  0  0  0  0  0  0
    3.2672   -3.2038   -1.1447 C   0  0  0  0  0  0  0  0  0  0  0  0
    2.8040   -4.1564   -2.0851 N   0  0  0  0  0  0  0  0  0  0  0  0
    1.5910   -4.0800   -2.7585 C   0  0  0  0  0  0  0  0  0  0  0  0
    0.7918   -3.1573   -2.6643 O   0  0  0  0  0  0  0  0  0  0  0  0
    1.3354   -5.2187   -3.5089 N   0  0  0  0  0  0  0  0  0  0  0  0
    0.1311   -5.3348   -4.2471 C   0  0  0  0  0  0  0  0  0  0  0  0
   -0.5868   -6.5277   -4.1872 C   0  0  0  0  0  0  0  0  0  0  0  0
   -1.8305   -6.6299   -4.8143 C   0  0  0  0  0  0  0  0  0  0  0  0
   -2.3420   -5.5569   -5.5462 C   0  0  0  0  0  0  0  0  0  0  0  0
   -1.6138   -4.3670   -5.6518 C   0  0  0  0  0  0  0  0  0  0  0  0
   -2.1398   -3.2055   -6.4385 C   0  0  0  0  0  0  0  0  0  0  0  0
   -0.3807   -4.2632   -4.9978 C   0  0  0  0  0  0  0  0  0  0  0  0
    4.3039   -3.5514   -0.2785 C   0  0  0  0  0  0  0  0  0  0  0  0
    4.6935   -2.6733    0.7471 C   0  0  0  0  0  0  0  0  0  0  0  0
    4.1170   -1.3979    0.8779 C   0  0  0  0  0  0  0  0  0  0  0  0
    4.5646   -0.4746    1.9385 C   0  0  0  0  0  0  0  0  0  0  0  0
    3.6172    0.2174    2.6803 C   0  0  0  0  0  0  0  0  0  0  0  0
    4.2928    1.3505    3.7540 S   0  0  0  0  0  0  0  0  0  0  0  0
    5.8688    0.8854    3.3244 C   0  0  0  0  0  0  0  0  0  0  0  0
    6.9110    1.4908    3.9172 N   0  0  0  0  0  0  0  0  0  0  0  0
    8.0796    1.0090    3.5034 C   0  0  0  0  0  0  0  0  0  0  0  0
    8.2842    0.0396    2.6033 N   0  0  0  0  0  0  0  0  0  0  0  0
    7.2179   -0.5322    2.0125 C   0  0  0  0  0  0  0  0  0  0  0  0
    7.5300   -1.5130    1.0773 N   0  0  0  0  0  0  0  0  0  0  0  0
    5.9137   -0.1182    2.3611 C   0  0  0  0  0  0  0  0  0  0  0  0
    1.6082    1.7946   -0.8020 H   0  0  0  0  0  0  0  0  0  0  0  0
    1.0452    0.2326   -1.3788 H   0  0  0  0  0  0  0  0  0  0  0  0
    2.6638    0.8647   -1.8792 H   0  0  0  0  0  0  0  0  0  0  0  0
    1.9088   -1.6370   -1.6936 H   0  0  0  0  0  0  0  0  0  0  0  0
    3.3479   -4.9974   -2.1997 H   0  0  0  0  0  0  0  0  0  0  0  0
    1.6981   -6.0769   -3.1261 H   0  0  0  0  0  0  0  0  0  0  0  0
   -0.2276   -7.3606   -3.5903 H   0  0  0  0  0  0  0  0  0  0  0  0
   -2.4151   -7.5375   -4.7043 H   0  0  0  0  0  0  0  0  0  0  0  0
   -3.3149   -5.6527   -6.0209 H   0  0  0  0  0  0  0  0  0  0  0  0
   -3.1483   -3.4009   -6.8202 H   0  0  0  0  0  0  0  0  0  0  0  0
   -1.4863   -3.0088   -7.2984 H   0  0  0  0  0  0  0  0  0  0  0  0
   -2.1887   -2.3091   -5.8134 H   0  0  0  0  0  0  0  0  0  0  0  0
    0.1821   -3.3332   -5.0690 H   0  0  0  0  0  0  0  0  0  0  0  0
    4.7931   -4.5195   -0.3498 H   0  0  0  0  0  0  0  0  0  0  0  0
    5.4526   -3.0078    1.4522 H   0  0  0  0  0  0  0  0  0  0  0  0
    2.5389    0.1528    2.6087 H   0  0  0  0  0  0  0  0  0  0  0  0
    8.9668    1.4535    3.9425 H   0  0  0  0  0  0  0  0  0  0  0  0
    8.5268   -1.4840    0.8886 H   0  0  0  0  0  0  0  0  0  0  0  0
    6.9403   -1.4850    0.2555 H   0  0  0  0  0  0  0  0  0  0  0  0
  1  2  1  0  0  0  0
  1 30  1  0  0  0  0
  1 31  1  0  0  0  0
  1 32  1  0  0  0  0
  2  3  1  0  0  0  0
  3  4  1  0  0  0  0
  3 19  2  0  0  0  0
  4  5  2  0  0  0  0
  4 33  1  0  0  0  0
  5  6  1  0  0  0  0
  5 17  1  0  0  0  0
  6  7  1  0  0  0  0
  6 34  1  0  0  0  0
  7  8  2  0  0  0  0
  7  9  1  0  0  0  0
  9 10  1  0  0  0  0
  9 35  1  0  0  0  0
 10 11  1  0  0  0  0
 10 16  2  0  0  0  0
 11 12  2  0  0  0  0
 11 36  1  0  0  0  0
 12 13  1  0  0  0  0
 12 37  1  0  0  0  0
 13 14  2  0  0  0  0
 13 38  1  0  0  0  0
 14 15  1  0  0  0  0
 14 16  1  0  0  0  0
 15 39  1  0  0  0  0
 15 40  1  0  0  0  0
 15 41  1  0  0  0  0
 16 42  1  0  0  0  0
 17 18  2  0  0  0  0
 17 43  1  0  0  0  0
 18 19  1  0  0  0  0
 18 44  1  0  0  0  0
 19 20  1  0  0  0  0
 20 21  2  0  0  0  0
 20 29  1  0  0  0  0
 21 22  1  0  0  0  0
 21 45  1  0  0  0  0
 22 23  1  0  0  0  0
 23 24  1  0  0  0  0
 23 29  2  0  0  0  0
 24 25  2  0  0  0  0
 25 26  1  0  0  0  0
 25 46  1  0  0  0  0
 26 27  2  0  0  0  0
 27 28  1  0  0  0  0
 27 29  1  0  0  0  0
 28 47  1  0  0  0  0
 28 48  1  0  0  0  0
M  END
$$$$
