CHEMBL194149
 OpenBabel04072215363D

 55 59  0  0  0  0  0  0  0  0999 V2000
    2.0015    0.8216   -0.0792 C   0  0  0  0  0  0  0  0  0  0  0  0
    3.0526    0.0108   -0.5950 O   0  0  0  0  0  0  0  0  0  0  0  0
    3.5649   -0.9453    0.2355 C   0  0  0  0  0  0  0  0  0  0  0  0
    3.1622   -1.1896    1.5428 C   0  0  0  0  0  0  0  0  0  0  0  0
    3.7500   -2.2217    2.2803 C   0  0  0  0  0  0  0  0  0  0  0  0
    4.8429   -2.9579    1.7756 C   0  0  0  0  0  0  0  0  0  0  0  0
    5.6221   -3.8588    2.6288 C   0  0  0  0  0  0  0  0  0  0  0  0
    6.1652   -4.9480    2.0176 O   0  0  0  0  0  0  0  0  0  0  0  0
    6.8243   -5.6767    2.9577 C   0  0  0  0  0  0  0  0  0  0  0  0
    7.4502   -6.8282    2.6723 N   0  0  0  0  0  0  0  0  0  0  0  0
    8.0231   -7.3588    3.7527 C   0  0  0  0  0  0  0  0  0  0  0  0
    8.0380   -6.8631    4.9982 N   0  0  0  0  0  0  0  0  0  0  0  0
    7.4326   -5.6832    5.2481 C   0  0  0  0  0  0  0  0  0  0  0  0
    7.5214   -5.2158    6.5499 N   0  0  0  0  0  0  0  0  0  0  0  0
    6.7612   -5.0487    4.1930 C   0  0  0  0  0  0  0  0  0  0  0  0
    5.9586   -3.8854    3.9787 C   0  0  0  0  0  0  0  0  0  0  0  0
    5.5266   -2.8760    4.9443 C   0  0  0  0  0  0  0  0  0  0  0  0
    5.6053   -1.5177    4.6366 C   0  0  0  0  0  0  0  0  0  0  0  0
    4.9752   -0.5776    5.4480 C   0  0  0  0  0  0  0  0  0  0  0  0
    4.3482   -0.9534    6.6387 C   0  0  0  0  0  0  0  0  0  0  0  0
    3.6869   -0.0343    7.4803 N   0  0  0  0  0  0  0  0  0  0  0  0
    3.4294    1.2860    7.1669 C   0  0  0  0  0  0  0  0  0  0  0  0
    3.6715    1.8135    6.0831 O   0  0  0  0  0  0  0  0  0  0  0  0
    2.8802    1.9817    8.2350 N   0  0  0  0  0  0  0  0  0  0  0  0
    2.6522    3.3693    8.0801 C   0  0  0  0  0  0  0  0  0  0  0  0
    1.9240    3.8632    6.9909 C   0  0  0  0  0  0  0  0  0  0  0  0
    1.8097    5.2371    6.7878 C   0  0  0  0  0  0  0  0  0  0  0  0
    2.4306    6.1194    7.6692 C   0  0  0  0  0  0  0  0  0  0  0  0
    3.1456    5.6283    8.7631 C   0  0  0  0  0  0  0  0  0  0  0  0
    3.2385    4.2530    8.9841 C   0  0  0  0  0  0  0  0  0  0  0  0
    4.3654   -2.2997    7.0071 C   0  0  0  0  0  0  0  0  0  0  0  0
    4.9076   -3.2578    6.1438 C   0  0  0  0  0  0  0  0  0  0  0  0
    5.2304   -2.7156    0.4505 C   0  0  0  0  0  0  0  0  0  0  0  0
    4.5810   -1.7315   -0.3155 C   0  0  0  0  0  0  0  0  0  0  0  0
    1.6164    1.4326   -0.9016 H   0  0  0  0  0  0  0  0  0  0  0  0
    2.3757    1.4985    0.6961 H   0  0  0  0  0  0  0  0  0  0  0  0
    1.1682    0.2168    0.2940 H   0  0  0  0  0  0  0  0  0  0  0  0
    2.3984   -0.5969    2.0332 H   0  0  0  0  0  0  0  0  0  0  0  0
    3.4059   -2.3833    3.2916 H   0  0  0  0  0  0  0  0  0  0  0  0
    8.5348   -8.3101    3.6141 H   0  0  0  0  0  0  0  0  0  0  0  0
    7.8023   -5.9372    7.2001 H   0  0  0  0  0  0  0  0  0  0  0  0
    6.9058   -4.4942    6.8617 H   0  0  0  0  0  0  0  0  0  0  0  0
    6.0615   -1.1720    3.7113 H   0  0  0  0  0  0  0  0  0  0  0  0
    4.9748    0.4425    5.0812 H   0  0  0  0  0  0  0  0  0  0  0  0
    3.2402   -0.3977    8.3077 H   0  0  0  0  0  0  0  0  0  0  0  0
    3.2368    1.6903    9.1332 H   0  0  0  0  0  0  0  0  0  0  0  0
    1.4671    3.1812    6.2765 H   0  0  0  0  0  0  0  0  0  0  0  0
    1.2612    5.6137    5.9286 H   0  0  0  0  0  0  0  0  0  0  0  0
    2.3708    7.1901    7.4936 H   0  0  0  0  0  0  0  0  0  0  0  0
    3.6562    6.3189    9.4285 H   0  0  0  0  0  0  0  0  0  0  0  0
    3.8403    3.8879    9.8105 H   0  0  0  0  0  0  0  0  0  0  0  0
    3.9152   -2.6341    7.9384 H   0  0  0  0  0  0  0  0  0  0  0  0
    4.8136   -4.3101    6.4029 H   0  0  0  0  0  0  0  0  0  0  0  0
    6.0363   -3.2854   -0.0043 H   0  0  0  0  0  0  0  0  0  0  0  0
    4.8966   -1.5544   -1.3391 H   0  0  0  0  0  0  0  0  0  0  0  0
  1  2  1  0  0  0  0
  1 35  1  0  0  0  0
  1 36  1  0  0  0  0
  1 37  1  0  0  0  0
  2  3  1  0  0  0  0
  3  4  1  0  0  0  0
  3 34  2  0  0  0  0
  4  5  2  0  0  0  0
  4 38  1  0  0  0  0
  5  6  1  0  0  0  0
  5 39  1  0  0  0  0
  6  7  1  0  0  0  0
  6 33  2  0  0  0  0
  7  8  1  0  0  0  0
  7 16  2  0  0  0  0
  8  9  1  0  0  0  0
  9 10  1  0  0  0  0
  9 15  2  0  0  0  0
 10 11  2  0  0  0  0
 11 12  1  0  0  0  0
 11 40  1  0  0  0  0
 12 13  2  0  0  0  0
 13 14  1  0  0  0  0
 13 15  1  0  0  0  0
 14 41  1  0  0  0  0
 14 42  1  0  0  0  0
 15 16  1  0  0  0  0
 16 17  1  0  0  0  0
 17 18  1  0  0  0  0
 17 32  2  0  0  0  0
 18 19  2  0  0  0  0
 18 43  1  0  0  0  0
 19 20  1  0  0  0  0
 19 44  1  0  0  0  0
 20 21  1  0  0  0  0
 20 31  2  0  0  0  0
 21 22  1  0  0  0  0
 21 45  1  0  0  0  0
 22 23  2  0  0  0  0
 22 24  1  0  0  0  0
 24 25  1  0  0  0  0
 24 46  1  0  0  0  0
 25 26  1  0  0  0  0
 25 30  2  0  0  0  0
 26 27  2  0  0  0  0
 26 47  1  0  0  0  0
 27 28  1  0  0  0  0
 27 48  1  0  0  0  0
 28 29  2  0  0  0  0
 28 49  1  0  0  0  0
 29 30  1  0  0  0  0
 29 50  1  0  0  0  0
 30 51  1  0  0  0  0
 31 32  1  0  0  0  0
 31 52  1  0  0  0  0
 32 53  1  0  0  0  0
 33 34  1  0  0  0  0
 33 54  1  0  0  0  0
 34 55  1  0  0  0  0
M  END
$$$$
