CHEMBL190239
 OpenBabel04072215363D

 46 47  0  0  1  0  0  0  0  0999 V2000
    0.9745   -0.0445    0.0011 C   0  0  0  0  0  0  0  0  0  0  0  0
    2.4940   -0.0384    0.0125 C   0  0  0  0  0  0  0  0  0  0  0  0
    3.0354    0.9999    0.9919 C   0  0  0  0  0  0  0  0  0  0  0  0
    4.5634    1.0090    1.0004 C   0  0  0  0  0  0  0  0  0  0  0  0
    5.0944    2.0501    1.9801 C   0  0  0  0  0  0  0  0  0  0  0  0
    6.6233    2.0728    1.9969 C   0  0  0  0  0  0  0  0  0  0  0  0
    7.1301    3.1216    2.9863 C   0  0  0  0  0  0  0  0  0  0  0  0
    8.6589    3.1710    3.0162 C   0  0  0  0  0  0  0  0  0  0  0  0
    9.1692    4.1943    4.0404 C   0  0  3  0  0  0  0  0  0  0  0  0
    8.7285    3.7961    5.3452 O   0  0  0  0  0  0  0  0  0  0  0  0
   10.6962    4.2832    3.9954 C   0  0  0  0  0  0  0  0  0  0  0  0
   11.2199    5.2244    4.9688 N   0  0  0  0  0  0  0  0  0  0  0  0
   11.5300    4.9277    6.2701 C   0  0  0  0  0  0  0  0  0  0  0  0
   12.0518    6.0881    6.7703 C   0  0  0  0  0  0  0  0  0  0  0  0
   12.5484    6.3256    8.0460 C   0  0  0  0  0  0  0  0  0  0  0  0
   12.6497    5.4118    9.0758 N   0  0  0  0  0  0  0  0  0  0  0  0
   12.9904    7.5954    8.2173 N   0  0  0  0  0  0  0  0  0  0  0  0
   12.9235    8.4701    7.1555 C   0  0  0  0  0  0  0  0  0  0  0  0
   12.4657    8.2974    5.8855 N   0  0  0  0  0  0  0  0  0  0  0  0
   12.0125    7.0351    5.7153 C   0  0  0  0  0  0  0  0  0  0  0  0
   11.5069    6.4933    4.6017 N   0  0  0  0  0  0  0  0  0  0  0  0
    0.6033   -0.7925   -0.7059 H   0  0  0  0  0  0  0  0  0  0  0  0
    0.5815    0.9327   -0.2977 H   0  0  0  0  0  0  0  0  0  0  0  0
    0.5770   -0.2861    0.9921 H   0  0  0  0  0  0  0  0  0  0  0  0
    2.8625    0.1749   -0.9978 H   0  0  0  0  0  0  0  0  0  0  0  0
    2.8578   -1.0352    0.2875 H   0  0  0  0  0  0  0  0  0  0  0  0
    2.6631    0.7838    2.0009 H   0  0  0  0  0  0  0  0  0  0  0  0
    2.6637    1.9947    0.7172 H   0  0  0  0  0  0  0  0  0  0  0  0
    4.9377    1.2271   -0.0071 H   0  0  0  0  0  0  0  0  0  0  0  0
    4.9375    0.0161    1.2778 H   0  0  0  0  0  0  0  0  0  0  0  0
    4.7208    1.8299    2.9897 H   0  0  0  0  0  0  0  0  0  0  0  0
    4.7155    3.0425    1.7076 H   0  0  0  0  0  0  0  0  0  0  0  0
    7.0003    2.2972    0.9926 H   0  0  0  0  0  0  0  0  0  0  0  0
    7.0064    1.0844    2.2765 H   0  0  0  0  0  0  0  0  0  0  0  0
    6.7417    2.8886    3.9851 H   0  0  0  0  0  0  0  0  0  0  0  0
    6.7403    4.1088    2.7108 H   0  0  0  0  0  0  0  0  0  0  0  0
    9.0396    3.4161    2.0176 H   0  0  0  0  0  0  0  0  0  0  0  0
    9.0363    2.1731    3.2758 H   0  0  0  0  0  0  0  0  0  0  0  0
    8.7325    5.1787    3.8356 H   0  0  0  0  0  0  0  0  0  0  0  0
    8.9534    2.8604    5.4811 H   0  0  0  0  0  0  0  0  0  0  0  0
   11.0478    4.5931    3.0039 H   0  0  0  0  0  0  0  0  0  0  0  0
   11.1485    3.3128    4.2281 H   0  0  0  0  0  0  0  0  0  0  0  0
   11.3464    3.9536    6.6968 H   0  0  0  0  0  0  0  0  0  0  0  0
   12.0474    4.6031    9.0363 H   0  0  0  0  0  0  0  0  0  0  0  0
   12.8130    5.8387    9.9782 H   0  0  0  0  0  0  0  0  0  0  0  0
   13.3059    9.4663    7.3714 H   0  0  0  0  0  0  0  0  0  0  0  0
  1  2  1  0  0  0  0
  1 22  1  0  0  0  0
  1 23  1  0  0  0  0
  1 24  1  0  0  0  0
  2  3  1  0  0  0  0
  2 25  1  0  0  0  0
  2 26  1  0  0  0  0
  3  4  1  0  0  0  0
  3 27  1  0  0  0  0
  3 28  1  0  0  0  0
  4  5  1  0  0  0  0
  4 29  1  0  0  0  0
  4 30  1  0  0  0  0
  5  6  1  0  0  0  0
  5 31  1  0  0  0  0
  5 32  1  0  0  0  0
  6  7  1  0  0  0  0
  6 33  1  0  0  0  0
  6 34  1  0  0  0  0
  7  8  1  0  0  0  0
  7 35  1  0  0  0  0
  7 36  1  0  0  0  0
  8  9  1  0  0  0  0
  8 37  1  0  0  0  0
  8 38  1  0  0  0  0
  9 10  1  0  0  0  0
  9 11  1  0  0  0  0
  9 39  1  0  0  0  0
 10 40  1  0  0  0  0
 11 12  1  0  0  0  0
 11 41  1  0  0  0  0
 11 42  1  0  0  0  0
 12 13  1  0  0  0  0
 12 21  1  0  0  0  0
 13 14  2  0  0  0  0
 13 43  1  0  0  0  0
 14 15  1  0  0  0  0
 14 20  1  0  0  0  0
 15 16  1  0  0  0  0
 15 17  2  0  0  0  0
 16 44  1  0  0  0  0
 16 45  1  0  0  0  0
 17 18  1  0  0  0  0
 18 19  2  0  0  0  0
 18 46  1  0  0  0  0
 19 20  1  0  0  0  0
 20 21  2  0  0  0  0
M  END
$$$$
