CHEMBL3983115
 OpenBabel04072215373D

 70 74  0  0  0  0  0  0  0  0999 V2000
    6.1990    2.6888   -1.3864 C   0  0  0  0  0  0  0  0  0  0  0  0
    6.5458    1.9407   -0.2280 O   0  0  0  0  0  0  0  0  0  0  0  0
    5.3933    1.6196    0.5571 C   0  0  0  0  0  0  0  0  0  0  0  0
    5.8133    0.7420    1.7355 C   0  0  0  0  0  0  0  0  0  0  0  0
    6.7009    1.4249    2.6599 N   0  0  0  0  0  0  0  0  0  0  0  0
    7.2990    0.7495    3.7003 C   0  0  0  0  0  0  0  0  0  0  0  0
    6.9925   -0.4085    3.9889 O   0  0  0  0  0  0  0  0  0  0  0  0
    8.2876    1.5240    4.5471 C   0  0  0  0  0  0  0  0  0  0  0  0
    9.1033    2.4475    3.7815 N   0  0  0  0  0  0  0  0  0  0  0  0
   10.3375    2.2148    3.2473 C   0  0  0  0  0  0  0  0  0  0  0  0
   10.6953    3.3661    2.5720 C   0  0  0  0  0  0  0  0  0  0  0  0
   11.8934    3.5166    1.7712 C   0  0  0  0  0  0  0  0  0  0  0  0
   11.9410    4.4007    0.7045 C   0  0  0  0  0  0  0  0  0  0  0  0
   12.9925    4.4717   -0.1456 N   0  0  0  0  0  0  0  0  0  0  0  0
   13.9799    3.5838    0.0667 C   0  0  0  0  0  0  0  0  0  0  0  0
   15.0234    3.5003   -0.8373 C   0  0  0  0  0  0  0  0  0  0  0  0
   15.9739    2.4823   -0.7381 C   0  0  0  0  0  0  0  0  0  0  0  0
   15.9180    1.5268    0.2867 C   0  0  0  0  0  0  0  0  0  0  0  0
   16.7445    0.3650    0.2516 N   0  0  0  0  0  0  0  0  0  0  0  0
   17.2299   -0.1152    1.5669 C   0  0  0  0  0  0  0  0  0  0  0  0
   16.4753   -1.2570    2.2067 C   0  0  0  0  0  0  0  0  0  0  0  0
   16.0688   -2.5233    1.4880 C   0  0  0  0  0  0  0  0  0  0  0  0
   15.0152   -1.5685    1.9713 C   0  0  0  0  0  0  0  0  0  0  0  0
   17.2081   -0.2711   -0.9341 C   0  0  0  0  0  0  0  0  0  0  0  0
   18.4271   -0.9557   -0.9956 C   0  0  0  0  0  0  0  0  0  0  0  0
   18.8989   -1.5526   -2.1782 C   0  0  0  0  0  0  0  0  0  0  0  0
   20.0855   -2.2277   -2.2994 O   0  0  0  0  0  0  0  0  0  0  0  0
   20.8332   -2.4085   -1.0998 C   0  0  0  0  0  0  0  0  0  0  0  0
   18.1533   -1.4478   -3.3486 C   0  0  0  0  0  0  0  0  0  0  0  0
   16.9267   -0.7953   -3.3268 C   0  0  0  0  0  0  0  0  0  0  0  0
   16.1126   -0.6155   -4.4155 O   0  0  0  0  0  0  0  0  0  0  0  0
   16.2314   -1.5987   -5.4387 C   0  0  0  0  0  0  0  0  0  0  0  0
   16.4680   -0.2225   -2.1287 C   0  0  0  0  0  0  0  0  0  0  0  0
   14.9553    1.7368    1.2866 C   0  0  0  0  0  0  0  0  0  0  0  0
   13.9524    2.6908    1.1611 C   0  0  0  0  0  0  0  0  0  0  0  0
   12.9241    2.6796    2.0358 N   0  0  0  0  0  0  0  0  0  0  0  0
    9.6020    4.2362    2.7805 C   0  0  0  0  0  0  0  0  0  0  0  0
    8.6276    3.6807    3.5024 N   0  0  0  0  0  0  0  0  0  0  0  0
    7.1129    2.8967   -1.9493 H   0  0  0  0  0  0  0  0  0  0  0  0
    5.7381    3.6401   -1.1024 H   0  0  0  0  0  0  0  0  0  0  0  0
    5.5194    2.1162   -2.0250 H   0  0  0  0  0  0  0  0  0  0  0  0
    4.6741    1.0714   -0.0619 H   0  0  0  0  0  0  0  0  0  0  0  0
    4.9291    2.5463    0.9133 H   0  0  0  0  0  0  0  0  0  0  0  0
    6.3356   -0.1517    1.3753 H   0  0  0  0  0  0  0  0  0  0  0  0
    4.9317    0.4207    2.3007 H   0  0  0  0  0  0  0  0  0  0  0  0
    7.0724    2.3353    2.3879 H   0  0  0  0  0  0  0  0  0  0  0  0
    8.9666    0.8203    5.0403 H   0  0  0  0  0  0  0  0  0  0  0  0
    7.7484    2.0930    5.3113 H   0  0  0  0  0  0  0  0  0  0  0  0
   10.8403    1.2623    3.3546 H   0  0  0  0  0  0  0  0  0  0  0  0
   11.1128    5.0530    0.4556 H   0  0  0  0  0  0  0  0  0  0  0  0
   15.0609    4.1887   -1.6765 H   0  0  0  0  0  0  0  0  0  0  0  0
   16.7419    2.4210   -1.5076 H   0  0  0  0  0  0  0  0  0  0  0  0
   17.2468    0.7180    2.2834 H   0  0  0  0  0  0  0  0  0  0  0  0
   18.2831   -0.4045    1.5346 H   0  0  0  0  0  0  0  0  0  0  0  0
   16.8451   -1.3980    3.2201 H   0  0  0  0  0  0  0  0  0  0  0  0
   16.1643   -3.4652    2.0166 H   0  0  0  0  0  0  0  0  0  0  0  0
   16.1991   -2.6075    0.4157 H   0  0  0  0  0  0  0  0  0  0  0  0
   14.4222   -1.8448    2.8375 H   0  0  0  0  0  0  0  0  0  0  0  0
   14.4544   -1.0425    1.2091 H   0  0  0  0  0  0  0  0  0  0  0  0
   19.0534   -1.0129   -0.1216 H   0  0  0  0  0  0  0  0  0  0  0  0
   21.7160   -3.0130   -1.3395 H   0  0  0  0  0  0  0  0  0  0  0  0
   20.2533   -2.9522   -0.3482 H   0  0  0  0  0  0  0  0  0  0  0  0
   21.1845   -1.4475   -0.7114 H   0  0  0  0  0  0  0  0  0  0  0  0
   18.5573   -1.8735   -4.2581 H   0  0  0  0  0  0  0  0  0  0  0  0
   15.4139   -1.4430   -6.1493 H   0  0  0  0  0  0  0  0  0  0  0  0
   16.1290   -2.6088   -5.0270 H   0  0  0  0  0  0  0  0  0  0  0  0
   17.1716   -1.4911   -5.9890 H   0  0  0  0  0  0  0  0  0  0  0  0
   15.4953    0.2674   -2.1549 H   0  0  0  0  0  0  0  0  0  0  0  0
   14.8952    1.0823    2.1487 H   0  0  0  0  0  0  0  0  0  0  0  0
    9.4681    5.2499    2.4239 H   0  0  0  0  0  0  0  0  0  0  0  0
  1  2  1  0  0  0  0
  1 39  1  0  0  0  0
  1 40  1  0  0  0  0
  1 41  1  0  0  0  0
  2  3  1  0  0  0  0
  3  4  1  0  0  0  0
  3 42  1  0  0  0  0
  3 43  1  0  0  0  0
  4  5  1  0  0  0  0
  4 44  1  0  0  0  0
  4 45  1  0  0  0  0
  5  6  1  0  0  0  0
  5 46  1  0  0  0  0
  6  7  2  0  0  0  0
  6  8  1  0  0  0  0
  8  9  1  0  0  0  0
  8 47  1  0  0  0  0
  8 48  1  0  0  0  0
  9 10  1  0  0  0  0
  9 38  1  0  0  0  0
 10 11  2  0  0  0  0
 10 49  1  0  0  0  0
 11 12  1  0  0  0  0
 11 37  1  0  0  0  0
 12 13  1  0  0  0  0
 12 36  2  0  0  0  0
 13 14  2  0  0  0  0
 13 50  1  0  0  0  0
 14 15  1  0  0  0  0
 15 16  1  0  0  0  0
 15 35  2  0  0  0  0
 16 17  2  0  0  0  0
 16 51  1  0  0  0  0
 17 18  1  0  0  0  0
 17 52  1  0  0  0  0
 18 19  1  0  0  0  0
 18 34  2  0  0  0  0
 19 20  1  0  0  0  0
 19 24  1  0  0  0  0
 20 21  1  0  0  0  0
 20 53  1  0  0  0  0
 20 54  1  0  0  0  0
 21 22  1  0  0  0  0
 21 23  1  0  0  0  0
 21 55  1  0  0  0  0
 22 23  1  0  0  0  0
 22 56  1  0  0  0  0
 22 57  1  0  0  0  0
 23 58  1  0  0  0  0
 23 59  1  0  0  0  0
 24 25  1  0  0  0  0
 24 33  2  0  0  0  0
 25 26  2  0  0  0  0
 25 60  1  0  0  0  0
 26 27  1  0  0  0  0
 26 29  1  0  0  0  0
 27 28  1  0  0  0  0
 28 61  1  0  0  0  0
 28 62  1  0  0  0  0
 28 63  1  0  0  0  0
 29 30  2  0  0  0  0
 29 64  1  0  0  0  0
 30 31  1  0  0  0  0
 30 33  1  0  0  0  0
 31 32  1  0  0  0  0
 32 65  1  0  0  0  0
 32 66  1  0  0  0  0
 32 67  1  0  0  0  0
 33 68  1  0  0  0  0
 34 35  1  0  0  0  0
 34 69  1  0  0  0  0
 35 36  1  0  0  0  0
 37 38  2  0  0  0  0
 37 70  1  0  0  0  0
M  END
$$$$
