CHEMBL381206
 OpenBabel04072215373D

 65 68  0  0  0  0  0  0  0  0999 V2000
    6.4055    6.2040   -4.8356 C   0  0  0  0  0  0  0  0  0  0  0  0
    6.8112    5.4186   -3.7222 O   0  0  0  0  0  0  0  0  0  0  0  0
    5.8001    4.8967   -2.9650 C   0  0  0  0  0  0  0  0  0  0  0  0
    4.5225    4.5869   -3.4231 C   0  0  0  0  0  0  0  0  0  0  0  0
    3.5818    4.0408   -2.5443 C   0  0  0  0  0  0  0  0  0  0  0  0
    3.9242    3.7938   -1.2100 C   0  0  0  0  0  0  0  0  0  0  0  0
    2.7165    3.1384   -0.1591 Cl  0  0  0  0  0  0  0  0  0  0  0  0
    5.2128    4.0822   -0.7319 C   0  0  0  0  0  0  0  0  0  0  0  0
    5.6100    3.7780    0.5919 N   0  0  0  0  0  0  0  0  0  0  0  0
    6.4892    4.5368    1.3978 C   0  0  0  0  0  0  0  0  0  0  0  0
    6.6112    5.8467    1.0955 N   0  0  0  0  0  0  0  0  0  0  0  0
    7.4026    6.5800    1.8707 C   0  0  0  0  0  0  0  0  0  0  0  0
    8.0773    6.1365    2.9329 N   0  0  0  0  0  0  0  0  0  0  0  0
    7.9654    4.8373    3.2157 C   0  0  0  0  0  0  0  0  0  0  0  0
    8.6669    4.3948    4.3250 C   0  0  0  0  0  0  0  0  0  0  0  0
    8.6841    3.0571    4.7017 C   0  0  0  0  0  0  0  0  0  0  0  0
    9.3668    2.7695    5.8467 O   0  0  0  0  0  0  0  0  0  0  0  0
    9.9922    1.4837    5.9445 C   0  0  0  0  0  0  0  0  0  0  0  0
   11.4619    1.7054    6.2909 C   0  0  0  0  0  0  0  0  0  0  0  0
   12.1456    2.5075    5.1735 C   0  0  0  0  0  0  0  0  0  0  0  0
   13.5824    2.7488    5.3729 N   0  0  0  0  0  0  0  0  0  0  0  0
   13.8842    3.5064    6.6086 C   0  0  0  0  0  0  0  0  0  0  0  0
   13.4000    4.9643    6.5714 C   0  0  0  0  0  0  0  0  0  0  0  0
   13.9871    5.6680    5.4694 O   0  0  0  0  0  0  0  0  0  0  0  0
   13.6892    5.0184    4.2267 C   0  0  0  0  0  0  0  0  0  0  0  0
   14.1214    3.5346    4.2335 C   0  0  0  0  0  0  0  0  0  0  0  0
    7.9699    2.1364    3.9580 C   0  0  0  0  0  0  0  0  0  0  0  0
    7.1926    2.5532    2.8692 C   0  0  0  0  0  0  0  0  0  0  0  0
    6.4117    1.6751    2.1521 O   0  0  0  0  0  0  0  0  0  0  0  0
    6.0750    0.4127    2.7493 C   0  0  0  0  0  0  0  0  0  0  0  0
    5.1207    0.6182    3.9271 C   0  0  0  0  0  0  0  0  0  0  0  0
    5.3978   -0.4439    1.6831 C   0  0  0  0  0  0  0  0  0  0  0  0
    7.1840    3.9311    2.4730 C   0  0  0  0  0  0  0  0  0  0  0  0
    6.1386    4.6249   -1.6376 C   0  0  0  0  0  0  0  0  0  0  0  0
    7.2934    6.7100   -5.2269 H   0  0  0  0  0  0  0  0  0  0  0  0
    5.6848    6.9739   -4.5390 H   0  0  0  0  0  0  0  0  0  0  0  0
    6.0034    5.5730   -5.6339 H   0  0  0  0  0  0  0  0  0  0  0  0
    4.2393    4.7408   -4.4590 H   0  0  0  0  0  0  0  0  0  0  0  0
    2.5857    3.8039   -2.9092 H   0  0  0  0  0  0  0  0  0  0  0  0
    4.8673    3.3717    1.1530 H   0  0  0  0  0  0  0  0  0  0  0  0
    7.5048    7.6295    1.6218 H   0  0  0  0  0  0  0  0  0  0  0  0
    9.2311    5.1173    4.9111 H   0  0  0  0  0  0  0  0  0  0  0  0
    9.9368    0.8878    5.0283 H   0  0  0  0  0  0  0  0  0  0  0  0
    9.4952    0.9314    6.7485 H   0  0  0  0  0  0  0  0  0  0  0  0
   11.9605    0.7398    6.4313 H   0  0  0  0  0  0  0  0  0  0  0  0
   11.5089    2.2551    7.2373 H   0  0  0  0  0  0  0  0  0  0  0  0
   11.6101    3.4517    5.0338 H   0  0  0  0  0  0  0  0  0  0  0  0
   12.0193    1.9419    4.2400 H   0  0  0  0  0  0  0  0  0  0  0  0
   14.9755    3.5082    6.7289 H   0  0  0  0  0  0  0  0  0  0  0  0
   13.4976    2.9950    7.4955 H   0  0  0  0  0  0  0  0  0  0  0  0
   13.7061    5.4764    7.4892 H   0  0  0  0  0  0  0  0  0  0  0  0
   12.3077    5.0344    6.5103 H   0  0  0  0  0  0  0  0  0  0  0  0
   14.2317    5.5530    3.4408 H   0  0  0  0  0  0  0  0  0  0  0  0
   12.6200    5.1315    4.0125 H   0  0  0  0  0  0  0  0  0  0  0  0
   15.2213    3.4947    4.2978 H   0  0  0  0  0  0  0  0  0  0  0  0
   13.8537    3.0648    3.2804 H   0  0  0  0  0  0  0  0  0  0  0  0
    7.9902    1.1009    4.2635 H   0  0  0  0  0  0  0  0  0  0  0  0
    6.9753   -0.1341    3.0516 H   0  0  0  0  0  0  0  0  0  0  0  0
    4.2369    1.1827    3.6101 H   0  0  0  0  0  0  0  0  0  0  0  0
    5.5832    1.1994    4.7311 H   0  0  0  0  0  0  0  0  0  0  0  0
    4.8027   -0.3384    4.3492 H   0  0  0  0  0  0  0  0  0  0  0  0
    4.4552    0.0044    1.3542 H   0  0  0  0  0  0  0  0  0  0  0  0
    5.1919   -1.4500    2.0654 H   0  0  0  0  0  0  0  0  0  0  0  0
    6.0355   -0.5350    0.7961 H   0  0  0  0  0  0  0  0  0  0  0  0
    7.1524    4.8414   -1.3068 H   0  0  0  0  0  0  0  0  0  0  0  0
  1  2  1  0  0  0  0
  1 35  1  0  0  0  0
  1 36  1  0  0  0  0
  1 37  1  0  0  0  0
  2  3  1  0  0  0  0
  3  4  1  0  0  0  0
  3 34  2  0  0  0  0
  4  5  2  0  0  0  0
  4 38  1  0  0  0  0
  5  6  1  0  0  0  0
  5 39  1  0  0  0  0
  6  7  1  0  0  0  0
  6  8  2  0  0  0  0
  8  9  1  0  0  0  0
  8 34  1  0  0  0  0
  9 10  1  0  0  0  0
  9 40  1  0  0  0  0
 10 11  1  0  0  0  0
 10 33  2  0  0  0  0
 11 12  2  0  0  0  0
 12 13  1  0  0  0  0
 12 41  1  0  0  0  0
 13 14  2  0  0  0  0
 14 15  1  0  0  0  0
 14 33  1  0  0  0  0
 15 16  2  0  0  0  0
 15 42  1  0  0  0  0
 16 17  1  0  0  0  0
 16 27  1  0  0  0  0
 17 18  1  0  0  0  0
 18 19  1  0  0  0  0
 18 43  1  0  0  0  0
 18 44  1  0  0  0  0
 19 20  1  0  0  0  0
 19 45  1  0  0  0  0
 19 46  1  0  0  0  0
 20 21  1  0  0  0  0
 20 47  1  0  0  0  0
 20 48  1  0  0  0  0
 21 22  1  0  0  0  0
 21 26  1  0  0  0  0
 22 23  1  0  0  0  0
 22 49  1  0  0  0  0
 22 50  1  0  0  0  0
 23 24  1  0  0  0  0
 23 51  1  0  0  0  0
 23 52  1  0  0  0  0
 24 25  1  0  0  0  0
 25 26  1  0  0  0  0
 25 53  1  0  0  0  0
 25 54  1  0  0  0  0
 26 55  1  0  0  0  0
 26 56  1  0  0  0  0
 27 28  2  0  0  0  0
 27 57  1  0  0  0  0
 28 29  1  0  0  0  0
 28 33  1  0  0  0  0
 29 30  1  0  0  0  0
 30 31  1  0  0  0  0
 30 32  1  0  0  0  0
 30 58  1  0  0  0  0
 31 59  1  0  0  0  0
 31 60  1  0  0  0  0
 31 61  1  0  0  0  0
 32 62  1  0  0  0  0
 32 63  1  0  0  0  0
 32 64  1  0  0  0  0
 34 65  1  0  0  0  0
M  END
$$$$
