CHEMBL2377476
 OpenBabel04072215363D

 25 27  0  0  0  0  0  0  0  0999 V2000
    2.5498   -0.0441    0.0292 C   0  0  0  0  0  0  0  0  0  0  0  0
    1.0507   -0.0099    0.0332 C   0  0  0  0  0  0  0  0  0  0  0  0
    0.3600    1.2054   -0.0515 C   0  0  0  0  0  0  0  0  0  0  0  0
   -1.0372    1.2257   -0.0622 C   0  0  0  0  0  0  0  0  0  0  0  0
   -1.7781    0.0272    0.0163 C   0  0  0  0  0  0  0  0  0  0  0  0
   -3.2725    0.0287   -0.0056 C   0  0  0  0  0  0  0  0  0  0  0  0
   -4.0569    1.1682   -0.1861 C   0  0  0  0  0  0  0  0  0  0  0  0
   -5.4015    0.8940   -0.1758 C   0  0  0  0  0  0  0  0  0  0  0  0
   -6.3773    1.8194   -0.3333 N   0  0  0  0  0  0  0  0  0  0  0  0
   -7.6582    1.4415   -0.3050 N   0  0  0  0  0  0  0  0  0  0  0  0
   -8.0000    0.1614   -0.1210 N   0  0  0  0  0  0  0  0  0  0  0  0
   -7.0542   -0.8026    0.0401 C   0  0  0  0  0  0  0  0  0  0  0  0
   -7.5413   -2.4709    0.2830 Cl  0  0  0  0  0  0  0  0  0  0  0  0
   -5.7148   -0.4262    0.0099 C   0  0  0  0  0  0  0  0  0  0  0  0
   -4.2722   -1.5053    0.1923 Se  0  0  0  0  0  0  0  0  0  0  0  0
   -1.0692   -1.1881    0.1121 C   0  0  0  0  0  0  0  0  0  0  0  0
    0.3278   -1.2049    0.1175 C   0  0  0  0  0  0  0  0  0  0  0  0
    2.9798    0.9778   -0.0390 H   0  0  0  0  0  0  0  0  0  0  0  0
    2.9029   -0.6317   -0.8444 H   0  0  0  0  0  0  0  0  0  0  0  0
    2.9174   -0.5207    0.9620 H   0  0  0  0  0  0  0  0  0  0  0  0
    0.9012    2.1414   -0.1140 H   0  0  0  0  0  0  0  0  0  0  0  0
   -1.5200    2.1881   -0.1309 H   0  0  0  0  0  0  0  0  0  0  0  0
   -3.6813    2.1708   -0.3287 H   0  0  0  0  0  0  0  0  0  0  0  0
   -1.5850   -2.1360    0.1750 H   0  0  0  0  0  0  0  0  0  0  0  0
    0.8470   -2.1532    0.1847 H   0  0  0  0  0  0  0  0  0  0  0  0
  1  2  1  0  0  0  0
  1 18  1  0  0  0  0
  1 19  1  0  0  0  0
  1 20  1  0  0  0  0
  2  3  1  0  0  0  0
  2 17  2  0  0  0  0
  3  4  2  0  0  0  0
  3 21  1  0  0  0  0
  4  5  1  0  0  0  0
  4 22  1  0  0  0  0
  5  6  1  0  0  0  0
  5 16  2  0  0  0  0
  6  7  2  0  0  0  0
  6 15  1  0  0  0  0
  7  8  1  0  0  0  0
  7 23  1  0  0  0  0
  8  9  1  0  0  0  0
  8 14  2  0  0  0  0
  9 10  2  0  0  0  0
 10 11  1  0  0  0  0
 11 12  2  0  0  0  0
 12 13  1  0  0  0  0
 12 14  1  0  0  0  0
 14 15  1  0  0  0  0
 16 17  1  0  0  0  0
 16 24  1  0  0  0  0
 17 25  1  0  0  0  0
M  END
$$$$
