CHEMBL2407900
 OpenBabel04072215363D

 65 70  0  0  0  0  0  0  0  0999 V2000
   -0.9877   -0.8842   -0.9550 C   0  0  0  0  0  0  0  0  0  0  0  0
    0.1822   -1.4308   -0.3489 O   0  0  0  0  0  0  0  0  0  0  0  0
    1.0785   -1.9953   -1.2181 C   0  0  0  0  0  0  0  0  0  0  0  0
    1.8449   -3.0521   -0.6910 C   0  0  0  0  0  0  0  0  0  0  0  0
    2.7748   -3.7330   -1.4823 C   0  0  0  0  0  0  0  0  0  0  0  0
    2.9234   -3.3104   -2.7860 C   0  0  0  0  0  0  0  0  0  0  0  0
    2.2115   -2.2259   -3.3114 C   0  0  0  0  0  0  0  0  0  0  0  0
    1.2785   -1.5629   -2.5326 C   0  0  0  0  0  0  0  0  0  0  0  0
    2.6671   -2.0797   -4.6979 C   0  0  0  0  0  0  0  0  0  0  0  0
    2.4186   -1.1517   -5.6358 C   0  0  0  0  0  0  0  0  0  0  0  0
    1.6107    0.0470   -5.4089 C   0  0  0  0  0  0  0  0  0  0  0  0
    2.2385    1.2019   -4.9269 C   0  0  0  0  0  0  0  0  0  0  0  0
    1.4942    2.3357   -4.5743 C   0  0  0  0  0  0  0  0  0  0  0  0
    0.0900    2.3000   -4.7039 C   0  0  0  0  0  0  0  0  0  0  0  0
   -1.0025    3.1777   -4.4134 C   0  0  0  0  0  0  0  0  0  0  0  0
   -0.8760    4.4808   -3.8285 C   0  0  0  0  0  0  0  0  0  0  0  0
   -1.9018    5.3081   -3.5610 C   0  0  0  0  0  0  0  0  0  0  0  0
   -1.7418    6.6441   -2.9765 C   0  0  0  0  0  0  0  0  0  0  0  0
   -0.5995    7.4097   -3.1803 C   0  0  0  0  0  0  0  0  0  0  0  0
   -0.5054    8.6666   -2.5998 C   0  0  0  0  0  0  0  0  0  0  0  0
   -1.5537    9.1769   -1.8333 C   0  0  0  0  0  0  0  0  0  0  0  0
   -1.4067   10.4482   -1.3145 N   0  0  0  0  0  0  0  0  0  0  0  0
   -2.5864   11.2435   -0.9740 C   0  0  0  0  0  0  0  0  0  0  0  0
   -2.1697   12.7397   -1.0632 C   0  0  0  0  0  0  0  0  0  0  0  0
   -1.0001   13.0796   -0.2072 N   0  0  0  0  0  0  0  0  0  0  0  0
   -0.5795   14.4604   -0.4343 C   0  0  0  0  0  0  0  0  0  0  0  0
    0.1235   12.1559   -0.4949 C   0  0  0  0  0  0  0  0  0  0  0  0
   -0.2873   10.6726   -0.3913 C   0  0  0  0  0  0  0  0  0  0  0  0
   -2.6956    8.4802   -1.6749 N   0  0  0  0  0  0  0  0  0  0  0  0
   -2.7610    7.2413   -2.2357 C   0  0  0  0  0  0  0  0  0  0  0  0
   -2.1745    2.6203   -4.7495 N   0  0  0  0  0  0  0  0  0  0  0  0
   -1.8389    1.4244   -5.2484 N   0  0  0  0  0  0  0  0  0  0  0  0
   -0.4998    1.1532   -5.2237 C   0  0  0  0  0  0  0  0  0  0  0  0
    0.2218    0.0129   -5.5958 C   0  0  0  0  0  0  0  0  0  0  0  0
    3.6451   -3.1936   -4.9624 C   0  0  0  0  0  0  0  0  0  0  0  0
    4.2270   -3.4373   -6.0015 O   0  0  0  0  0  0  0  0  0  0  0  0
    3.7559   -3.8654   -3.7552 N   0  0  0  0  0  0  0  0  0  0  0  0
   -1.6776   -0.6002   -0.1548 H   0  0  0  0  0  0  0  0  0  0  0  0
   -1.4896   -1.6299   -1.5821 H   0  0  0  0  0  0  0  0  0  0  0  0
   -0.7603    0.0203   -1.5275 H   0  0  0  0  0  0  0  0  0  0  0  0
    1.6946   -3.3529    0.3435 H   0  0  0  0  0  0  0  0  0  0  0  0
    3.3469   -4.5601   -1.0781 H   0  0  0  0  0  0  0  0  0  0  0  0
    0.7288   -0.7245   -2.9338 H   0  0  0  0  0  0  0  0  0  0  0  0
    2.8889   -1.2209   -6.6148 H   0  0  0  0  0  0  0  0  0  0  0  0
    3.3197    1.2199   -4.7963 H   0  0  0  0  0  0  0  0  0  0  0  0
    2.0026    3.2142   -4.1852 H   0  0  0  0  0  0  0  0  0  0  0  0
    0.1385    4.7880   -3.5794 H   0  0  0  0  0  0  0  0  0  0  0  0
   -2.9186    4.9954   -3.7828 H   0  0  0  0  0  0  0  0  0  0  0  0
    0.2198    7.0636   -3.8012 H   0  0  0  0  0  0  0  0  0  0  0  0
    0.3750    9.2737   -2.7844 H   0  0  0  0  0  0  0  0  0  0  0  0
   -2.9441   11.0075    0.0367 H   0  0  0  0  0  0  0  0  0  0  0  0
   -3.4088   11.0695   -1.6780 H   0  0  0  0  0  0  0  0  0  0  0  0
   -3.0251   13.3631   -0.7797 H   0  0  0  0  0  0  0  0  0  0  0  0
   -1.9327   12.9631   -2.1135 H   0  0  0  0  0  0  0  0  0  0  0  0
   -1.3898   15.1544   -0.1894 H   0  0  0  0  0  0  0  0  0  0  0  0
   -0.2735   14.6374   -1.4722 H   0  0  0  0  0  0  0  0  0  0  0  0
    0.2641   14.7134    0.2178 H   0  0  0  0  0  0  0  0  0  0  0  0
    0.9441   12.3407    0.2078 H   0  0  0  0  0  0  0  0  0  0  0  0
    0.5096   12.3352   -1.5085 H   0  0  0  0  0  0  0  0  0  0  0  0
   -0.5889   10.4312    0.6368 H   0  0  0  0  0  0  0  0  0  0  0  0
    0.5856   10.0520   -0.6227 H   0  0  0  0  0  0  0  0  0  0  0  0
   -3.7000    6.7223   -2.0578 H   0  0  0  0  0  0  0  0  0  0  0  0
   -2.5847    0.8184   -5.5766 H   0  0  0  0  0  0  0  0  0  0  0  0
   -0.2774   -0.8756   -5.9680 H   0  0  0  0  0  0  0  0  0  0  0  0
    4.3621   -4.6613   -3.6276 H   0  0  0  0  0  0  0  0  0  0  0  0
  1  2  1  0  0  0  0
  1 38  1  0  0  0  0
  1 39  1  0  0  0  0
  1 40  1  0  0  0  0
  2  3  1  0  0  0  0
  3  4  1  0  0  0  0
  3  8  2  0  0  0  0
  4  5  2  0  0  0  0
  4 41  1  0  0  0  0
  5  6  1  0  0  0  0
  5 42  1  0  0  0  0
  6  7  2  0  0  0  0
  6 37  1  0  0  0  0
  7  8  1  0  0  0  0
  7  9  1  0  0  0  0
  8 43  1  0  0  0  0
  9 10  2  0  0  0  0
  9 35  1  0  0  0  0
 10 11  1  0  0  0  0
 10 44  1  0  0  0  0
 11 12  1  0  0  0  0
 11 34  2  0  0  0  0
 12 13  2  0  0  0  0
 12 45  1  0  0  0  0
 13 14  1  0  0  0  0
 13 46  1  0  0  0  0
 14 15  1  0  0  0  0
 14 33  2  0  0  0  0
 15 16  1  0  0  0  0
 15 31  2  0  0  0  0
 16 17  2  0  0  0  0
 16 47  1  0  0  0  0
 17 18  1  0  0  0  0
 17 48  1  0  0  0  0
 18 19  1  0  0  0  0
 18 30  2  0  0  0  0
 19 20  2  0  0  0  0
 19 49  1  0  0  0  0
 20 21  1  0  0  0  0
 20 50  1  0  0  0  0
 21 22  1  0  0  0  0
 21 29  2  0  0  0  0
 22 23  1  0  0  0  0
 22 28  1  0  0  0  0
 23 24  1  0  0  0  0
 23 51  1  0  0  0  0
 23 52  1  0  0  0  0
 24 25  1  0  0  0  0
 24 53  1  0  0  0  0
 24 54  1  0  0  0  0
 25 26  1  0  0  0  0
 25 27  1  0  0  0  0
 26 55  1  0  0  0  0
 26 56  1  0  0  0  0
 26 57  1  0  0  0  0
 27 28  1  0  0  0  0
 27 58  1  0  0  0  0
 27 59  1  0  0  0  0
 28 60  1  0  0  0  0
 28 61  1  0  0  0  0
 29 30  1  0  0  0  0
 30 62  1  0  0  0  0
 31 32  1  0  0  0  0
 32 33  1  0  0  0  0
 32 63  1  0  0  0  0
 33 34  1  0  0  0  0
 34 64  1  0  0  0  0
 35 36  2  0  0  0  0
 35 37  1  0  0  0  0
 37 65  1  0  0  0  0
M  END
$$$$
