CHEMBL3976826
 OpenBabel04072215373D

 51 55  0  0  0  0  0  0  0  0999 V2000
    3.2627    1.0817   -0.8324 C   0  0  0  0  0  0  0  0  0  0  0  0
    2.4609   -0.0746   -0.5904 O   0  0  0  0  0  0  0  0  0  0  0  0
    3.0786   -1.1380    0.0063 C   0  0  0  0  0  0  0  0  0  0  0  0
    4.1239   -0.9588    0.9150 C   0  0  0  0  0  0  0  0  0  0  0  0
    4.8531   -2.0563    1.4192 C   0  0  0  0  0  0  0  0  0  0  0  0
    5.9713   -1.9466    2.2619 C   0  0  0  0  0  0  0  0  0  0  0  0
    6.3841   -0.6607    2.7195 N   0  0  0  0  0  0  0  0  0  0  0  0
    7.6613   -0.3894    3.2582 C   0  0  0  0  0  0  0  0  0  0  0  0
    8.8158   -0.8372    2.6012 C   0  0  0  0  0  0  0  0  0  0  0  0
   10.0798   -0.6562    3.1623 C   0  0  0  0  0  0  0  0  0  0  0  0
   10.2082   -0.0113    4.3917 C   0  0  0  0  0  0  0  0  0  0  0  0
   11.7925    0.1206    5.0664 Cl  0  0  0  0  0  0  0  0  0  0  0  0
    9.0692    0.4857    5.0353 C   0  0  0  0  0  0  0  0  0  0  0  0
    9.1548    1.3068    6.5548 Cl  0  0  0  0  0  0  0  0  0  0  0  0
    7.8019    0.3088    4.4624 C   0  0  0  0  0  0  0  0  0  0  0  0
    6.6796   -3.0236    2.6448 N   0  0  0  0  0  0  0  0  0  0  0  0
    6.2533   -4.2118    2.2069 C   0  0  0  0  0  0  0  0  0  0  0  0
    5.1878   -4.4297    1.4291 N   0  0  0  0  0  0  0  0  0  0  0  0
    4.5005   -3.3543    1.0334 C   0  0  0  0  0  0  0  0  0  0  0  0
    3.3964   -3.5237    0.2054 C   0  0  0  0  0  0  0  0  0  0  0  0
    2.6570   -2.4416   -0.2928 C   0  0  0  0  0  0  0  0  0  0  0  0
    1.5841   -2.8178   -1.0706 O   0  0  0  0  0  0  0  0  0  0  0  0
    0.5414   -1.8471   -1.1910 C   0  0  0  0  0  0  0  0  0  0  0  0
   -0.7687   -2.4830   -1.5724 C   0  0  0  0  0  0  0  0  0  0  0  0
   -1.6943   -1.8189   -2.2382 N   0  0  0  0  0  0  0  0  0  0  0  0
   -2.8879   -2.5294   -2.2619 C   0  0  0  0  0  0  0  0  0  0  0  0
   -4.0984   -1.9629   -2.8581 C   0  0  0  0  0  0  0  0  0  0  0  0
   -4.0578   -0.7022   -3.4453 C   0  0  0  0  0  0  0  0  0  0  0  0
   -5.2223   -0.1743   -3.9944 C   0  0  0  0  0  0  0  0  0  0  0  0
   -6.3969   -0.9150   -3.9358 C   0  0  0  0  0  0  0  0  0  0  0  0
   -6.3544   -2.1598   -3.3209 C   0  0  0  0  0  0  0  0  0  0  0  0
   -5.2385   -2.6985   -2.7834 N   0  0  0  0  0  0  0  0  0  0  0  0
   -2.8262   -3.7693   -1.6559 C   0  0  0  0  0  0  0  0  0  0  0  0
   -1.2537   -4.0360   -1.0159 S   0  0  0  0  0  0  0  0  0  0  0  0
    3.0060    1.4687   -1.8227 H   0  0  0  0  0  0  0  0  0  0  0  0
    4.3409    0.8855   -0.8377 H   0  0  0  0  0  0  0  0  0  0  0  0
    3.0225    1.8466   -0.0879 H   0  0  0  0  0  0  0  0  0  0  0  0
    4.4144    0.0442    1.2130 H   0  0  0  0  0  0  0  0  0  0  0  0
    5.6298   -0.2418    3.2549 H   0  0  0  0  0  0  0  0  0  0  0  0
    8.7287   -1.3560    1.6485 H   0  0  0  0  0  0  0  0  0  0  0  0
   10.9523   -1.0417    2.6416 H   0  0  0  0  0  0  0  0  0  0  0  0
    6.9258    0.6849    4.9837 H   0  0  0  0  0  0  0  0  0  0  0  0
    6.8291   -5.0790    2.5099 H   0  0  0  0  0  0  0  0  0  0  0  0
    3.1040   -4.5355   -0.0702 H   0  0  0  0  0  0  0  0  0  0  0  0
    0.8077   -1.1380   -1.9827 H   0  0  0  0  0  0  0  0  0  0  0  0
    0.3668   -1.3255   -0.2417 H   0  0  0  0  0  0  0  0  0  0  0  0
   -3.1341   -0.1332   -3.4787 H   0  0  0  0  0  0  0  0  0  0  0  0
   -5.2136    0.8062   -4.4612 H   0  0  0  0  0  0  0  0  0  0  0  0
   -7.3201   -0.5328   -4.3541 H   0  0  0  0  0  0  0  0  0  0  0  0
   -7.2482   -2.7686   -3.2466 H   0  0  0  0  0  0  0  0  0  0  0  0
   -3.6161   -4.4986   -1.5409 H   0  0  0  0  0  0  0  0  0  0  0  0
  1  2  1  0  0  0  0
  1 35  1  0  0  0  0
  1 36  1  0  0  0  0
  1 37  1  0  0  0  0
  2  3  1  0  0  0  0
  3  4  1  0  0  0  0
  3 21  2  0  0  0  0
  4  5  2  0  0  0  0
  4 38  1  0  0  0  0
  5  6  1  0  0  0  0
  5 19  1  0  0  0  0
  6  7  1  0  0  0  0
  6 16  2  0  0  0  0
  7  8  1  0  0  0  0
  7 39  1  0  0  0  0
  8  9  1  0  0  0  0
  8 15  2  0  0  0  0
  9 10  2  0  0  0  0
  9 40  1  0  0  0  0
 10 11  1  0  0  0  0
 10 41  1  0  0  0  0
 11 12  1  0  0  0  0
 11 13  2  0  0  0  0
 13 14  1  0  0  0  0
 13 15  1  0  0  0  0
 15 42  1  0  0  0  0
 16 17  1  0  0  0  0
 17 18  2  0  0  0  0
 17 43  1  0  0  0  0
 18 19  1  0  0  0  0
 19 20  2  0  0  0  0
 20 21  1  0  0  0  0
 20 44  1  0  0  0  0
 21 22  1  0  0  0  0
 22 23  1  0  0  0  0
 23 24  1  0  0  0  0
 23 45  1  0  0  0  0
 23 46  1  0  0  0  0
 24 25  2  0  0  0  0
 24 34  1  0  0  0  0
 25 26  1  0  0  0  0
 26 27  1  0  0  0  0
 26 33  2  0  0  0  0
 27 28  1  0  0  0  0
 27 32  2  0  0  0  0
 28 29  2  0  0  0  0
 28 47  1  0  0  0  0
 29 30  1  0  0  0  0
 29 48  1  0  0  0  0
 30 31  2  0  0  0  0
 30 49  1  0  0  0  0
 31 32  1  0  0  0  0
 31 50  1  0  0  0  0
 33 34  1  0  0  0  0
 33 51  1  0  0  0  0
M  END
$$$$
