CHEMBL245549
 OpenBabel04072215363D

 51 54  0  0  0  0  0  0  0  0999 V2000
    2.4590    0.1856   -0.4981 C   0  0  0  0  0  0  0  0  0  0  0  0
    0.9960    0.1341   -0.1643 C   0  0  0  0  0  0  0  0  0  0  0  0
    0.3126    1.3518   -0.0070 C   0  0  0  0  0  0  0  0  0  0  0  0
   -1.0727    1.3909    0.1617 C   0  0  0  0  0  0  0  0  0  0  0  0
   -1.8130    0.2181    0.1215 C   0  0  0  0  0  0  0  0  0  0  0  0
   -3.2247    0.1627    0.1642 N   0  0  0  0  0  0  0  0  0  0  0  0
   -4.0800    1.2446    0.2334 C   0  0  0  0  0  0  0  0  0  0  0  0
   -3.7607    2.4277    0.3265 O   0  0  0  0  0  0  0  0  0  0  0  0
   -5.5401    0.9406    0.2200 C   0  0  0  0  0  0  0  0  0  0  0  0
   -6.0970   -0.1275   -0.4909 C   0  0  0  0  0  0  0  0  0  0  0  0
   -7.4859   -0.2958   -0.5180 C   0  0  0  0  0  0  0  0  0  0  0  0
   -8.3192    0.5897    0.1712 C   0  0  0  0  0  0  0  0  0  0  0  0
   -7.7773    1.6576    0.8992 C   0  0  0  0  0  0  0  0  0  0  0  0
   -8.6489    2.6221    1.6642 C   0  0  0  0  0  0  0  0  0  0  0  0
   -9.9784    2.3382    1.5767 F   0  0  0  0  0  0  0  0  0  0  0  0
   -8.3591    2.6344    2.9949 F   0  0  0  0  0  0  0  0  0  0  0  0
   -8.5129    3.9074    1.2380 F   0  0  0  0  0  0  0  0  0  0  0  0
   -6.3851    1.8256    0.9086 C   0  0  0  0  0  0  0  0  0  0  0  0
   -1.1246   -0.9931    0.0306 C   0  0  0  0  0  0  0  0  0  0  0  0
    0.2819   -1.0692   -0.0169 C   0  0  0  0  0  0  0  0  0  0  0  0
    0.9237   -2.3322    0.0242 N   0  0  0  0  0  0  0  0  0  0  0  0
    0.4929   -3.4821    0.7535 C   0  0  0  0  0  0  0  0  0  0  0  0
   -0.6456   -3.3903    1.4938 N   0  0  0  0  0  0  0  0  0  0  0  0
   -1.1653   -4.4913    2.0611 C   0  0  0  0  0  0  0  0  0  0  0  0
   -0.5921   -5.7336    1.9496 C   0  0  0  0  0  0  0  0  0  0  0  0
    0.6004   -5.8338    1.2392 C   0  0  0  0  0  0  0  0  0  0  0  0
    1.1800   -4.7084    0.6089 C   0  0  0  0  0  0  0  0  0  0  0  0
    2.4182   -4.8433   -0.1927 C   0  0  0  0  0  0  0  0  0  0  0  0
    2.7143   -5.9905   -0.9121 C   0  0  0  0  0  0  0  0  0  0  0  0
    3.8531   -5.9631   -1.6843 C   0  0  0  0  0  0  0  0  0  0  0  0
    4.6764   -4.9059   -1.7531 N   0  0  0  0  0  0  0  0  0  0  0  0
    4.3259   -3.8524   -1.0058 C   0  0  0  0  0  0  0  0  0  0  0  0
    3.2401   -3.7645   -0.2195 N   0  0  0  0  0  0  0  0  0  0  0  0
    2.7640    1.2061   -0.7621 H   0  0  0  0  0  0  0  0  0  0  0  0
    2.6650   -0.4323   -1.3789 H   0  0  0  0  0  0  0  0  0  0  0  0
    3.0728   -0.1451    0.3424 H   0  0  0  0  0  0  0  0  0  0  0  0
    0.8532    2.2959   -0.0264 H   0  0  0  0  0  0  0  0  0  0  0  0
   -1.5390    2.3599    0.2941 H   0  0  0  0  0  0  0  0  0  0  0  0
   -3.6240   -0.7671    0.1688 H   0  0  0  0  0  0  0  0  0  0  0  0
   -5.4752   -0.8049   -1.0697 H   0  0  0  0  0  0  0  0  0  0  0  0
   -7.9242   -1.1112   -1.0912 H   0  0  0  0  0  0  0  0  0  0  0  0
   -9.3992    0.4500    0.1277 H   0  0  0  0  0  0  0  0  0  0  0  0
   -5.9495    2.6663    1.4520 H   0  0  0  0  0  0  0  0  0  0  0  0
   -1.6936   -1.9165   -0.0001 H   0  0  0  0  0  0  0  0  0  0  0  0
    1.9409   -2.2841    0.0760 H   0  0  0  0  0  0  0  0  0  0  0  0
   -2.0903   -4.3351    2.6078 H   0  0  0  0  0  0  0  0  0  0  0  0
   -1.0593   -6.6005    2.4022 H   0  0  0  0  0  0  0  0  0  0  0  0
    1.0693   -6.8126    1.1783 H   0  0  0  0  0  0  0  0  0  0  0  0
    2.0782   -6.8651   -0.9113 H   0  0  0  0  0  0  0  0  0  0  0  0
    4.1329   -6.8141   -2.2987 H   0  0  0  0  0  0  0  0  0  0  0  0
    4.9744   -2.9841   -1.0483 H   0  0  0  0  0  0  0  0  0  0  0  0
  1  2  1  0  0  0  0
  1 34  1  0  0  0  0
  1 35  1  0  0  0  0
  1 36  1  0  0  0  0
  2  3  1  0  0  0  0
  2 20  2  0  0  0  0
  3  4  2  0  0  0  0
  3 37  1  0  0  0  0
  4  5  1  0  0  0  0
  4 38  1  0  0  0  0
  5  6  1  0  0  0  0
  5 19  2  0  0  0  0
  6  7  1  0  0  0  0
  6 39  1  0  0  0  0
  7  8  2  0  0  0  0
  7  9  1  0  0  0  0
  9 10  1  0  0  0  0
  9 18  2  0  0  0  0
 10 11  2  0  0  0  0
 10 40  1  0  0  0  0
 11 12  1  0  0  0  0
 11 41  1  0  0  0  0
 12 13  2  0  0  0  0
 12 42  1  0  0  0  0
 13 14  1  0  0  0  0
 13 18  1  0  0  0  0
 14 15  1  0  0  0  0
 14 16  1  0  0  0  0
 14 17  1  0  0  0  0
 18 43  1  0  0  0  0
 19 20  1  0  0  0  0
 19 44  1  0  0  0  0
 20 21  1  0  0  0  0
 21 22  1  0  0  0  0
 21 45  1  0  0  0  0
 22 23  1  0  0  0  0
 22 27  2  0  0  0  0
 23 24  2  0  0  0  0
 24 25  1  0  0  0  0
 24 46  1  0  0  0  0
 25 26  2  0  0  0  0
 25 47  1  0  0  0  0
 26 27  1  0  0  0  0
 26 48  1  0  0  0  0
 27 28  1  0  0  0  0
 28 29  1  0  0  0  0
 28 33  2  0  0  0  0
 29 30  2  0  0  0  0
 29 49  1  0  0  0  0
 30 31  1  0  0  0  0
 30 50  1  0  0  0  0
 31 32  2  0  0  0  0
 32 33  1  0  0  0  0
 32 51  1  0  0  0  0
M  END
$$$$
