CHEMBL3690400
 OpenBabel04072215373D

 68 72  0  0  0  0  0  0  0  0999 V2000
   -0.5004   -0.4283    0.5451 C   0  0  0  0  0  0  0  0  0  0  0  0
    0.9014   -0.7603    0.2361 N   0  0  0  0  0  0  0  0  0  0  0  0
    1.4044    0.2333   -0.7171 C   0  0  0  0  0  0  0  0  0  0  0  0
    1.7229   -0.8468    1.4777 C   0  0  0  0  0  0  0  0  0  0  0  0
    3.2353   -1.0993    1.2537 C   0  0  0  0  0  0  0  0  0  0  0  0
    3.5892   -2.5233    0.8029 C   0  0  0  0  0  0  0  0  0  0  0  0
    2.9040   -3.5193    1.6239 N   0  0  0  0  0  0  0  0  0  0  0  0
    3.5109   -4.5732    2.2737 C   0  0  0  0  0  0  0  0  0  0  0  0
    4.7916   -5.0088    1.9672 C   0  0  0  0  0  0  0  0  0  0  0  0
    5.3776   -6.0661    2.6699 C   0  0  0  0  0  0  0  0  0  0  0  0
    4.6834   -6.6772    3.7002 C   0  0  0  0  0  0  0  0  0  0  0  0
    5.2455   -7.7597    4.5481 C   0  0  0  0  0  0  0  0  0  0  0  0
    4.3952   -8.7585    5.2108 C   0  0  0  0  0  0  0  0  0  0  0  0
    4.9382   -9.6771    6.0291 C   0  0  0  0  0  0  0  0  0  0  0  0
    6.3232   -9.7100    6.2227 N   0  0  0  0  0  0  0  0  0  0  0  0
    7.1445  -10.5803    6.9445 C   0  0  0  0  0  0  0  0  0  0  0  0
    6.7506  -11.8225    7.6301 C   0  0  0  0  0  0  0  0  0  0  0  0
    5.7260  -12.6214    7.1108 C   0  0  0  0  0  0  0  0  0  0  0  0
    5.3502  -13.8053    7.7359 C   0  0  0  0  0  0  0  0  0  0  0  0
    6.0473  -14.2485    8.8486 C   0  0  0  0  0  0  0  0  0  0  0  0
    7.1304  -13.5305    9.3562 C   0  0  0  0  0  0  0  0  0  0  0  0
    7.9265  -14.0144   10.4273 N   0  0  0  0  0  0  0  0  0  0  0  0
    7.8147  -15.2561   11.0210 C   0  0  0  0  0  0  0  0  0  0  0  0
    7.0079  -16.1346   10.7561 O   0  0  0  0  0  0  0  0  0  0  0  0
    8.7156  -15.4389   12.0478 N   0  0  0  0  0  0  0  0  0  0  0  0
    8.6863  -16.7252   12.7642 C   0  0  0  0  0  0  0  0  0  0  0  0
    9.3923  -17.8985   12.0698 C   0  0  0  0  0  0  0  0  0  0  0  0
   10.1036  -17.4953   10.9914 F   0  0  0  0  0  0  0  0  0  0  0  0
   10.2752  -18.4726   12.9258 F   0  0  0  0  0  0  0  0  0  0  0  0
    8.5348  -18.8613   11.6754 F   0  0  0  0  0  0  0  0  0  0  0  0
    7.4529  -12.2941    8.7599 C   0  0  0  0  0  0  0  0  0  0  0  0
    8.4125  -10.0368    6.7949 C   0  0  0  0  0  0  0  0  0  0  0  0
    8.4155   -8.9316    5.9914 N   0  0  0  0  0  0  0  0  0  0  0  0
    7.1624   -8.7644    5.6395 C   0  0  0  0  0  0  0  0  0  0  0  0
    6.5781   -7.7798    4.7933 C   0  0  0  0  0  0  0  0  0  0  0  0
    3.4286   -6.2795    3.9697 N   0  0  0  0  0  0  0  0  0  0  0  0
    2.8529   -5.2332    3.2529 N   0  0  0  0  0  0  0  0  0  0  0  0
    1.4633   -3.3316    1.7846 C   0  0  0  0  0  0  0  0  0  0  0  0
    1.2274   -1.9657    2.4200 C   0  0  0  0  0  0  0  0  0  0  0  0
   -1.0818   -0.2802   -0.3726 H   0  0  0  0  0  0  0  0  0  0  0  0
   -0.5829    0.4822    1.1498 H   0  0  0  0  0  0  0  0  0  0  0  0
   -1.0009   -1.2468    1.0701 H   0  0  0  0  0  0  0  0  0  0  0  0
    0.7468    0.2904   -1.5931 H   0  0  0  0  0  0  0  0  0  0  0  0
    2.3835   -0.0502   -1.1133 H   0  0  0  0  0  0  0  0  0  0  0  0
    1.4706    1.2340   -0.2760 H   0  0  0  0  0  0  0  0  0  0  0  0
    1.6345    0.1100    2.0110 H   0  0  0  0  0  0  0  0  0  0  0  0
    3.7456   -0.9124    2.2097 H   0  0  0  0  0  0  0  0  0  0  0  0
    3.6719   -0.3747    0.5584 H   0  0  0  0  0  0  0  0  0  0  0  0
    4.6794   -2.6059    0.8723 H   0  0  0  0  0  0  0  0  0  0  0  0
    3.3250   -2.6726   -0.2492 H   0  0  0  0  0  0  0  0  0  0  0  0
    5.3624   -4.5558    1.1661 H   0  0  0  0  0  0  0  0  0  0  0  0
    6.3764   -6.3874    2.3890 H   0  0  0  0  0  0  0  0  0  0  0  0
    3.3227   -8.7284    5.0351 H   0  0  0  0  0  0  0  0  0  0  0  0
    4.3249  -10.3970    6.5522 H   0  0  0  0  0  0  0  0  0  0  0  0
    5.2119  -12.3589    6.1905 H   0  0  0  0  0  0  0  0  0  0  0  0
    4.5308  -14.3965    7.3385 H   0  0  0  0  0  0  0  0  0  0  0  0
    5.7172  -15.1853    9.2868 H   0  0  0  0  0  0  0  0  0  0  0  0
    8.6597  -13.4083   10.7629 H   0  0  0  0  0  0  0  0  0  0  0  0
    9.6169  -14.9957   11.9422 H   0  0  0  0  0  0  0  0  0  0  0  0
    7.6399  -16.9990   12.9493 H   0  0  0  0  0  0  0  0  0  0  0  0
    9.1447  -16.5423   13.7416 H   0  0  0  0  0  0  0  0  0  0  0  0
    8.2730  -11.7063    9.1610 H   0  0  0  0  0  0  0  0  0  0  0  0
    9.3414  -10.4167    7.2007 H   0  0  0  0  0  0  0  0  0  0  0  0
    7.2624   -7.0470    4.3847 H   0  0  0  0  0  0  0  0  0  0  0  0
    0.9816   -4.1029    2.3945 H   0  0  0  0  0  0  0  0  0  0  0  0
    0.9846   -3.3959    0.7995 H   0  0  0  0  0  0  0  0  0  0  0  0
    1.7787   -1.9057    3.3685 H   0  0  0  0  0  0  0  0  0  0  0  0
    0.1739   -1.8465    2.6873 H   0  0  0  0  0  0  0  0  0  0  0  0
  1  2  1  0  0  0  0
  1 40  1  0  0  0  0
  1 41  1  0  0  0  0
  1 42  1  0  0  0  0
  2  3  1  0  0  0  0
  2  4  1  0  0  0  0
  3 43  1  0  0  0  0
  3 44  1  0  0  0  0
  3 45  1  0  0  0  0
  4  5  1  0  0  0  0
  4 39  1  0  0  0  0
  4 46  1  0  0  0  0
  5  6  1  0  0  0  0
  5 47  1  0  0  0  0
  5 48  1  0  0  0  0
  6  7  1  0  0  0  0
  6 49  1  0  0  0  0
  6 50  1  0  0  0  0
  7  8  1  0  0  0  0
  7 38  1  0  0  0  0
  8  9  1  0  0  0  0
  8 37  2  0  0  0  0
  9 10  2  0  0  0  0
  9 51  1  0  0  0  0
 10 11  1  0  0  0  0
 10 52  1  0  0  0  0
 11 12  1  0  0  0  0
 11 36  2  0  0  0  0
 12 13  1  0  0  0  0
 12 35  2  0  0  0  0
 13 14  2  0  0  0  0
 13 53  1  0  0  0  0
 14 15  1  0  0  0  0
 14 54  1  0  0  0  0
 15 16  1  0  0  0  0
 15 34  1  0  0  0  0
 16 17  1  0  0  0  0
 16 32  2  0  0  0  0
 17 18  1  0  0  0  0
 17 31  2  0  0  0  0
 18 19  2  0  0  0  0
 18 55  1  0  0  0  0
 19 20  1  0  0  0  0
 19 56  1  0  0  0  0
 20 21  2  0  0  0  0
 20 57  1  0  0  0  0
 21 22  1  0  0  0  0
 21 31  1  0  0  0  0
 22 23  1  0  0  0  0
 22 58  1  0  0  0  0
 23 24  2  0  0  0  0
 23 25  1  0  0  0  0
 25 26  1  0  0  0  0
 25 59  1  0  0  0  0
 26 27  1  0  0  0  0
 26 60  1  0  0  0  0
 26 61  1  0  0  0  0
 27 28  1  0  0  0  0
 27 29  1  0  0  0  0
 27 30  1  0  0  0  0
 31 62  1  0  0  0  0
 32 33  1  0  0  0  0
 32 63  1  0  0  0  0
 33 34  2  0  0  0  0
 34 35  1  0  0  0  0
 35 64  1  0  0  0  0
 36 37  1  0  0  0  0
 38 39  1  0  0  0  0
 38 65  1  0  0  0  0
 38 66  1  0  0  0  0
 39 67  1  0  0  0  0
 39 68  1  0  0  0  0
M  END
$$$$
