CHEMBL241668
 OpenBabel04072215363D

 43 45  0  0  0  0  0  0  0  0999 V2000
    2.0830    0.0774   -0.0188 C   0  0  0  0  0  0  0  0  0  0  0  0
    0.6445   -0.0440    0.0036 N   0  0  0  0  0  0  0  0  0  0  0  0
   -0.2335    1.0008    0.0647 C   0  0  0  0  0  0  0  0  0  0  0  0
   -1.4786    0.5794    0.0575 N   0  0  0  0  0  0  0  0  0  0  0  0
   -1.3973   -0.7785   -0.0209 C   0  0  0  0  0  0  0  0  0  0  0  0
   -2.4953   -1.5605   -0.0136 N   0  0  0  0  0  0  0  0  0  0  0  0
   -3.7113   -1.1058    0.6491 C   0  0  0  0  0  0  0  0  0  0  0  0
   -4.0764   -2.0763    1.7525 C   0  0  0  0  0  0  0  0  0  0  0  0
   -3.2348   -2.2461    2.8587 C   0  0  0  0  0  0  0  0  0  0  0  0
   -3.6085   -3.1368    3.8528 C   0  0  0  0  0  0  0  0  0  0  0  0
   -4.7477   -3.8597    3.8226 N   0  0  0  0  0  0  0  0  0  0  0  0
   -5.5476   -3.6840    2.7499 C   0  0  0  0  0  0  0  0  0  0  0  0
   -5.2590   -2.8206    1.7026 C   0  0  0  0  0  0  0  0  0  0  0  0
   -0.0867   -1.2116   -0.0736 C   0  0  0  0  0  0  0  0  0  0  0  0
    0.4705   -2.5400   -0.1193 C   0  0  0  0  0  0  0  0  0  0  0  0
    1.5559   -2.7975    0.3922 O   0  0  0  0  0  0  0  0  0  0  0  0
   -0.2976   -3.4379   -0.8397 N   0  0  0  0  0  0  0  0  0  0  0  0
   -0.0595   -4.8176   -0.9856 C   0  0  0  0  0  0  0  0  0  0  0  0
    0.8058   -5.5357   -0.1585 C   0  0  0  0  0  0  0  0  0  0  0  0
    1.0599   -6.8893   -0.3978 C   0  0  0  0  0  0  0  0  0  0  0  0
    0.4479   -7.5513   -1.4688 C   0  0  0  0  0  0  0  0  0  0  0  0
    0.7831   -8.9874   -1.7887 C   0  0  0  0  0  0  0  0  0  0  0  0
    1.7083   -9.5330   -0.9506 F   0  0  0  0  0  0  0  0  0  0  0  0
   -0.3033   -9.8054   -1.7309 F   0  0  0  0  0  0  0  0  0  0  0  0
    1.2918   -9.1301   -3.0448 F   0  0  0  0  0  0  0  0  0  0  0  0
   -0.4701   -6.8438   -2.2591 C   0  0  0  0  0  0  0  0  0  0  0  0
   -0.7300   -5.4910   -2.0114 C   0  0  0  0  0  0  0  0  0  0  0  0
    2.3595    1.1327   -0.0964 H   0  0  0  0  0  0  0  0  0  0  0  0
    2.4669   -0.4604   -0.8894 H   0  0  0  0  0  0  0  0  0  0  0  0
    2.4856   -0.3397    0.9072 H   0  0  0  0  0  0  0  0  0  0  0  0
    0.0828    2.0337    0.1145 H   0  0  0  0  0  0  0  0  0  0  0  0
   -2.3885   -2.5668    0.0514 H   0  0  0  0  0  0  0  0  0  0  0  0
   -4.5151   -1.0678   -0.0950 H   0  0  0  0  0  0  0  0  0  0  0  0
   -3.6315   -0.1006    1.0808 H   0  0  0  0  0  0  0  0  0  0  0  0
   -2.3037   -1.6942    2.9446 H   0  0  0  0  0  0  0  0  0  0  0  0
   -2.9828   -3.2947    4.7269 H   0  0  0  0  0  0  0  0  0  0  0  0
   -6.4604   -4.2734    2.7553 H   0  0  0  0  0  0  0  0  0  0  0  0
   -5.9512   -2.7328    0.8721 H   0  0  0  0  0  0  0  0  0  0  0  0
   -1.0063   -3.0239   -1.4355 H   0  0  0  0  0  0  0  0  0  0  0  0
    1.3013   -5.0682    0.6880 H   0  0  0  0  0  0  0  0  0  0  0  0
    1.7565   -7.4163    0.2529 H   0  0  0  0  0  0  0  0  0  0  0  0
   -0.9720   -7.3408   -3.0884 H   0  0  0  0  0  0  0  0  0  0  0  0
   -1.4327   -4.9680   -2.6557 H   0  0  0  0  0  0  0  0  0  0  0  0
  1  2  1  0  0  0  0
  1 28  1  0  0  0  0
  1 29  1  0  0  0  0
  1 30  1  0  0  0  0
  2  3  1  0  0  0  0
  2 14  1  0  0  0  0
  3  4  2  0  0  0  0
  3 31  1  0  0  0  0
  4  5  1  0  0  0  0
  5  6  1  0  0  0  0
  5 14  2  0  0  0  0
  6  7  1  0  0  0  0
  6 32  1  0  0  0  0
  7  8  1  0  0  0  0
  7 33  1  0  0  0  0
  7 34  1  0  0  0  0
  8  9  1  0  0  0  0
  8 13  2  0  0  0  0
  9 10  2  0  0  0  0
  9 35  1  0  0  0  0
 10 11  1  0  0  0  0
 10 36  1  0  0  0  0
 11 12  2  0  0  0  0
 12 13  1  0  0  0  0
 12 37  1  0  0  0  0
 13 38  1  0  0  0  0
 14 15  1  0  0  0  0
 15 16  2  0  0  0  0
 15 17  1  0  0  0  0
 17 18  1  0  0  0  0
 17 39  1  0  0  0  0
 18 19  1  0  0  0  0
 18 27  2  0  0  0  0
 19 20  2  0  0  0  0
 19 40  1  0  0  0  0
 20 21  1  0  0  0  0
 20 41  1  0  0  0  0
 21 22  1  0  0  0  0
 21 26  2  0  0  0  0
 22 23  1  0  0  0  0
 22 24  1  0  0  0  0
 22 25  1  0  0  0  0
 26 27  1  0  0  0  0
 26 42  1  0  0  0  0
 27 43  1  0  0  0  0
M  END
$$$$
