CHEMBL3963494
 OpenBabel04072215373D

 55 59  0  0  0  0  0  0  0  0999 V2000
    1.2676   -2.6412   -0.1606 N   0  0  0  0  0  0  0  0  0  0  0  0
    1.9505   -2.1445    0.9101 C   0  0  0  0  0  0  0  0  0  0  0  0
    1.4024   -1.5097    1.7997 O   0  0  0  0  0  0  0  0  0  0  0  0
    3.4247   -2.4482    0.9389 C   0  0  0  0  0  0  0  0  0  0  0  0
    4.3653   -1.3399    0.4418 C   0  0  0  0  0  0  0  0  0  0  0  0
    4.6311   -0.2595    1.3141 C   0  0  0  0  0  0  0  0  0  0  0  0
    5.5877    0.7135    1.0280 C   0  0  0  0  0  0  0  0  0  0  0  0
    6.3145    0.6333   -0.1491 C   0  0  0  0  0  0  0  0  0  0  0  0
    6.0255   -0.3722   -1.0673 C   0  0  0  0  0  0  0  0  0  0  0  0
    5.0308   -1.3395   -0.8081 C   0  0  0  0  0  0  0  0  0  0  0  0
    4.6785   -2.2850   -1.9436 C   0  0  0  0  0  0  0  0  0  0  0  0
    3.7365   -1.5968   -2.9433 C   0  0  0  0  0  0  0  0  0  0  0  0
    3.4286   -2.4070   -4.1840 C   0  0  0  0  0  0  0  0  0  0  0  0
    3.4770   -3.7624   -4.0712 N   0  0  0  0  0  0  0  0  0  0  0  0
    3.1281   -4.5020   -5.1408 C   0  0  0  0  0  0  0  0  0  0  0  0
    3.0377   -5.8850   -4.9489 N   0  0  0  0  0  0  0  0  0  0  0  0
    2.2769   -6.7334   -5.6749 C   0  0  0  0  0  0  0  0  0  0  0  0
    1.8900   -6.6680   -7.0291 C   0  0  0  0  0  0  0  0  0  0  0  0
    1.0337   -7.6380   -7.3590 N   0  0  0  0  0  0  0  0  0  0  0  0
    0.8442   -8.3024   -6.2013 N   0  0  0  0  0  0  0  0  0  0  0  0
   -0.1807   -9.3033   -6.1187 C   0  0  0  0  0  0  0  0  0  0  0  0
   -1.1990   -9.0244   -4.9886 C   0  0  0  0  0  0  0  0  0  0  0  0
   -1.1669  -10.4656   -4.6495 N   0  0  0  0  0  0  0  0  0  0  0  0
    0.1754  -10.5412   -5.2733 C   0  0  0  0  0  0  0  0  0  0  0  0
    1.6421   -7.8446   -5.1813 C   0  0  0  0  0  0  0  0  0  0  0  0
    2.7613   -3.9656   -6.3119 N   0  0  0  0  0  0  0  0  0  0  0  0
    2.6986   -2.6269   -6.3943 C   0  0  0  0  0  0  0  0  0  0  0  0
    3.0088   -1.7856   -5.3520 C   0  0  0  0  0  0  0  0  0  0  0  0
    2.8265   -0.0928   -5.5514 Cl  0  0  0  0  0  0  0  0  0  0  0  0
    3.8902   -3.9045    0.8796 C   0  0  0  0  0  0  0  0  0  0  0  0
    3.9130   -3.2011    2.1919 C   0  0  0  0  0  0  0  0  0  0  0  0
    0.2705   -2.4833   -0.1963 H   0  0  0  0  0  0  0  0  0  0  0  0
    1.7128   -3.1867   -0.8839 H   0  0  0  0  0  0  0  0  0  0  0  0
    4.0819   -0.1910    2.2537 H   0  0  0  0  0  0  0  0  0  0  0  0
    5.7727    1.5172    1.7353 H   0  0  0  0  0  0  0  0  0  0  0  0
    7.0903    1.3630   -0.3632 H   0  0  0  0  0  0  0  0  0  0  0  0
    6.5787   -0.3956   -2.0048 H   0  0  0  0  0  0  0  0  0  0  0  0
    4.2253   -3.2071   -1.5752 H   0  0  0  0  0  0  0  0  0  0  0  0
    5.6047   -2.5928   -2.4481 H   0  0  0  0  0  0  0  0  0  0  0  0
    4.1916   -0.6456   -3.2422 H   0  0  0  0  0  0  0  0  0  0  0  0
    2.7841   -1.3587   -2.4536 H   0  0  0  0  0  0  0  0  0  0  0  0
    3.2303   -6.0673   -3.9719 H   0  0  0  0  0  0  0  0  0  0  0  0
    2.1765   -5.9475   -7.7842 H   0  0  0  0  0  0  0  0  0  0  0  0
   -0.6609   -9.5281   -7.0800 H   0  0  0  0  0  0  0  0  0  0  0  0
   -2.1754   -8.6594   -5.3246 H   0  0  0  0  0  0  0  0  0  0  0  0
   -0.8695   -8.3840   -4.1616 H   0  0  0  0  0  0  0  0  0  0  0  0
   -1.8732  -11.0079   -5.1509 H   0  0  0  0  0  0  0  0  0  0  0  0
    0.3541  -11.4542   -5.8497 H   0  0  0  0  0  0  0  0  0  0  0  0
    0.9876  -10.4414   -4.5452 H   0  0  0  0  0  0  0  0  0  0  0  0
    1.6208   -8.2831   -4.1950 H   0  0  0  0  0  0  0  0  0  0  0  0
    2.3576   -2.2472   -7.3509 H   0  0  0  0  0  0  0  0  0  0  0  0
    4.8532   -4.1359    0.4367 H   0  0  0  0  0  0  0  0  0  0  0  0
    3.1498   -4.6836    0.7414 H   0  0  0  0  0  0  0  0  0  0  0  0
    4.8811   -2.9451    2.6097 H   0  0  0  0  0  0  0  0  0  0  0  0
    3.1811   -3.4871    2.9390 H   0  0  0  0  0  0  0  0  0  0  0  0
  1  2  1  0  0  0  0
  1 32  1  0  0  0  0
  1 33  1  0  0  0  0
  2  3  2  0  0  0  0
  2  4  1  0  0  0  0
  4  5  1  0  0  0  0
  4 30  1  0  0  0  0
  4 31  1  0  0  0  0
  5  6  1  0  0  0  0
  5 10  2  0  0  0  0
  6  7  2  0  0  0  0
  6 34  1  0  0  0  0
  7  8  1  0  0  0  0
  7 35  1  0  0  0  0
  8  9  2  0  0  0  0
  8 36  1  0  0  0  0
  9 10  1  0  0  0  0
  9 37  1  0  0  0  0
 10 11  1  0  0  0  0
 11 12  1  0  0  0  0
 11 38  1  0  0  0  0
 11 39  1  0  0  0  0
 12 13  1  0  0  0  0
 12 40  1  0  0  0  0
 12 41  1  0  0  0  0
 13 14  1  0  0  0  0
 13 28  2  0  0  0  0
 14 15  2  0  0  0  0
 15 16  1  0  0  0  0
 15 26  1  0  0  0  0
 16 17  1  0  0  0  0
 16 42  1  0  0  0  0
 17 18  1  0  0  0  0
 17 25  2  0  0  0  0
 18 19  2  0  0  0  0
 18 43  1  0  0  0  0
 19 20  1  0  0  0  0
 20 21  1  0  0  0  0
 20 25  1  0  0  0  0
 21 22  1  0  0  0  0
 21 24  1  0  0  0  0
 21 44  1  0  0  0  0
 22 23  1  0  0  0  0
 22 45  1  0  0  0  0
 22 46  1  0  0  0  0
 23 24  1  0  0  0  0
 23 47  1  0  0  0  0
 24 48  1  0  0  0  0
 24 49  1  0  0  0  0
 25 50  1  0  0  0  0
 26 27  2  0  0  0  0
 27 28  1  0  0  0  0
 27 51  1  0  0  0  0
 28 29  1  0  0  0  0
 30 31  1  0  0  0  0
 30 52  1  0  0  0  0
 30 53  1  0  0  0  0
 31 54  1  0  0  0  0
 31 55  1  0  0  0  0
M  END
$$$$
