CHEMBL396737
 OpenBabel04072215373D

 39 42  0  0  0  0  0  0  0  0999 V2000
    1.2584   -0.2019   -1.8426 N   0  0  0  0  0  0  0  0  0  0  0  0
    2.6227   -0.2245   -1.5532 C   0  0  0  0  0  0  0  0  0  0  0  0
    3.2912    0.8666   -1.9938 N   0  0  0  0  0  0  0  0  0  0  0  0
    4.6017    1.0065   -1.7320 C   0  0  0  0  0  0  0  0  0  0  0  0
    5.3459    0.0991   -1.0213 C   0  0  0  0  0  0  0  0  0  0  0  0
    4.6638   -1.0384   -0.5746 C   0  0  0  0  0  0  0  0  0  0  0  0
    5.3725   -2.3161    0.3294 S   0  0  0  0  0  0  0  0  0  0  0  0
    3.9107   -3.1691    0.3893 C   0  0  0  0  0  0  0  0  0  0  0  0
    2.8613   -2.5172   -0.2353 C   0  0  0  0  0  0  0  0  0  0  0  0
    1.5264   -3.1350   -0.1939 C   0  0  0  0  0  0  0  0  0  0  0  0
    1.0853   -3.7546    0.9829 C   0  0  0  0  0  0  0  0  0  0  0  0
   -0.1878   -4.3207    1.0666 C   0  0  0  0  0  0  0  0  0  0  0  0
   -1.0780   -4.2382   -0.0033 C   0  0  0  0  0  0  0  0  0  0  0  0
   -2.4039   -4.7237    0.0810 N   0  0  0  0  0  0  0  0  0  0  0  0
   -3.0854   -4.9271    1.2704 C   0  0  0  0  0  0  0  0  0  0  0  0
   -2.6843   -4.5544    2.3707 O   0  0  0  0  0  0  0  0  0  0  0  0
   -4.2597   -5.6373    1.0745 N   0  0  0  0  0  0  0  0  0  0  0  0
   -5.0153   -5.9564    2.1848 C   0  0  0  0  0  0  0  0  0  0  0  0
   -5.3016   -5.2468    3.3261 C   0  0  0  0  0  0  0  0  0  0  0  0
   -5.9696   -6.0572    4.2901 C   0  0  0  0  0  0  0  0  0  0  0  0
   -6.1786   -7.3378    3.8259 C   0  0  0  0  0  0  0  0  0  0  0  0
   -5.6684   -7.5214    2.1969 S   0  0  0  0  0  0  0  0  0  0  0  0
   -0.6326   -3.6748   -1.1998 C   0  0  0  0  0  0  0  0  0  0  0  0
    0.6666   -3.1456   -1.2980 C   0  0  0  0  0  0  0  0  0  0  0  0
    3.2959   -1.2466   -0.8254 C   0  0  0  0  0  0  0  0  0  0  0  0
    1.0251    0.7371   -2.1570 H   0  0  0  0  0  0  0  0  0  0  0  0
    0.6945   -0.5361   -1.0701 H   0  0  0  0  0  0  0  0  0  0  0  0
    5.0523    1.9124   -2.1271 H   0  0  0  0  0  0  0  0  0  0  0  0
    6.3977    0.2583   -0.8174 H   0  0  0  0  0  0  0  0  0  0  0  0
    3.8917   -4.1205    0.9048 H   0  0  0  0  0  0  0  0  0  0  0  0
    1.7175   -3.8050    1.8667 H   0  0  0  0  0  0  0  0  0  0  0  0
   -0.4566   -4.8177    1.9949 H   0  0  0  0  0  0  0  0  0  0  0  0
   -2.9795   -4.6527   -0.7463 H   0  0  0  0  0  0  0  0  0  0  0  0
   -4.2413   -6.3332    0.3429 H   0  0  0  0  0  0  0  0  0  0  0  0
   -5.0031   -4.2172    3.4874 H   0  0  0  0  0  0  0  0  0  0  0  0
   -6.2453   -5.7220    5.2824 H   0  0  0  0  0  0  0  0  0  0  0  0
   -6.6159   -8.1703    4.3589 H   0  0  0  0  0  0  0  0  0  0  0  0
   -1.2870   -3.6097   -2.0652 H   0  0  0  0  0  0  0  0  0  0  0  0
    0.9851   -2.7241   -2.2495 H   0  0  0  0  0  0  0  0  0  0  0  0
  1  2  1  0  0  0  0
  1 26  1  0  0  0  0
  1 27  1  0  0  0  0
  2  3  1  0  0  0  0
  2 25  2  0  0  0  0
  3  4  2  0  0  0  0
  4  5  1  0  0  0  0
  4 28  1  0  0  0  0
  5  6  2  0  0  0  0
  5 29  1  0  0  0  0
  6  7  1  0  0  0  0
  6 25  1  0  0  0  0
  7  8  1  0  0  0  0
  8  9  2  0  0  0  0
  8 30  1  0  0  0  0
  9 10  1  0  0  0  0
  9 25  1  0  0  0  0
 10 11  1  0  0  0  0
 10 24  2  0  0  0  0
 11 12  2  0  0  0  0
 11 31  1  0  0  0  0
 12 13  1  0  0  0  0
 12 32  1  0  0  0  0
 13 14  1  0  0  0  0
 13 23  2  0  0  0  0
 14 15  1  0  0  0  0
 14 33  1  0  0  0  0
 15 16  2  0  0  0  0
 15 17  1  0  0  0  0
 17 18  1  0  0  0  0
 17 34  1  0  0  0  0
 18 19  2  0  0  0  0
 18 22  1  0  0  0  0
 19 20  1  0  0  0  0
 19 35  1  0  0  0  0
 20 21  2  0  0  0  0
 20 36  1  0  0  0  0
 21 22  1  0  0  0  0
 21 37  1  0  0  0  0
 23 24  1  0  0  0  0
 23 38  1  0  0  0  0
 24 39  1  0  0  0  0
M  END
$$$$
