CHEMBL595757
 OpenBabel04072215383D

 46 48  0  0  1  0  0  0  0  0999 V2000
    6.9428    2.5026    2.5137 C   0  0  0  0  0  0  0  0  0  0  0  0
    5.9253    2.4874    1.5136 O   0  0  0  0  0  0  0  0  0  0  0  0
    4.8694    1.6386    1.7356 C   0  0  0  0  0  0  0  0  0  0  0  0
    4.4969    1.2171    3.0227 C   0  0  0  0  0  0  0  0  0  0  0  0
    3.3941    0.3913    3.2173 C   0  0  0  0  0  0  0  0  0  0  0  0
    2.6463   -0.0199    2.1252 C   0  0  0  0  0  0  0  0  0  0  0  0
    3.0144    0.3784    0.8398 C   0  0  0  0  0  0  0  0  0  0  0  0
    4.1248    1.2155    0.6036 C   0  0  0  0  0  0  0  0  0  0  0  0
    4.5447    1.6079   -0.8376 C   0  0  3  0  0  0  0  0  0  0  0  0
    5.9691    1.0553   -1.1750 C   0  0  0  0  0  0  0  0  0  0  0  0
    6.2034   -0.4073   -0.9318 C   0  0  0  0  0  0  0  0  0  0  0  0
    5.3188   -1.4536   -1.1077 C   0  0  0  0  0  0  0  0  0  0  0  0
    5.8243   -2.6152   -0.6202 O   0  0  0  0  0  0  0  0  0  0  0  0
    7.0665   -2.3401   -0.1419 C   0  0  0  0  0  0  0  0  0  0  0  0
    7.8165   -3.2552    0.4781 N   0  0  0  0  0  0  0  0  0  0  0  0
    8.9829   -2.7585    0.8716 C   0  0  0  0  0  0  0  0  0  0  0  0
    9.7915   -3.5887    1.6265 N   0  0  0  0  0  0  0  0  0  0  0  0
    9.4688   -1.5393    0.5962 N   0  0  0  0  0  0  0  0  0  0  0  0
    8.6963   -0.6484   -0.0609 C   0  0  0  0  0  0  0  0  0  0  0  0
    9.2811    0.5610   -0.3734 N   0  0  0  0  0  0  0  0  0  0  0  0
    7.3909   -1.0176   -0.3987 C   0  0  0  0  0  0  0  0  0  0  0  0
    3.4843    1.3091   -1.9621 C   0  0  0  0  0  0  0  0  0  0  0  0
    2.2182    2.1704   -1.8083 C   0  0  0  0  0  0  0  0  0  0  0  0
    3.9976    1.5023   -3.3963 C   0  0  0  0  0  0  0  0  0  0  0  0
    7.7668    3.1227    2.1476 H   0  0  0  0  0  0  0  0  0  0  0  0
    7.3369    1.4953    2.6939 H   0  0  0  0  0  0  0  0  0  0  0  0
    6.5865    2.9589    3.4436 H   0  0  0  0  0  0  0  0  0  0  0  0
    5.0446    1.5261    3.9066 H   0  0  0  0  0  0  0  0  0  0  0  0
    3.1162    0.0745    4.2184 H   0  0  0  0  0  0  0  0  0  0  0  0
    1.7765   -0.6560    2.2673 H   0  0  0  0  0  0  0  0  0  0  0  0
    2.3967    0.0115    0.0279 H   0  0  0  0  0  0  0  0  0  0  0  0
    4.6437    2.7060   -0.8268 H   0  0  0  0  0  0  0  0  0  0  0  0
    6.6861    1.6113   -0.5631 H   0  0  0  0  0  0  0  0  0  0  0  0
    6.2647    1.3040   -2.1991 H   0  0  0  0  0  0  0  0  0  0  0  0
    4.3143   -1.5361   -1.4894 H   0  0  0  0  0  0  0  0  0  0  0  0
    9.5528   -4.5547    1.4501 H   0  0  0  0  0  0  0  0  0  0  0  0
   10.7573   -3.3108    1.5321 H   0  0  0  0  0  0  0  0  0  0  0  0
   10.1498    0.7442    0.1072 H   0  0  0  0  0  0  0  0  0  0  0  0
    8.7282    1.3281   -0.7136 H   0  0  0  0  0  0  0  0  0  0  0  0
    3.1750    0.2623   -1.8988 H   0  0  0  0  0  0  0  0  0  0  0  0
    2.3929    3.1979   -2.1434 H   0  0  0  0  0  0  0  0  0  0  0  0
    1.8544    2.2158   -0.7794 H   0  0  0  0  0  0  0  0  0  0  0  0
    1.4093    1.7521   -2.4187 H   0  0  0  0  0  0  0  0  0  0  0  0
    4.3429    2.5277   -3.5627 H   0  0  0  0  0  0  0  0  0  0  0  0
    3.1977    1.2947   -4.1168 H   0  0  0  0  0  0  0  0  0  0  0  0
    4.8104    0.8122   -3.6386 H   0  0  0  0  0  0  0  0  0  0  0  0
  1  2  1  0  0  0  0
  1 25  1  0  0  0  0
  1 26  1  0  0  0  0
  1 27  1  0  0  0  0
  2  3  1  0  0  0  0
  3  4  1  0  0  0  0
  3  8  2  0  0  0  0
  4  5  2  0  0  0  0
  4 28  1  0  0  0  0
  5  6  1  0  0  0  0
  5 29  1  0  0  0  0
  6  7  2  0  0  0  0
  6 30  1  0  0  0  0
  7  8  1  0  0  0  0
  7 31  1  0  0  0  0
  8  9  1  0  0  0  0
  9 10  1  0  0  0  0
  9 22  1  0  0  0  0
  9 32  1  0  0  0  0
 10 11  1  0  0  0  0
 10 33  1  0  0  0  0
 10 34  1  0  0  0  0
 11 12  2  0  0  0  0
 11 21  1  0  0  0  0
 12 13  1  0  0  0  0
 12 35  1  0  0  0  0
 13 14  1  0  0  0  0
 14 15  1  0  0  0  0
 14 21  2  0  0  0  0
 15 16  2  0  0  0  0
 16 17  1  0  0  0  0
 16 18  1  0  0  0  0
 17 36  1  0  0  0  0
 17 37  1  0  0  0  0
 18 19  2  0  0  0  0
 19 20  1  0  0  0  0
 19 21  1  0  0  0  0
 20 38  1  0  0  0  0
 20 39  1  0  0  0  0
 22 23  1  0  0  0  0
 22 24  1  0  0  0  0
 22 40  1  0  0  0  0
 23 41  1  0  0  0  0
 23 42  1  0  0  0  0
 23 43  1  0  0  0  0
 24 44  1  0  0  0  0
 24 45  1  0  0  0  0
 24 46  1  0  0  0  0
M  END
$$$$
