CHEMBL271141
 OpenBabel04072215363D

 73 78  0  0  0  0  0  0  0  0999 V2000
    2.5049    0.2303   -0.5706 C   0  0  0  0  0  0  0  0  0  0  0  0
    1.0592    0.0785   -0.2032 C   0  0  0  0  0  0  0  0  0  0  0  0
    0.3334    1.2461    0.0832 C   0  0  0  0  0  0  0  0  0  0  0  0
   -1.0387    1.2071    0.3645 C   0  0  0  0  0  0  0  0  0  0  0  0
   -1.7326    0.0010    0.3708 C   0  0  0  0  0  0  0  0  0  0  0  0
   -3.1239   -0.0930    0.6174 N   0  0  0  0  0  0  0  0  0  0  0  0
   -3.9261    0.9117    1.1331 C   0  0  0  0  0  0  0  0  0  0  0  0
   -3.5500    2.0041    1.5439 O   0  0  0  0  0  0  0  0  0  0  0  0
   -5.3760    0.5990    1.2554 C   0  0  0  0  0  0  0  0  0  0  0  0
   -6.0791    1.1456    2.3563 C   0  0  0  0  0  0  0  0  0  0  0  0
   -7.4496    0.9232    2.5197 C   0  0  0  0  0  0  0  0  0  0  0  0
   -8.0905    0.1862    1.5504 C   0  0  0  0  0  0  0  0  0  0  0  0
   -7.4167   -0.3251    0.4606 C   0  0  0  0  0  0  0  0  0  0  0  0
   -6.0573   -0.1480    0.2848 C   0  0  0  0  0  0  0  0  0  0  0  0
   -8.2487   -0.9808   -0.3949 O   0  0  0  0  0  0  0  0  0  0  0  0
   -9.5135   -0.6907    0.2211 C   0  0  0  0  0  0  0  0  0  0  0  0
  -10.1958    0.1635   -0.5821 F   0  0  0  0  0  0  0  0  0  0  0  0
  -10.2310   -1.8361    0.3071 F   0  0  0  0  0  0  0  0  0  0  0  0
   -9.4191   -0.1021    1.5248 O   0  0  0  0  0  0  0  0  0  0  0  0
   -1.0227   -1.1729    0.1017 C   0  0  0  0  0  0  0  0  0  0  0  0
    0.3668   -1.1511   -0.1596 C   0  0  0  0  0  0  0  0  0  0  0  0
    0.9892   -2.4854   -0.4191 C   0  0  0  0  0  0  0  0  0  0  0  0
    0.3378   -3.3195   -1.0382 O   0  0  0  0  0  0  0  0  0  0  0  0
    2.2293   -2.7073    0.1457 N   0  0  0  0  0  0  0  0  0  0  0  0
    2.9754   -3.9008    0.0456 C   0  0  0  0  0  0  0  0  0  0  0  0
    2.6843   -4.9963   -0.7458 C   0  0  0  0  0  0  0  0  0  0  0  0
    3.4368   -6.1265   -0.8030 N   0  0  0  0  0  0  0  0  0  0  0  0
    4.5433   -6.1489   -0.0525 C   0  0  0  0  0  0  0  0  0  0  0  0
    5.3598   -7.2753   -0.1124 N   0  0  0  0  0  0  0  0  0  0  0  0
    6.7133   -7.3415    0.2381 C   0  0  0  0  0  0  0  0  0  0  0  0
    7.2505   -8.4956    0.8035 C   0  0  0  0  0  0  0  0  0  0  0  0
    8.5552   -8.4866    1.3167 C   0  0  0  0  0  0  0  0  0  0  0  0
    9.3656   -7.3406    1.2613 C   0  0  0  0  0  0  0  0  0  0  0  0
   10.6654   -7.3816    1.7469 N   0  0  0  0  0  0  0  0  0  0  0  0
   11.6409   -6.3877    1.2693 C   0  0  0  0  0  0  0  0  0  0  0  0
   13.0601   -6.9440    1.4949 C   0  0  0  0  0  0  0  0  0  0  0  0
   13.3219   -7.2707    2.9164 N   0  0  0  0  0  0  0  0  0  0  0  0
   14.6479   -7.8673    3.0525 C   0  0  0  0  0  0  0  0  0  0  0  0
   12.2776   -8.2033    3.4110 C   0  0  0  0  0  0  0  0  0  0  0  0
   10.8380   -7.6792    3.1826 C   0  0  0  0  0  0  0  0  0  0  0  0
    8.8318   -6.2094    0.6476 C   0  0  0  0  0  0  0  0  0  0  0  0
    7.5337   -6.2126    0.1453 C   0  0  0  0  0  0  0  0  0  0  0  0
    4.9007   -5.1361    0.7583 N   0  0  0  0  0  0  0  0  0  0  0  0
    4.1237   -4.0411    0.7878 C   0  0  0  0  0  0  0  0  0  0  0  0
    2.7450    1.2809   -0.7858 H   0  0  0  0  0  0  0  0  0  0  0  0
    2.7402   -0.3375   -1.4704 H   0  0  0  0  0  0  0  0  0  0  0  0
    3.1542   -0.0740    0.2561 H   0  0  0  0  0  0  0  0  0  0  0  0
    0.8199    2.2212    0.0628 H   0  0  0  0  0  0  0  0  0  0  0  0
   -1.5395    2.1543    0.5419 H   0  0  0  0  0  0  0  0  0  0  0  0
   -3.5388   -1.0086    0.4904 H   0  0  0  0  0  0  0  0  0  0  0  0
   -5.5491    1.7603    3.0834 H   0  0  0  0  0  0  0  0  0  0  0  0
   -7.9867    1.3362    3.3640 H   0  0  0  0  0  0  0  0  0  0  0  0
   -5.5657   -0.5321   -0.6021 H   0  0  0  0  0  0  0  0  0  0  0  0
   -1.5393   -2.1318    0.1004 H   0  0  0  0  0  0  0  0  0  0  0  0
    2.5934   -2.0000    0.7714 H   0  0  0  0  0  0  0  0  0  0  0  0
    1.8243   -5.0215   -1.4066 H   0  0  0  0  0  0  0  0  0  0  0  0
    4.9694   -8.0229   -0.6653 H   0  0  0  0  0  0  0  0  0  0  0  0
    6.6526   -9.3981    0.8940 H   0  0  0  0  0  0  0  0  0  0  0  0
    8.9492   -9.4011    1.7535 H   0  0  0  0  0  0  0  0  0  0  0  0
   11.5161   -5.4346    1.8011 H   0  0  0  0  0  0  0  0  0  0  0  0
   11.5200   -6.2002    0.1956 H   0  0  0  0  0  0  0  0  0  0  0  0
   13.7834   -6.1986    1.1455 H   0  0  0  0  0  0  0  0  0  0  0  0
   13.1808   -7.8414    0.8721 H   0  0  0  0  0  0  0  0  0  0  0  0
   15.4163   -7.1678    2.7057 H   0  0  0  0  0  0  0  0  0  0  0  0
   14.7457   -8.7965    2.4791 H   0  0  0  0  0  0  0  0  0  0  0  0
   14.8646   -8.0836    4.1033 H   0  0  0  0  0  0  0  0  0  0  0  0
   12.4199   -8.3746    4.4842 H   0  0  0  0  0  0  0  0  0  0  0  0
   12.3709   -9.1741    2.9051 H   0  0  0  0  0  0  0  0  0  0  0  0
   10.6736   -6.7688    3.7763 H   0  0  0  0  0  0  0  0  0  0  0  0
   10.1287   -8.4333    3.5417 H   0  0  0  0  0  0  0  0  0  0  0  0
    9.3979   -5.2869    0.5676 H   0  0  0  0  0  0  0  0  0  0  0  0
    7.1641   -5.3018   -0.3181 H   0  0  0  0  0  0  0  0  0  0  0  0
    4.4839   -3.2626    1.4529 H   0  0  0  0  0  0  0  0  0  0  0  0
  1  2  1  0  0  0  0
  1 45  1  0  0  0  0
  1 46  1  0  0  0  0
  1 47  1  0  0  0  0
  2  3  1  0  0  0  0
  2 21  2  0  0  0  0
  3  4  2  0  0  0  0
  3 48  1  0  0  0  0
  4  5  1  0  0  0  0
  4 49  1  0  0  0  0
  5  6  1  0  0  0  0
  5 20  2  0  0  0  0
  6  7  1  0  0  0  0
  6 50  1  0  0  0  0
  7  8  2  0  0  0  0
  7  9  1  0  0  0  0
  9 10  1  0  0  0  0
  9 14  2  0  0  0  0
 10 11  2  0  0  0  0
 10 51  1  0  0  0  0
 11 12  1  0  0  0  0
 11 52  1  0  0  0  0
 12 13  2  0  0  0  0
 12 19  1  0  0  0  0
 13 14  1  0  0  0  0
 13 15  1  0  0  0  0
 14 53  1  0  0  0  0
 15 16  1  0  0  0  0
 16 17  1  0  0  0  0
 16 18  1  0  0  0  0
 16 19  1  0  0  0  0
 20 21  1  0  0  0  0
 20 54  1  0  0  0  0
 21 22  1  0  0  0  0
 22 23  2  0  0  0  0
 22 24  1  0  0  0  0
 24 25  1  0  0  0  0
 24 55  1  0  0  0  0
 25 26  1  0  0  0  0
 25 44  2  0  0  0  0
 26 27  2  0  0  0  0
 26 56  1  0  0  0  0
 27 28  1  0  0  0  0
 28 29  1  0  0  0  0
 28 43  2  0  0  0  0
 29 30  1  0  0  0  0
 29 57  1  0  0  0  0
 30 31  1  0  0  0  0
 30 42  2  0  0  0  0
 31 32  2  0  0  0  0
 31 58  1  0  0  0  0
 32 33  1  0  0  0  0
 32 59  1  0  0  0  0
 33 34  1  0  0  0  0
 33 41  2  0  0  0  0
 34 35  1  0  0  0  0
 34 40  1  0  0  0  0
 35 36  1  0  0  0  0
 35 60  1  0  0  0  0
 35 61  1  0  0  0  0
 36 37  1  0  0  0  0
 36 62  1  0  0  0  0
 36 63  1  0  0  0  0
 37 38  1  0  0  0  0
 37 39  1  0  0  0  0
 38 64  1  0  0  0  0
 38 65  1  0  0  0  0
 38 66  1  0  0  0  0
 39 40  1  0  0  0  0
 39 67  1  0  0  0  0
 39 68  1  0  0  0  0
 40 69  1  0  0  0  0
 40 70  1  0  0  0  0
 41 42  1  0  0  0  0
 41 71  1  0  0  0  0
 42 72  1  0  0  0  0
 43 44  1  0  0  0  0
 44 73  1  0  0  0  0
M  END
$$$$
