CHEMBL3809489
 OpenBabel04072215373D

 72 78  0  0  1  0  0  0  0  0999 V2000
    4.0503    2.5692    0.6280 N   0  0  0  0  0  0  0  0  0  0  0  0
    4.0783    1.2923    0.1703 C   0  0  0  0  0  0  0  0  0  0  0  0
    5.0417    0.4409    0.4088 N   0  0  0  0  0  0  0  0  0  0  0  0
    4.6156   -0.7059   -0.1921 C   0  0  0  0  0  0  0  0  0  0  0  0
    5.3921   -1.8052   -0.0850 N   0  0  0  0  0  0  0  0  0  0  0  0
    5.0480   -3.1665   -0.2000 C   0  0  0  0  0  0  0  0  0  0  0  0
    3.7224   -3.5934   -0.3218 C   0  0  0  0  0  0  0  0  0  0  0  0
    3.3992   -4.9396   -0.4795 C   0  0  0  0  0  0  0  0  0  0  0  0
    4.3994   -5.9116   -0.5273 C   0  0  0  0  0  0  0  0  0  0  0  0
    5.7396   -5.5150   -0.4021 C   0  0  0  0  0  0  0  0  0  0  0  0
    6.0502   -4.1454   -0.2611 C   0  0  0  0  0  0  0  0  0  0  0  0
    6.8370   -6.5474   -0.3582 C   0  0  0  0  0  0  0  0  0  0  0  0
    6.7330   -7.4192    0.8982 C   0  0  0  0  0  0  0  0  0  0  0  0
    5.7357   -8.5946    0.7891 C   0  0  1  0  0  0  0  0  0  0  0  0
    5.8058   -9.5767    1.8978 N   0  0  0  0  0  0  0  0  0  0  0  0
    5.5479   -9.0690    3.2499 C   0  0  0  0  0  0  0  0  0  0  0  0
    6.9085   -8.7594    3.8421 C   0  0  0  0  0  0  0  0  0  0  0  0
    7.8372   -9.7647    3.1849 C   0  0  0  0  0  0  0  0  0  0  0  0
    7.0800  -10.3009    1.9737 C   0  0  0  0  0  0  0  0  0  0  0  0
    4.2636   -8.1546    0.6087 C   0  0  0  0  0  0  0  0  0  0  0  0
    4.0099   -7.3598   -0.6720 C   0  0  0  0  0  0  0  0  0  0  0  0
    3.4577   -0.5940   -0.8280 N   0  0  0  0  0  0  0  0  0  0  0  0
    3.1082    0.7065   -0.6261 N   0  0  0  0  0  0  0  0  0  0  0  0
    1.9539    1.2480   -1.2742 C   0  0  0  0  0  0  0  0  0  0  0  0
    1.3349    0.4546   -2.2299 C   0  0  0  0  0  0  0  0  0  0  0  0
    0.4202    1.0393   -3.1107 C   0  0  0  0  0  0  0  0  0  0  0  0
   -0.0406    2.3303   -2.8902 C   0  0  0  0  0  0  0  0  0  0  0  0
    0.4931    3.0534   -1.8788 N   0  0  0  0  0  0  0  0  0  0  0  0
    1.5446    2.5246   -1.0936 N   0  0  0  0  0  0  0  0  0  0  0  0
   -1.0135    2.9295   -3.8328 C   0  0  0  0  0  0  0  0  0  0  0  0
   -2.3515    3.1021   -3.4388 C   0  0  0  0  0  0  0  0  0  0  0  0
   -3.3453    3.4550   -4.3615 C   0  0  0  0  0  0  0  0  0  0  0  0
   -3.0113    3.7182   -5.6855 C   0  0  0  0  0  0  0  0  0  0  0  0
   -1.6975    3.5585   -6.1030 C   0  0  0  0  0  0  0  0  0  0  0  0
   -0.7117    3.0840   -5.2133 C   0  0  0  0  0  0  0  0  0  0  0  0
    0.6057    2.6471   -5.8262 C   0  0  0  0  0  0  0  0  0  0  0  0
    1.1735    1.2802   -5.3842 C   0  0  0  0  0  0  0  0  0  0  0  0
    0.2576    0.4303   -4.4831 C   0  0  0  0  0  0  0  0  0  0  0  0
    4.7269    2.8106    1.3471 H   0  0  0  0  0  0  0  0  0  0  0  0
    3.1692    3.0765    0.6954 H   0  0  0  0  0  0  0  0  0  0  0  0
    6.2993   -1.6504    0.3449 H   0  0  0  0  0  0  0  0  0  0  0  0
    2.9016   -2.8850   -0.2677 H   0  0  0  0  0  0  0  0  0  0  0  0
    2.3500   -5.2189   -0.5503 H   0  0  0  0  0  0  0  0  0  0  0  0
    7.0943   -3.8442   -0.1850 H   0  0  0  0  0  0  0  0  0  0  0  0
    7.8108   -6.0411   -0.3453 H   0  0  0  0  0  0  0  0  0  0  0  0
    6.8289   -7.1542   -1.2717 H   0  0  0  0  0  0  0  0  0  0  0  0
    6.4834   -6.7876    1.7589 H   0  0  0  0  0  0  0  0  0  0  0  0
    7.7356   -7.8247    1.0761 H   0  0  0  0  0  0  0  0  0  0  0  0
    5.9915   -9.1529   -0.1232 H   0  0  0  0  0  0  0  0  0  0  0  0
    5.0817   -9.8753    3.8312 H   0  0  0  0  0  0  0  0  0  0  0  0
    4.8671   -8.2157    3.3049 H   0  0  0  0  0  0  0  0  0  0  0  0
    6.9140   -8.8446    4.9336 H   0  0  0  0  0  0  0  0  0  0  0  0
    7.2232   -7.7403    3.5970 H   0  0  0  0  0  0  0  0  0  0  0  0
    8.0686  -10.5794    3.8797 H   0  0  0  0  0  0  0  0  0  0  0  0
    8.7811   -9.2900    2.8963 H   0  0  0  0  0  0  0  0  0  0  0  0
    6.8644  -11.3622    2.1296 H   0  0  0  0  0  0  0  0  0  0  0  0
    7.6805  -10.2413    1.0579 H   0  0  0  0  0  0  0  0  0  0  0  0
    3.9139   -7.5782    1.4742 H   0  0  0  0  0  0  0  0  0  0  0  0
    3.6371   -9.0569    0.5603 H   0  0  0  0  0  0  0  0  0  0  0  0
    2.9400   -7.4221   -0.9114 H   0  0  0  0  0  0  0  0  0  0  0  0
    4.5258   -7.8055   -1.5308 H   0  0  0  0  0  0  0  0  0  0  0  0
    1.6710   -0.5634   -2.4181 H   0  0  0  0  0  0  0  0  0  0  0  0
   -2.6493    2.8782   -2.4158 H   0  0  0  0  0  0  0  0  0  0  0  0
   -4.3874    3.4979   -4.0542 H   0  0  0  0  0  0  0  0  0  0  0  0
   -3.7776    4.0025   -6.4031 H   0  0  0  0  0  0  0  0  0  0  0  0
   -1.4544    3.7358   -7.1499 H   0  0  0  0  0  0  0  0  0  0  0  0
    1.3498    3.4381   -5.6761 H   0  0  0  0  0  0  0  0  0  0  0  0
    0.4729    2.5735   -6.9145 H   0  0  0  0  0  0  0  0  0  0  0  0
    2.1252    1.4761   -4.8684 H   0  0  0  0  0  0  0  0  0  0  0  0
    1.4476    0.7017   -6.2726 H   0  0  0  0  0  0  0  0  0  0  0  0
    0.5933   -0.6133   -4.4797 H   0  0  0  0  0  0  0  0  0  0  0  0
   -0.7856    0.4182   -4.8172 H   0  0  0  0  0  0  0  0  0  0  0  0
  1  2  1  0  0  0  0
  1 39  1  0  0  0  0
  1 40  1  0  0  0  0
  2  3  2  0  0  0  0
  2 23  1  0  0  0  0
  3  4  1  0  0  0  0
  4  5  1  0  0  0  0
  4 22  2  0  0  0  0
  5  6  1  0  0  0  0
  5 41  1  0  0  0  0
  6  7  1  0  0  0  0
  6 11  2  0  0  0  0
  7  8  2  0  0  0  0
  7 42  1  0  0  0  0
  8  9  1  0  0  0  0
  8 43  1  0  0  0  0
  9 10  2  0  0  0  0
  9 21  1  0  0  0  0
 10 11  1  0  0  0  0
 10 12  1  0  0  0  0
 11 44  1  0  0  0  0
 12 13  1  0  0  0  0
 12 45  1  0  0  0  0
 12 46  1  0  0  0  0
 13 14  1  0  0  0  0
 13 47  1  0  0  0  0
 13 48  1  0  0  0  0
 14 15  1  0  0  0  0
 14 20  1  0  0  0  0
 14 49  1  6  0  0  0
 15 16  1  0  0  0  0
 15 19  1  0  0  0  0
 16 17  1  0  0  0  0
 16 50  1  0  0  0  0
 16 51  1  0  0  0  0
 17 18  1  0  0  0  0
 17 52  1  0  0  0  0
 17 53  1  0  0  0  0
 18 19  1  0  0  0  0
 18 54  1  0  0  0  0
 18 55  1  0  0  0  0
 19 56  1  0  0  0  0
 19 57  1  0  0  0  0
 20 21  1  0  0  0  0
 20 58  1  0  0  0  0
 20 59  1  0  0  0  0
 21 60  1  0  0  0  0
 21 61  1  0  0  0  0
 22 23  1  0  0  0  0
 23 24  1  0  0  0  0
 24 25  1  0  0  0  0
 24 29  2  0  0  0  0
 25 26  2  0  0  0  0
 25 62  1  0  0  0  0
 26 27  1  0  0  0  0
 26 38  1  0  0  0  0
 27 28  2  0  0  0  0
 27 30  1  0  0  0  0
 28 29  1  0  0  0  0
 30 31  1  0  0  0  0
 30 35  2  0  0  0  0
 31 32  2  0  0  0  0
 31 63  1  0  0  0  0
 32 33  1  0  0  0  0
 32 64  1  0  0  0  0
 33 34  2  0  0  0  0
 33 65  1  0  0  0  0
 34 35  1  0  0  0  0
 34 66  1  0  0  0  0
 35 36  1  0  0  0  0
 36 37  1  0  0  0  0
 36 67  1  0  0  0  0
 36 68  1  0  0  0  0
 37 38  1  0  0  0  0
 37 69  1  0  0  0  0
 37 70  1  0  0  0  0
 38 71  1  0  0  0  0
 38 72  1  0  0  0  0
M  END
$$$$
