CHEMBL260307
 OpenBabel04072215363D

 48 51  0  0  0  0  0  0  0  0999 V2000
    2.8398    0.7264   -2.1810 C   0  0  0  0  0  0  0  0  0  0  0  0
    1.4250    0.4742   -1.7434 C   0  0  0  0  0  0  0  0  0  0  0  0
    0.9090   -0.8233   -1.7951 C   0  0  0  0  0  0  0  0  0  0  0  0
   -0.3839   -1.0754   -1.3567 C   0  0  0  0  0  0  0  0  0  0  0  0
   -1.1754   -0.0318   -0.8833 C   0  0  0  0  0  0  0  0  0  0  0  0
   -2.3516   -0.3897   -0.3492 F   0  0  0  0  0  0  0  0  0  0  0  0
   -0.7238    1.2952   -0.8790 C   0  0  0  0  0  0  0  0  0  0  0  0
   -1.5094    2.4210   -0.4943 N   0  0  0  0  0  0  0  0  0  0  0  0
   -2.8912    2.4410   -0.4364 C   0  0  0  0  0  0  0  0  0  0  0  0
   -3.6356    1.5172   -0.7524 O   0  0  0  0  0  0  0  0  0  0  0  0
   -3.3933    3.6861   -0.0497 N   0  0  0  0  0  0  0  0  0  0  0  0
   -4.7955    3.8374    0.1374 C   0  0  0  0  0  0  0  0  0  0  0  0
   -5.5350    2.9255    0.8933 C   0  0  0  0  0  0  0  0  0  0  0  0
   -6.9344    3.0130    0.9574 C   0  0  0  0  0  0  0  0  0  0  0  0
   -7.6376    4.0177    0.2724 C   0  0  0  0  0  0  0  0  0  0  0  0
   -9.1206    4.0606    0.2586 C   0  0  0  0  0  0  0  0  0  0  0  0
   -9.8917    3.7395    1.4053 C   0  0  0  0  0  0  0  0  0  0  0  0
  -11.2922    3.8165    1.4248 C   0  0  0  0  0  0  0  0  0  0  0  0
  -12.0161    4.2533    0.3102 C   0  0  0  0  0  0  0  0  0  0  0  0
  -13.5092    4.3506    0.3108 C   0  0  0  0  0  0  0  0  0  0  0  0
  -11.2399    4.5537   -0.8120 C   0  0  0  0  0  0  0  0  0  0  0  0
  -11.7387    4.9971   -1.9963 O   0  0  0  0  0  0  0  0  0  0  0  0
  -10.7220    5.0972   -2.9203 N   0  0  0  0  0  0  0  0  0  0  0  0
   -9.6196    4.6953   -2.2888 C   0  0  0  0  0  0  0  0  0  0  0  0
   -8.4421    4.5152   -2.9228 N   0  0  0  0  0  0  0  0  0  0  0  0
   -9.8583    4.4293   -0.9025 C   0  0  0  0  0  0  0  0  0  0  0  0
   -6.8570    4.9831   -0.3946 C   0  0  0  0  0  0  0  0  0  0  0  0
   -5.4577    4.8944   -0.4756 C   0  0  0  0  0  0  0  0  0  0  0  0
    0.6062    1.5281   -1.2861 C   0  0  0  0  0  0  0  0  0  0  0  0
    3.3319   -0.2031   -2.4921 H   0  0  0  0  0  0  0  0  0  0  0  0
    3.4239    1.1459   -1.3560 H   0  0  0  0  0  0  0  0  0  0  0  0
    2.8602    1.4122   -3.0327 H   0  0  0  0  0  0  0  0  0  0  0  0
    1.5148   -1.6540   -2.1572 H   0  0  0  0  0  0  0  0  0  0  0  0
   -0.7885   -2.0813   -1.3601 H   0  0  0  0  0  0  0  0  0  0  0  0
   -1.0339    3.3052   -0.3991 H   0  0  0  0  0  0  0  0  0  0  0  0
   -2.9177    4.4687   -0.4618 H   0  0  0  0  0  0  0  0  0  0  0  0
   -5.0329    2.1157    1.4203 H   0  0  0  0  0  0  0  0  0  0  0  0
   -7.4633    2.2533    1.5288 H   0  0  0  0  0  0  0  0  0  0  0  0
   -9.3925    3.4237    2.3206 H   0  0  0  0  0  0  0  0  0  0  0  0
  -11.8207    3.5365    2.3353 H   0  0  0  0  0  0  0  0  0  0  0  0
  -13.9374    4.0183    1.2617 H   0  0  0  0  0  0  0  0  0  0  0  0
  -13.9250    3.7200   -0.4825 H   0  0  0  0  0  0  0  0  0  0  0  0
  -13.8228    5.3852    0.1380 H   0  0  0  0  0  0  0  0  0  0  0  0
   -8.4830    4.5098   -3.9367 H   0  0  0  0  0  0  0  0  0  0  0  0
   -7.8048    3.8109   -2.5601 H   0  0  0  0  0  0  0  0  0  0  0  0
   -7.3397    5.8101   -0.9137 H   0  0  0  0  0  0  0  0  0  0  0  0
   -4.9229    5.6158   -1.0856 H   0  0  0  0  0  0  0  0  0  0  0  0
    1.0148    2.5367   -1.2705 H   0  0  0  0  0  0  0  0  0  0  0  0
  1  2  1  0  0  0  0
  1 30  1  0  0  0  0
  1 31  1  0  0  0  0
  1 32  1  0  0  0  0
  2  3  1  0  0  0  0
  2 29  2  0  0  0  0
  3  4  2  0  0  0  0
  3 33  1  0  0  0  0
  4  5  1  0  0  0  0
  4 34  1  0  0  0  0
  5  6  1  0  0  0  0
  5  7  2  0  0  0  0
  7  8  1  0  0  0  0
  7 29  1  0  0  0  0
  8  9  1  0  0  0  0
  8 35  1  0  0  0  0
  9 10  2  0  0  0  0
  9 11  1  0  0  0  0
 11 12  1  0  0  0  0
 11 36  1  0  0  0  0
 12 13  1  0  0  0  0
 12 28  2  0  0  0  0
 13 14  2  0  0  0  0
 13 37  1  0  0  0  0
 14 15  1  0  0  0  0
 14 38  1  0  0  0  0
 15 16  1  0  0  0  0
 15 27  2  0  0  0  0
 16 17  1  0  0  0  0
 16 26  2  0  0  0  0
 17 18  2  0  0  0  0
 17 39  1  0  0  0  0
 18 19  1  0  0  0  0
 18 40  1  0  0  0  0
 19 20  1  0  0  0  0
 19 21  2  0  0  0  0
 20 41  1  0  0  0  0
 20 42  1  0  0  0  0
 20 43  1  0  0  0  0
 21 22  1  0  0  0  0
 21 26  1  0  0  0  0
 22 23  1  0  0  0  0
 23 24  2  0  0  0  0
 24 25  1  0  0  0  0
 24 26  1  0  0  0  0
 25 44  1  0  0  0  0
 25 45  1  0  0  0  0
 27 28  1  0  0  0  0
 27 46  1  0  0  0  0
 28 47  1  0  0  0  0
 29 48  1  0  0  0  0
M  END
$$$$
