CHEMBL190162
 OpenBabel04072215363D

 66 68  0  0  0  0  0  0  0  0999 V2000
    4.2959   -2.7045    5.0489 C   0  0  0  0  0  0  0  0  0  0  0  0
    4.7846   -2.5540    3.6226 C   0  0  0  0  0  0  0  0  0  0  0  0
    5.3096   -1.2339    3.3833 N   0  0  0  0  0  0  0  0  0  0  0  0
    4.5034   -0.1768    3.1044 C   0  0  0  0  0  0  0  0  0  0  0  0
    3.2825   -0.2553    2.9700 O   0  0  0  0  0  0  0  0  0  0  0  0
    5.1500    0.9831    2.7865 N   0  0  0  0  0  0  0  0  0  0  0  0
    6.4919    1.2912    3.0080 C   0  0  0  0  0  0  0  0  0  0  0  0
    6.9850    0.8703    4.2031 N   0  0  0  0  0  0  0  0  0  0  0  0
    8.2407    1.1590    4.5411 C   0  0  0  0  0  0  0  0  0  0  0  0
    8.7281    0.8446    5.7984 C   0  0  0  0  0  0  0  0  0  0  0  0
   10.0385    1.1450    6.1465 C   0  0  0  0  0  0  0  0  0  0  0  0
   10.4687    0.8305    7.4430 N   0  0  0  0  0  0  0  0  0  0  0  0
   11.6673    1.5437    7.8789 C   0  0  0  0  0  0  0  0  0  0  0  0
   12.0587    1.0482    9.2744 C   0  0  0  0  0  0  0  0  0  0  0  0
   12.4714   -0.4245    9.2353 C   0  0  0  0  0  0  0  0  0  0  0  0
   12.8518   -1.0024   10.6014 C   0  0  0  0  0  0  0  0  0  0  0  0
   11.7979   -1.0066   11.6389 N   0  0  0  0  0  0  0  0  0  0  0  0
   10.5503   -1.6636   11.2133 C   0  0  0  0  0  0  0  0  0  0  0  0
   10.6198   -3.1680   10.9627 C   0  0  0  0  0  0  0  0  0  0  0  0
   12.3624   -1.5577   12.8860 C   0  0  0  0  0  0  0  0  0  0  0  0
   11.4152   -1.5488   14.0808 C   0  0  0  0  0  0  0  0  0  0  0  0
   10.9047    1.6431    5.2467 N   0  0  0  0  0  0  0  0  0  0  0  0
   10.4317    1.9436    4.0203 C   0  0  0  0  0  0  0  0  0  0  0  0
    9.1056    1.7891    3.6401 C   0  0  0  0  0  0  0  0  0  0  0  0
    8.5741    2.2303    2.4190 C   0  0  0  0  0  0  0  0  0  0  0  0
    7.2327    2.0042    2.0460 C   0  0  0  0  0  0  0  0  0  0  0  0
    6.7573    2.4119    0.6692 C   0  0  0  0  0  0  0  0  0  0  0  0
    7.5707    2.2515   -0.4966 C   0  0  0  0  0  0  0  0  0  0  0  0
    9.1097    1.4372   -0.5125 Cl  0  0  0  0  0  0  0  0  0  0  0  0
    7.1763    2.7164   -1.7632 C   0  0  0  0  0  0  0  0  0  0  0  0
    5.9116    3.2404   -1.9608 C   0  0  0  0  0  0  0  0  0  0  0  0
    5.0612    3.3550   -0.8747 C   0  0  0  0  0  0  0  0  0  0  0  0
    5.4964    3.0209    0.4190 C   0  0  0  0  0  0  0  0  0  0  0  0
    4.4082    3.5514    1.6672 Cl  0  0  0  0  0  0  0  0  0  0  0  0
    3.9421   -3.7242    5.2240 H   0  0  0  0  0  0  0  0  0  0  0  0
    3.4722   -2.0123    5.2553 H   0  0  0  0  0  0  0  0  0  0  0  0
    5.0999   -2.4860    5.7577 H   0  0  0  0  0  0  0  0  0  0  0  0
    3.9678   -2.7472    2.9184 H   0  0  0  0  0  0  0  0  0  0  0  0
    5.5920   -3.2636    3.4159 H   0  0  0  0  0  0  0  0  0  0  0  0
    6.1854   -0.9782    3.8335 H   0  0  0  0  0  0  0  0  0  0  0  0
    4.5368    1.7162    2.4814 H   0  0  0  0  0  0  0  0  0  0  0  0
    8.0546    0.4060    6.5301 H   0  0  0  0  0  0  0  0  0  0  0  0
    9.7108    0.9537    8.1069 H   0  0  0  0  0  0  0  0  0  0  0  0
   11.4567    2.6187    7.9290 H   0  0  0  0  0  0  0  0  0  0  0  0
   12.5075    1.3898    7.1911 H   0  0  0  0  0  0  0  0  0  0  0  0
   11.2199    1.1957    9.9661 H   0  0  0  0  0  0  0  0  0  0  0  0
   12.8947    1.6531    9.6487 H   0  0  0  0  0  0  0  0  0  0  0  0
   13.3412   -0.5238    8.5713 H   0  0  0  0  0  0  0  0  0  0  0  0
   11.6848   -1.0375    8.7795 H   0  0  0  0  0  0  0  0  0  0  0  0
   13.7037   -0.4171   10.9729 H   0  0  0  0  0  0  0  0  0  0  0  0
   13.2288   -2.0200   10.4406 H   0  0  0  0  0  0  0  0  0  0  0  0
   10.1646   -1.1720   10.3134 H   0  0  0  0  0  0  0  0  0  0  0  0
    9.7676   -1.4704   11.9572 H   0  0  0  0  0  0  0  0  0  0  0  0
   11.5108   -3.4602   10.4008 H   0  0  0  0  0  0  0  0  0  0  0  0
    9.7495   -3.4859   10.3787 H   0  0  0  0  0  0  0  0  0  0  0  0
   10.6086   -3.7260   11.9041 H   0  0  0  0  0  0  0  0  0  0  0  0
   13.2319   -0.9502   13.1688 H   0  0  0  0  0  0  0  0  0  0  0  0
   12.7304   -2.5795   12.7307 H   0  0  0  0  0  0  0  0  0  0  0  0
   11.0263   -0.5439   14.2718 H   0  0  0  0  0  0  0  0  0  0  0  0
   11.9507   -1.8788   14.9781 H   0  0  0  0  0  0  0  0  0  0  0  0
   10.5713   -2.2308   13.9401 H   0  0  0  0  0  0  0  0  0  0  0  0
   11.1755    2.3225    3.3242 H   0  0  0  0  0  0  0  0  0  0  0  0
    9.2492    2.7654    1.7540 H   0  0  0  0  0  0  0  0  0  0  0  0
    7.8580    2.6522   -2.6099 H   0  0  0  0  0  0  0  0  0  0  0  0
    5.5957    3.5678   -2.9484 H   0  0  0  0  0  0  0  0  0  0  0  0
    4.0602    3.7555   -1.0323 H   0  0  0  0  0  0  0  0  0  0  0  0
  1  2  1  0  0  0  0
  1 35  1  0  0  0  0
  1 36  1  0  0  0  0
  1 37  1  0  0  0  0
  2  3  1  0  0  0  0
  2 38  1  0  0  0  0
  2 39  1  0  0  0  0
  3  4  1  0  0  0  0
  3 40  1  0  0  0  0
  4  5  2  0  0  0  0
  4  6  1  0  0  0  0
  6  7  1  0  0  0  0
  6 41  1  0  0  0  0
  7  8  1  0  0  0  0
  7 26  2  0  0  0  0
  8  9  2  0  0  0  0
  9 10  1  0  0  0  0
  9 24  1  0  0  0  0
 10 11  2  0  0  0  0
 10 42  1  0  0  0  0
 11 12  1  0  0  0  0
 11 22  1  0  0  0  0
 12 13  1  0  0  0  0
 12 43  1  0  0  0  0
 13 14  1  0  0  0  0
 13 44  1  0  0  0  0
 13 45  1  0  0  0  0
 14 15  1  0  0  0  0
 14 46  1  0  0  0  0
 14 47  1  0  0  0  0
 15 16  1  0  0  0  0
 15 48  1  0  0  0  0
 15 49  1  0  0  0  0
 16 17  1  0  0  0  0
 16 50  1  0  0  0  0
 16 51  1  0  0  0  0
 17 18  1  0  0  0  0
 17 20  1  0  0  0  0
 18 19  1  0  0  0  0
 18 52  1  0  0  0  0
 18 53  1  0  0  0  0
 19 54  1  0  0  0  0
 19 55  1  0  0  0  0
 19 56  1  0  0  0  0
 20 21  1  0  0  0  0
 20 57  1  0  0  0  0
 20 58  1  0  0  0  0
 21 59  1  0  0  0  0
 21 60  1  0  0  0  0
 21 61  1  0  0  0  0
 22 23  2  0  0  0  0
 23 24  1  0  0  0  0
 23 62  1  0  0  0  0
 24 25  2  0  0  0  0
 25 26  1  0  0  0  0
 25 63  1  0  0  0  0
 26 27  1  0  0  0  0
 27 28  1  0  0  0  0
 27 33  2  0  0  0  0
 28 29  1  0  0  0  0
 28 30  2  0  0  0  0
 30 31  1  0  0  0  0
 30 64  1  0  0  0  0
 31 32  2  0  0  0  0
 31 65  1  0  0  0  0
 32 33  1  0  0  0  0
 32 66  1  0  0  0  0
 33 34  1  0  0  0  0
M  END
$$$$
