CHEMBL4205243
 OpenBabel04072215383D

 65 67  0  0  0  0  0  0  0  0999 V2000
    0.3568    5.1550    5.9567 C   0  0  0  0  0  0  0  0  0  0  0  0
    1.4309    6.1374    6.3847 C   0  0  0  0  0  0  0  0  0  0  0  0
    1.9164    6.8244    5.2296 O   0  0  0  0  0  0  0  0  0  0  0  0
    2.9310    7.7480    5.4247 C   0  0  0  0  0  0  0  0  0  0  0  0
    3.4673    8.0707    6.6117 C   0  0  0  0  0  0  0  0  0  0  0  0
    4.5618    9.0693    6.6941 C   0  0  0  0  0  0  0  0  0  0  0  0
    5.0666    9.3729    7.7671 O   0  0  0  0  0  0  0  0  0  0  0  0
    4.9623    9.6111    5.5028 N   0  0  0  0  0  0  0  0  0  0  0  0
    4.4125    9.2827    4.2873 C   0  0  0  0  0  0  0  0  0  0  0  0
    3.4174    8.3799    4.1945 C   0  0  0  0  0  0  0  0  0  0  0  0
    2.9138    8.0988    2.8287 C   0  0  0  0  0  0  0  0  0  0  0  0
    3.4152    7.0052    2.1057 C   0  0  0  0  0  0  0  0  0  0  0  0
    2.9536    6.7369    0.8063 C   0  0  0  0  0  0  0  0  0  0  0  0
    1.9857    7.5480    0.2025 C   0  0  0  0  0  0  0  0  0  0  0  0
    1.4006    7.1794   -1.1432 C   0  0  0  0  0  0  0  0  0  0  0  0
    1.6865    8.1374   -2.2905 C   0  0  0  0  0  0  0  0  0  0  0  0
    2.6383    7.9688   -3.0488 O   0  0  0  0  0  0  0  0  0  0  0  0
    0.7815    9.1851   -2.3760 N   0  0  0  0  0  0  0  0  0  0  0  0
    0.8744   10.2038   -3.3442 C   0  0  0  0  0  0  0  0  0  0  0  0
    0.8041   11.5133   -2.9032 C   0  0  0  0  0  0  0  0  0  0  0  0
    0.9231   12.5630   -3.8131 C   0  0  0  0  0  0  0  0  0  0  0  0
    0.9856   12.3550   -5.2060 C   0  0  0  0  0  0  0  0  0  0  0  0
    0.9857   13.5996   -6.0893 C   0  0  0  0  0  0  0  0  0  0  0  0
   -0.2894   14.5195   -6.0975 C   0  0  0  0  0  0  0  0  0  0  0  0
   -1.5606   13.6984   -6.3858 C   0  0  0  0  0  0  0  0  0  0  0  0
   -0.4752   15.2910   -4.7749 C   0  0  0  0  0  0  0  0  0  0  0  0
   -0.0968   15.5730   -7.2255 C   0  0  0  0  0  0  0  0  0  0  0  0
   -1.1634   16.5147   -7.2808 O   0  0  0  0  0  0  0  0  0  0  0  0
    1.0834   11.0165   -5.6640 C   0  0  0  0  0  0  0  0  0  0  0  0
    1.2710   10.5720   -7.1069 C   0  0  0  0  0  0  0  0  0  0  0  0
    1.4172   11.5582   -8.0305 F   0  0  0  0  0  0  0  0  0  0  0  0
    2.3740    9.7827   -7.2593 F   0  0  0  0  0  0  0  0  0  0  0  0
    0.2217    9.8208   -7.5517 F   0  0  0  0  0  0  0  0  0  0  0  0
    1.0312    9.9569   -4.7095 C   0  0  0  0  0  0  0  0  0  0  0  0
    1.5063    8.6439    0.9311 C   0  0  0  0  0  0  0  0  0  0  0  0
    0.5732    9.4394    0.3903 F   0  0  0  0  0  0  0  0  0  0  0  0
    1.9584    8.9208    2.2241 C   0  0  0  0  0  0  0  0  0  0  0  0
   -0.0357    4.6122    6.8223 H   0  0  0  0  0  0  0  0  0  0  0  0
    0.7585    4.4320    5.2401 H   0  0  0  0  0  0  0  0  0  0  0  0
   -0.4690    5.6760    5.4629 H   0  0  0  0  0  0  0  0  0  0  0  0
    2.2468    5.5840    6.8636 H   0  0  0  0  0  0  0  0  0  0  0  0
    0.9986    6.8521    7.0943 H   0  0  0  0  0  0  0  0  0  0  0  0
    3.1682    7.6547    7.5634 H   0  0  0  0  0  0  0  0  0  0  0  0
    5.7151   10.2864    5.5574 H   0  0  0  0  0  0  0  0  0  0  0  0
    4.8384    9.7910    3.4265 H   0  0  0  0  0  0  0  0  0  0  0  0
    4.1590    6.3489    2.5514 H   0  0  0  0  0  0  0  0  0  0  0  0
    3.3537    5.8702    0.2805 H   0  0  0  0  0  0  0  0  0  0  0  0
    0.3159    7.0499   -1.0390 H   0  0  0  0  0  0  0  0  0  0  0  0
    1.7806    6.1974   -1.4562 H   0  0  0  0  0  0  0  0  0  0  0  0
    0.3651    9.4494   -1.4874 H   0  0  0  0  0  0  0  0  0  0  0  0
    0.7291   11.7398   -1.8428 H   0  0  0  0  0  0  0  0  0  0  0  0
    0.9822   13.5665   -3.4022 H   0  0  0  0  0  0  0  0  0  0  0  0
    1.1800   13.3266   -7.1249 H   0  0  0  0  0  0  0  0  0  0  0  0
    1.8606   14.2000   -5.8028 H   0  0  0  0  0  0  0  0  0  0  0  0
   -1.6661   12.8511   -5.7015 H   0  0  0  0  0  0  0  0  0  0  0  0
   -1.5494   13.3052   -7.4084 H   0  0  0  0  0  0  0  0  0  0  0  0
   -2.4650   14.3074   -6.2744 H   0  0  0  0  0  0  0  0  0  0  0  0
   -0.7168   14.6337   -3.9377 H   0  0  0  0  0  0  0  0  0  0  0  0
   -1.3064   16.0023   -4.8330 H   0  0  0  0  0  0  0  0  0  0  0  0
    0.4277   15.8614   -4.5267 H   0  0  0  0  0  0  0  0  0  0  0  0
   -0.0162   15.0980   -8.2093 H   0  0  0  0  0  0  0  0  0  0  0  0
    0.8240   16.1436   -7.0594 H   0  0  0  0  0  0  0  0  0  0  0  0
   -1.9761   16.0378   -7.5185 H   0  0  0  0  0  0  0  0  0  0  0  0
    1.0907    8.9252   -5.0607 H   0  0  0  0  0  0  0  0  0  0  0  0
    1.5478    9.7762    2.7561 H   0  0  0  0  0  0  0  0  0  0  0  0
  1  2  1  0  0  0  0
  1 38  1  0  0  0  0
  1 39  1  0  0  0  0
  1 40  1  0  0  0  0
  2  3  1  0  0  0  0
  2 41  1  0  0  0  0
  2 42  1  0  0  0  0
  3  4  1  0  0  0  0
  4  5  2  0  0  0  0
  4 10  1  0  0  0  0
  5  6  1  0  0  0  0
  5 43  1  0  0  0  0
  6  7  2  0  0  0  0
  6  8  1  0  0  0  0
  8  9  1  0  0  0  0
  8 44  1  0  0  0  0
  9 10  2  0  0  0  0
  9 45  1  0  0  0  0
 10 11  1  0  0  0  0
 11 12  1  0  0  0  0
 11 37  2  0  0  0  0
 12 13  2  0  0  0  0
 12 46  1  0  0  0  0
 13 14  1  0  0  0  0
 13 47  1  0  0  0  0
 14 15  1  0  0  0  0
 14 35  2  0  0  0  0
 15 16  1  0  0  0  0
 15 48  1  0  0  0  0
 15 49  1  0  0  0  0
 16 17  2  0  0  0  0
 16 18  1  0  0  0  0
 18 19  1  0  0  0  0
 18 50  1  0  0  0  0
 19 20  1  0  0  0  0
 19 34  2  0  0  0  0
 20 21  2  0  0  0  0
 20 51  1  0  0  0  0
 21 22  1  0  0  0  0
 21 52  1  0  0  0  0
 22 23  1  0  0  0  0
 22 29  2  0  0  0  0
 23 24  1  0  0  0  0
 23 53  1  0  0  0  0
 23 54  1  0  0  0  0
 24 25  1  0  0  0  0
 24 26  1  0  0  0  0
 24 27  1  0  0  0  0
 25 55  1  0  0  0  0
 25 56  1  0  0  0  0
 25 57  1  0  0  0  0
 26 58  1  0  0  0  0
 26 59  1  0  0  0  0
 26 60  1  0  0  0  0
 27 28  1  0  0  0  0
 27 61  1  0  0  0  0
 27 62  1  0  0  0  0
 28 63  1  0  0  0  0
 29 30  1  0  0  0  0
 29 34  1  0  0  0  0
 30 31  1  0  0  0  0
 30 32  1  0  0  0  0
 30 33  1  0  0  0  0
 34 64  1  0  0  0  0
 35 36  1  0  0  0  0
 35 37  1  0  0  0  0
 37 65  1  0  0  0  0
M  END
$$$$
