CHEMBL454440
 OpenBabel04072215383D

 30 32  0  0  0  0  0  0  0  0999 V2000
    0.9804    0.2543   -0.0623 C   0  0  0  0  0  0  0  0  0  0  0  0
    2.4872    0.2028   -0.0628 C   0  0  0  0  0  0  0  0  0  0  0  0
    3.2694    1.3664   -0.0625 C   0  0  0  0  0  0  0  0  0  0  0  0
    2.7736    2.6453   -0.0633 O   0  0  0  0  0  0  0  0  0  0  0  0
    4.6651    1.2895   -0.0612 C   0  0  0  0  0  0  0  0  0  0  0  0
    5.4045    2.4396   -0.0604 O   0  0  0  0  0  0  0  0  0  0  0  0
    5.3225    0.0733   -0.0611 C   0  0  0  0  0  0  0  0  0  0  0  0
    4.5730   -1.1031   -0.0622 C   0  0  0  0  0  0  0  0  0  0  0  0
    5.3088   -2.2613   -0.0626 O   0  0  0  0  0  0  0  0  0  0  0  0
    4.6484   -3.4633   -0.0628 C   0  0  0  0  0  0  0  0  0  0  0  0
    5.4649   -4.6019   -0.0628 C   0  0  0  0  0  0  0  0  0  0  0  0
    4.8801   -5.8639   -0.0621 C   0  0  0  0  0  0  0  0  0  0  0  0
    5.6307   -7.0015   -0.0618 O   0  0  0  0  0  0  0  0  0  0  0  0
    3.4995   -6.0092   -0.0613 C   0  0  0  0  0  0  0  0  0  0  0  0
    2.6895   -4.8739   -0.0617 C   0  0  0  0  0  0  0  0  0  0  0  0
    1.3339   -5.0437   -0.0606 O   0  0  0  0  0  0  0  0  0  0  0  0
    3.2608   -3.5908   -0.0625 C   0  0  0  0  0  0  0  0  0  0  0  0
    2.4560   -2.3524   -0.0632 C   0  0  0  0  0  0  0  0  0  0  0  0
    1.2327   -2.3947   -0.0643 O   0  0  0  0  0  0  0  0  0  0  0  0
    3.1698   -1.0493   -0.0626 C   0  0  0  0  0  0  0  0  0  0  0  0
    0.5674    1.2634   -0.0623 H   0  0  0  0  0  0  0  0  0  0  0  0
    0.5865   -0.2302    0.8375 H   0  0  0  0  0  0  0  0  0  0  0  0
    0.5859   -0.2306   -0.9616 H   0  0  0  0  0  0  0  0  0  0  0  0
    1.8052    2.6321   -0.0754 H   0  0  0  0  0  0  0  0  0  0  0  0
    4.7385    3.1579   -0.0592 H   0  0  0  0  0  0  0  0  0  0  0  0
    6.4077    0.0439   -0.0603 H   0  0  0  0  0  0  0  0  0  0  0  0
    6.5441   -4.4855   -0.0635 H   0  0  0  0  0  0  0  0  0  0  0  0
    6.5728   -6.7647   -0.0624 H   0  0  0  0  0  0  0  0  0  0  0  0
    3.0719   -7.0070   -0.0605 H   0  0  0  0  0  0  0  0  0  0  0  0
    1.1096   -5.9872   -0.0588 H   0  0  0  0  0  0  0  0  0  0  0  0
  1  2  1  0  0  0  0
  1 21  1  0  0  0  0
  1 22  1  0  0  0  0
  1 23  1  0  0  0  0
  2  3  1  0  0  0  0
  2 20  2  0  0  0  0
  3  4  1  0  0  0  0
  3  5  2  0  0  0  0
  4 24  1  0  0  0  0
  5  6  1  0  0  0  0
  5  7  1  0  0  0  0
  6 25  1  0  0  0  0
  7  8  2  0  0  0  0
  7 26  1  0  0  0  0
  8  9  1  0  0  0  0
  8 20  1  0  0  0  0
  9 10  1  0  0  0  0
 10 11  1  0  0  0  0
 10 17  2  0  0  0  0
 11 12  2  0  0  0  0
 11 27  1  0  0  0  0
 12 13  1  0  0  0  0
 12 14  1  0  0  0  0
 13 28  1  0  0  0  0
 14 15  2  0  0  0  0
 14 29  1  0  0  0  0
 15 16  1  0  0  0  0
 15 17  1  0  0  0  0
 16 30  1  0  0  0  0
 17 18  1  0  0  0  0
 18 19  2  0  0  0  0
 18 20  1  0  0  0  0
M  END
$$$$
