CHEMBL3922698
 OpenBabel04072215373D

 66 69  0  0  0  0  0  0  0  0999 V2000
    7.4428   -4.7479    5.4053 C   0  0  0  0  0  0  0  0  0  0  0  0
    7.3658   -4.0100    4.1848 O   0  0  0  0  0  0  0  0  0  0  0  0
    6.6436   -4.5776    3.1615 C   0  0  0  0  0  0  0  0  0  0  0  0
    5.6884   -5.5809    3.3414 C   0  0  0  0  0  0  0  0  0  0  0  0
    4.9744   -6.0571    2.2447 C   0  0  0  0  0  0  0  0  0  0  0  0
    3.9962   -7.0165    2.2894 O   0  0  0  0  0  0  0  0  0  0  0  0
    3.7566   -7.6439    3.5438 C   0  0  0  0  0  0  0  0  0  0  0  0
    5.2095   -5.5205    0.9696 C   0  0  0  0  0  0  0  0  0  0  0  0
    6.1356   -4.4880    0.7505 C   0  0  0  0  0  0  0  0  0  0  0  0
    6.2390   -3.7953   -0.4879 N   0  0  0  0  0  0  0  0  0  0  0  0
    4.9408   -3.6170   -1.2507 C   0  0  0  0  0  0  0  0  0  0  0  0
    3.6984   -3.0589   -0.5288 C   0  0  0  0  0  0  0  0  0  0  0  0
    3.6774   -1.5547   -0.2402 C   0  0  0  0  0  0  0  0  0  0  0  0
    2.3413   -1.1760    0.2403 N   0  0  0  0  0  0  0  0  0  0  0  0
    7.2976   -3.8692   -1.4748 C   0  0  0  0  0  0  0  0  0  0  0  0
    7.4821   -2.6937   -2.2122 C   0  0  0  0  0  0  0  0  0  0  0  0
    8.0584   -2.7418   -3.4730 C   0  0  0  0  0  0  0  0  0  0  0  0
    8.6031   -3.8984   -3.9855 C   0  0  0  0  0  0  0  0  0  0  0  0
    8.9594   -3.7997   -5.2708 N   0  0  0  0  0  0  0  0  0  0  0  0
    9.6784   -4.8154   -5.7704 C   0  0  0  0  0  0  0  0  0  0  0  0
   10.1229   -5.8653   -4.9763 C   0  0  0  0  0  0  0  0  0  0  0  0
   11.3312   -6.5404   -5.4695 C   0  0  0  0  0  0  0  0  0  0  0  0
   11.6136   -7.8374   -5.9591 C   0  0  0  0  0  0  0  0  0  0  0  0
   12.8704   -7.9689   -6.4232 N   0  0  0  0  0  0  0  0  0  0  0  0
   13.4169   -6.7544   -6.2259 N   0  0  0  0  0  0  0  0  0  0  0  0
   14.8599   -6.5563   -6.2412 C   0  0  0  0  0  0  0  0  0  0  0  0
   15.6457   -7.1914   -7.3843 C   0  0  0  0  0  0  0  0  0  0  0  0
   17.3959   -6.9380   -7.0788 S   0  0  0  0  0  0  0  0  0  0  0  0
   18.2245   -7.7022   -8.4565 C   0  0  0  0  0  0  0  0  0  0  0  0
   17.6573   -5.5135   -7.1539 O   0  0  0  0  0  0  0  0  0  0  0  0
   17.7554   -7.6900   -5.8916 O   0  0  0  0  0  0  0  0  0  0  0  0
   12.4957   -5.8425   -5.7788 C   0  0  0  0  0  0  0  0  0  0  0  0
    9.6293   -6.0385   -3.7036 N   0  0  0  0  0  0  0  0  0  0  0  0
    8.7849   -5.0307   -3.1790 C   0  0  0  0  0  0  0  0  0  0  0  0
    8.0369   -5.0133   -1.9182 C   0  0  0  0  0  0  0  0  0  0  0  0
    6.8568   -4.0400    1.8746 C   0  0  0  0  0  0  0  0  0  0  0  0
    8.0725   -4.1896    6.1022 H   0  0  0  0  0  0  0  0  0  0  0  0
    7.9084   -5.7247    5.2393 H   0  0  0  0  0  0  0  0  0  0  0  0
    6.4612   -4.8579    5.8834 H   0  0  0  0  0  0  0  0  0  0  0  0
    5.4811   -5.9640    4.3292 H   0  0  0  0  0  0  0  0  0  0  0  0
    3.0107   -8.4297    3.3885 H   0  0  0  0  0  0  0  0  0  0  0  0
    3.3455   -6.9344    4.2705 H   0  0  0  0  0  0  0  0  0  0  0  0
    4.6643   -8.1212    3.9287 H   0  0  0  0  0  0  0  0  0  0  0  0
    4.6067   -5.8988    0.1504 H   0  0  0  0  0  0  0  0  0  0  0  0
    4.6765   -4.5892   -1.6871 H   0  0  0  0  0  0  0  0  0  0  0  0
    5.0810   -2.9509   -2.1115 H   0  0  0  0  0  0  0  0  0  0  0  0
    3.4692   -3.6090    0.3870 H   0  0  0  0  0  0  0  0  0  0  0  0
    2.8584   -3.2561   -1.2133 H   0  0  0  0  0  0  0  0  0  0  0  0
    3.8959   -0.9733   -1.1435 H   0  0  0  0  0  0  0  0  0  0  0  0
    4.4156   -1.2931    0.5224 H   0  0  0  0  0  0  0  0  0  0  0  0
    1.6443   -1.3430   -0.4856 H   0  0  0  0  0  0  0  0  0  0  0  0
    2.3068   -0.1773    0.4421 H   0  0  0  0  0  0  0  0  0  0  0  0
    7.0550   -1.7636   -1.8640 H   0  0  0  0  0  0  0  0  0  0  0  0
    8.0469   -1.8456   -4.0871 H   0  0  0  0  0  0  0  0  0  0  0  0
    9.9772   -4.7085   -6.8064 H   0  0  0  0  0  0  0  0  0  0  0  0
   10.9553   -8.6939   -6.0207 H   0  0  0  0  0  0  0  0  0  0  0  0
   15.2090   -6.9459   -5.2781 H   0  0  0  0  0  0  0  0  0  0  0  0
   15.0362   -5.4729   -6.2326 H   0  0  0  0  0  0  0  0  0  0  0  0
   15.4093   -6.7273   -8.3466 H   0  0  0  0  0  0  0  0  0  0  0  0
   15.4831   -8.2706   -7.4495 H   0  0  0  0  0  0  0  0  0  0  0  0
   18.0088   -7.1359   -9.3638 H   0  0  0  0  0  0  0  0  0  0  0  0
   17.8901   -8.7363   -8.5486 H   0  0  0  0  0  0  0  0  0  0  0  0
   19.3001   -7.6814   -8.2576 H   0  0  0  0  0  0  0  0  0  0  0  0
   12.7558   -4.7978   -5.6642 H   0  0  0  0  0  0  0  0  0  0  0  0
    7.9997   -5.9326   -1.3280 H   0  0  0  0  0  0  0  0  0  0  0  0
    7.5556   -3.2091    1.7688 H   0  0  0  0  0  0  0  0  0  0  0  0
  1  2  1  0  0  0  0
  1 37  1  0  0  0  0
  1 38  1  0  0  0  0
  1 39  1  0  0  0  0
  2  3  1  0  0  0  0
  3  4  1  0  0  0  0
  3 36  2  0  0  0  0
  4  5  2  0  0  0  0
  4 40  1  0  0  0  0
  5  6  1  0  0  0  0
  5  8  1  0  0  0  0
  6  7  1  0  0  0  0
  7 41  1  0  0  0  0
  7 42  1  0  0  0  0
  7 43  1  0  0  0  0
  8  9  2  0  0  0  0
  8 44  1  0  0  0  0
  9 10  1  0  0  0  0
  9 36  1  0  0  0  0
 10 11  1  0  0  0  0
 10 15  1  0  0  0  0
 11 12  1  0  0  0  0
 11 45  1  0  0  0  0
 11 46  1  0  0  0  0
 12 13  1  0  0  0  0
 12 47  1  0  0  0  0
 12 48  1  0  0  0  0
 13 14  1  0  0  0  0
 13 49  1  0  0  0  0
 13 50  1  0  0  0  0
 14 51  1  0  0  0  0
 14 52  1  0  0  0  0
 15 16  1  0  0  0  0
 15 35  2  0  0  0  0
 16 17  2  0  0  0  0
 16 53  1  0  0  0  0
 17 18  1  0  0  0  0
 17 54  1  0  0  0  0
 18 19  1  0  0  0  0
 18 34  2  0  0  0  0
 19 20  2  0  0  0  0
 20 21  1  0  0  0  0
 20 55  1  0  0  0  0
 21 22  1  0  0  0  0
 21 33  2  0  0  0  0
 22 23  1  0  0  0  0
 22 32  2  0  0  0  0
 23 24  2  0  0  0  0
 23 56  1  0  0  0  0
 24 25  1  0  0  0  0
 25 26  1  0  0  0  0
 25 32  1  0  0  0  0
 26 27  1  0  0  0  0
 26 57  1  0  0  0  0
 26 58  1  0  0  0  0
 27 28  1  0  0  0  0
 27 59  1  0  0  0  0
 27 60  1  0  0  0  0
 28 29  1  0  0  0  0
 28 30  2  0  0  0  0
 28 31  2  0  0  0  0
 29 61  1  0  0  0  0
 29 62  1  0  0  0  0
 29 63  1  0  0  0  0
 32 64  1  0  0  0  0
 33 34  1  0  0  0  0
 34 35  1  0  0  0  0
 35 65  1  0  0  0  0
 36 66  1  0  0  0  0
M  END
$$$$
