CHEMBL3978824
 OpenBabel04072215373D

 75 79  0  0  1  0  0  0  0  0999 V2000
   -2.1969   -2.4977    0.6888 C   0  0  0  0  0  0  0  0  0  0  0  0
   -0.7789   -2.3228    0.7522 O   0  0  0  0  0  0  0  0  0  0  0  0
   -0.1536   -3.1080    1.6785 C   0  0  0  0  0  0  0  0  0  0  0  0
   -0.7317   -3.8739    2.4411 O   0  0  0  0  0  0  0  0  0  0  0  0
    1.3639   -2.9640    1.5848 C   0  0  3  0  0  0  0  0  0  0  0  0
    2.1065   -3.8997    2.5240 C   0  0  0  0  0  0  0  0  0  0  0  0
    3.5198   -3.3644    2.4701 C   0  0  0  0  0  0  0  0  0  0  0  0
    3.3593   -1.8725    2.2059 C   0  0  0  0  0  0  0  0  0  0  0  0
    1.9379   -1.6145    1.8787 N   0  0  0  0  0  0  0  0  0  0  0  0
    1.2577   -0.8792    2.9599 C   0  0  0  0  0  0  0  0  0  0  0  0
    1.8022    0.5491    3.1682 C   0  0  0  0  0  0  0  0  0  0  0  0
    1.8196    1.3972    1.8979 C   0  0  0  0  0  0  0  0  0  0  0  0
    0.4886    1.6651    1.4052 N   0  0  0  0  0  0  0  0  0  0  0  0
   -0.2568    2.7406    1.8310 C   0  0  0  0  0  0  0  0  0  0  0  0
    0.1967    3.5707    2.6173 O   0  0  0  0  0  0  0  0  0  0  0  0
   -1.6022    2.8317    1.2865 C   0  0  0  0  0  0  0  0  0  0  0  0
   -2.4919    3.8657    1.4914 C   0  0  0  0  0  0  0  0  0  0  0  0
   -3.7209    3.6900    0.7960 C   0  0  0  0  0  0  0  0  0  0  0  0
   -4.7485    4.5798    0.8103 N   0  0  0  0  0  0  0  0  0  0  0  0
   -5.8118    4.2569    0.0569 C   0  0  0  0  0  0  0  0  0  0  0  0
   -5.9323    3.1032   -0.6891 C   0  0  0  0  0  0  0  0  0  0  0  0
   -4.9073    2.1475   -0.6436 C   0  0  0  0  0  0  0  0  0  0  0  0
   -4.9857    0.9348   -1.3101 O   0  0  0  0  0  0  0  0  0  0  0  0
   -6.1665    0.2229   -1.2316 C   0  0  0  0  0  0  0  0  0  0  0  0
   -7.0368    0.3088   -0.1450 C   0  0  0  0  0  0  0  0  0  0  0  0
   -8.2689   -0.3387   -0.1802 C   0  0  0  0  0  0  0  0  0  0  0  0
   -8.6408   -1.1181   -1.2798 C   0  0  0  0  0  0  0  0  0  0  0  0
   -9.9326   -1.7043   -1.3637 N   0  0  0  0  0  0  0  0  0  0  0  0
  -11.0313   -1.1180   -0.7736 C   0  0  0  0  0  0  0  0  0  0  0  0
  -11.0111    0.0053   -0.2749 O   0  0  0  0  0  0  0  0  0  0  0  0
  -12.1520   -1.9377   -0.7608 N   0  0  0  0  0  0  0  0  0  0  0  0
  -13.2843   -1.4588   -0.0422 C   0  0  0  0  0  0  0  0  0  0  0  0
  -13.7740   -0.1660   -0.2655 C   0  0  0  0  0  0  0  0  0  0  0  0
  -14.6769    0.4205    0.6280 C   0  0  0  0  0  0  0  0  0  0  0  0
  -15.0760    1.8572    0.4601 C   0  0  0  0  0  0  0  0  0  0  0  0
  -15.1142   -0.3190    1.7341 C   0  0  0  0  0  0  0  0  0  0  0  0
  -14.6954   -1.6417    1.9117 C   0  0  0  0  0  0  0  0  0  0  0  0
  -13.7983   -2.2109    1.0120 C   0  0  0  0  0  0  0  0  0  0  0  0
  -13.3401   -3.4524    1.2348 F   0  0  0  0  0  0  0  0  0  0  0  0
   -7.7072   -1.3049   -2.3015 C   0  0  0  0  0  0  0  0  0  0  0  0
   -8.0110   -2.0952   -3.3433 F   0  0  0  0  0  0  0  0  0  0  0  0
   -6.4784   -0.6353   -2.2898 C   0  0  0  0  0  0  0  0  0  0  0  0
   -3.7559    2.4862    0.0882 C   0  0  0  0  0  0  0  0  0  0  0  0
   -2.2857    1.6167    0.2922 S   0  0  0  0  0  0  0  0  0  0  0  0
   -2.5400   -2.1308   -0.2825 H   0  0  0  0  0  0  0  0  0  0  0  0
   -2.6779   -1.9113    1.4768 H   0  0  0  0  0  0  0  0  0  0  0  0
   -2.4827   -3.5526    0.7671 H   0  0  0  0  0  0  0  0  0  0  0  0
    1.6336   -3.2265    0.5518 H   0  0  0  0  0  0  0  0  0  0  0  0
    2.0524   -4.9447    2.2038 H   0  0  0  0  0  0  0  0  0  0  0  0
    1.7137   -3.8420    3.5466 H   0  0  0  0  0  0  0  0  0  0  0  0
    4.0695   -3.8312    1.6445 H   0  0  0  0  0  0  0  0  0  0  0  0
    4.0628   -3.5659    3.3986 H   0  0  0  0  0  0  0  0  0  0  0  0
    3.9830   -1.5701    1.3574 H   0  0  0  0  0  0  0  0  0  0  0  0
    3.7214   -1.3139    3.0745 H   0  0  0  0  0  0  0  0  0  0  0  0
    1.3182   -1.4252    3.9094 H   0  0  0  0  0  0  0  0  0  0  0  0
    0.1922   -0.7773    2.7238 H   0  0  0  0  0  0  0  0  0  0  0  0
    2.8182    0.5156    3.5757 H   0  0  0  0  0  0  0  0  0  0  0  0
    1.1894    1.0434    3.9326 H   0  0  0  0  0  0  0  0  0  0  0  0
    2.3756    0.9103    1.0910 H   0  0  0  0  0  0  0  0  0  0  0  0
    2.3182    2.3504    2.1067 H   0  0  0  0  0  0  0  0  0  0  0  0
    0.0474    0.9716    0.8135 H   0  0  0  0  0  0  0  0  0  0  0  0
   -2.2633    4.7299    2.1047 H   0  0  0  0  0  0  0  0  0  0  0  0
   -6.6235    4.9810    0.0856 H   0  0  0  0  0  0  0  0  0  0  0  0
   -6.8335    2.9314   -1.2686 H   0  0  0  0  0  0  0  0  0  0  0  0
   -6.8010    0.9094    0.7294 H   0  0  0  0  0  0  0  0  0  0  0  0
   -8.9341   -0.1987    0.6684 H   0  0  0  0  0  0  0  0  0  0  0  0
  -10.1113   -2.2975   -2.1681 H   0  0  0  0  0  0  0  0  0  0  0  0
  -11.9310   -2.9141   -0.5999 H   0  0  0  0  0  0  0  0  0  0  0  0
  -13.3860    0.4182   -1.0982 H   0  0  0  0  0  0  0  0  0  0  0  0
  -14.7877    2.2394   -0.5269 H   0  0  0  0  0  0  0  0  0  0  0  0
  -14.5842    2.4744    1.2189 H   0  0  0  0  0  0  0  0  0  0  0  0
  -16.1600    1.9649    0.5522 H   0  0  0  0  0  0  0  0  0  0  0  0
  -15.7630    0.1422    2.4758 H   0  0  0  0  0  0  0  0  0  0  0  0
  -15.0205   -2.2094    2.7777 H   0  0  0  0  0  0  0  0  0  0  0  0
   -5.7898   -0.7671   -3.1183 H   0  0  0  0  0  0  0  0  0  0  0  0
  1  2  1  0  0  0  0
  1 45  1  0  0  0  0
  1 46  1  0  0  0  0
  1 47  1  0  0  0  0
  2  3  1  0  0  0  0
  3  4  2  0  0  0  0
  3  5  1  0  0  0  0
  5  6  1  0  0  0  0
  5  9  1  0  0  0  0
  5 48  1  0  0  0  0
  6  7  1  0  0  0  0
  6 49  1  0  0  0  0
  6 50  1  0  0  0  0
  7  8  1  0  0  0  0
  7 51  1  0  0  0  0
  7 52  1  0  0  0  0
  8  9  1  0  0  0  0
  8 53  1  0  0  0  0
  8 54  1  0  0  0  0
  9 10  1  0  0  0  0
 10 11  1  0  0  0  0
 10 55  1  0  0  0  0
 10 56  1  0  0  0  0
 11 12  1  0  0  0  0
 11 57  1  0  0  0  0
 11 58  1  0  0  0  0
 12 13  1  0  0  0  0
 12 59  1  0  0  0  0
 12 60  1  0  0  0  0
 13 14  1  0  0  0  0
 13 61  1  0  0  0  0
 14 15  2  0  0  0  0
 14 16  1  0  0  0  0
 16 17  2  0  0  0  0
 16 44  1  0  0  0  0
 17 18  1  0  0  0  0
 17 62  1  0  0  0  0
 18 19  1  0  0  0  0
 18 43  2  0  0  0  0
 19 20  2  0  0  0  0
 20 21  1  0  0  0  0
 20 63  1  0  0  0  0
 21 22  2  0  0  0  0
 21 64  1  0  0  0  0
 22 23  1  0  0  0  0
 22 43  1  0  0  0  0
 23 24  1  0  0  0  0
 24 25  1  0  0  0  0
 24 42  2  0  0  0  0
 25 26  2  0  0  0  0
 25 65  1  0  0  0  0
 26 27  1  0  0  0  0
 26 66  1  0  0  0  0
 27 28  1  0  0  0  0
 27 40  2  0  0  0  0
 28 29  1  0  0  0  0
 28 67  1  0  0  0  0
 29 30  2  0  0  0  0
 29 31  1  0  0  0  0
 31 32  1  0  0  0  0
 31 68  1  0  0  0  0
 32 33  1  0  0  0  0
 32 38  2  0  0  0  0
 33 34  2  0  0  0  0
 33 69  1  0  0  0  0
 34 35  1  0  0  0  0
 34 36  1  0  0  0  0
 35 70  1  0  0  0  0
 35 71  1  0  0  0  0
 35 72  1  0  0  0  0
 36 37  2  0  0  0  0
 36 73  1  0  0  0  0
 37 38  1  0  0  0  0
 37 74  1  0  0  0  0
 38 39  1  0  0  0  0
 40 41  1  0  0  0  0
 40 42  1  0  0  0  0
 42 75  1  0  0  0  0
 43 44  1  0  0  0  0
M  END
$$$$
