CHEMBL4077291
 OpenBabel04072215383D

 57 62  0  0  0  0  0  0  0  0999 V2000
    1.5205    8.2849   -4.7589 C   0  0  0  0  0  0  0  0  0  0  0  0
    2.1911    7.5916   -5.9447 C   0  0  0  0  0  0  0  0  0  0  0  0
    2.9363    6.3834   -5.5646 N   0  0  0  0  0  0  0  0  0  0  0  0
    3.6375    5.7902   -6.7165 C   0  0  0  0  0  0  0  0  0  0  0  0
    4.6086    4.6876   -6.2426 C   0  0  0  0  0  0  0  0  0  0  0  0
    3.9814    3.7362   -5.2644 C   0  0  0  0  0  0  0  0  0  0  0  0
    2.7879    4.0674   -4.6294 C   0  0  0  0  0  0  0  0  0  0  0  0
    2.1833    3.2686   -3.7217 N   0  0  0  0  0  0  0  0  0  0  0  0
    2.8390    2.1566   -3.3882 C   0  0  0  0  0  0  0  0  0  0  0  0
    4.0037    1.7581   -3.8985 N   0  0  0  0  0  0  0  0  0  0  0  0
    4.5399    2.5335   -4.8665 C   0  0  0  0  0  0  0  0  0  0  0  0
    5.6949    2.0697   -5.5085 O   0  0  0  0  0  0  0  0  0  0  0  0
    5.8853    0.6924   -5.5021 C   0  0  0  0  0  0  0  0  0  0  0  0
    4.8384   -0.1896   -5.7745 C   0  0  0  0  0  0  0  0  0  0  0  0
    4.9816   -1.5668   -5.5995 C   0  0  0  0  0  0  0  0  0  0  0  0
    6.2380   -2.0589   -5.2050 C   0  0  0  0  0  0  0  0  0  0  0  0
    7.3296   -1.2031   -5.0304 C   0  0  0  0  0  0  0  0  0  0  0  0
    8.4299   -2.0111   -4.6389 C   0  0  0  0  0  0  0  0  0  0  0  0
    7.9609   -3.2892   -4.4496 C   0  0  0  0  0  0  0  0  0  0  0  0
    6.6218   -3.3374   -4.7950 N   0  0  0  0  0  0  0  0  0  0  0  0
    5.7829   -4.4491   -4.5760 C   0  0  0  0  0  0  0  0  0  0  0  0
    5.8843   -5.0798   -3.5358 O   0  0  0  0  0  0  0  0  0  0  0  0
    5.0202   -4.7347   -5.6866 N   0  0  0  0  0  0  0  0  0  0  0  0
    4.1645   -5.8235   -5.6470 C   0  0  0  0  0  0  0  0  0  0  0  0
    3.2036   -6.1117   -4.6521 C   0  0  0  0  0  0  0  0  0  0  0  0
    2.6636   -7.3162   -5.0293 C   0  0  0  0  0  0  0  0  0  0  0  0
    1.5896   -8.0691   -4.2642 C   0  0  0  0  0  0  0  0  0  0  0  0
    1.7015   -9.5753   -4.1556 C   0  0  0  0  0  0  0  0  0  0  0  0
    0.6527   -8.9798   -5.0298 C   0  0  0  0  0  0  0  0  0  0  0  0
    3.2471   -7.7134   -6.1946 O   0  0  0  0  0  0  0  0  0  0  0  0
    4.1390   -6.7357   -6.6223 N   0  0  0  0  0  0  0  0  0  0  0  0
    7.1589    0.1965   -5.2013 C   0  0  0  0  0  0  0  0  0  0  0  0
    2.0620    5.3546   -4.9682 C   0  0  0  0  0  0  0  0  0  0  0  0
    1.0992    9.2455   -5.0727 H   0  0  0  0  0  0  0  0  0  0  0  0
    2.2388    8.4800   -3.9553 H   0  0  0  0  0  0  0  0  0  0  0  0
    0.6968    7.6909   -4.3501 H   0  0  0  0  0  0  0  0  0  0  0  0
    2.8940    8.3133   -6.3794 H   0  0  0  0  0  0  0  0  0  0  0  0
    1.4379    7.3724   -6.7114 H   0  0  0  0  0  0  0  0  0  0  0  0
    4.2141    6.5511   -7.2546 H   0  0  0  0  0  0  0  0  0  0  0  0
    2.9143    5.3710   -7.4337 H   0  0  0  0  0  0  0  0  0  0  0  0
    5.4658    5.1657   -5.7508 H   0  0  0  0  0  0  0  0  0  0  0  0
    4.9825    4.1459   -7.1188 H   0  0  0  0  0  0  0  0  0  0  0  0
    2.3777    1.5111   -2.6499 H   0  0  0  0  0  0  0  0  0  0  0  0
    3.8567    0.1970   -6.0324 H   0  0  0  0  0  0  0  0  0  0  0  0
    4.1101   -2.2074   -5.6865 H   0  0  0  0  0  0  0  0  0  0  0  0
    9.4418   -1.6799   -4.4397 H   0  0  0  0  0  0  0  0  0  0  0  0
    8.4583   -4.1873   -4.1001 H   0  0  0  0  0  0  0  0  0  0  0  0
    5.4411   -4.5681   -6.5914 H   0  0  0  0  0  0  0  0  0  0  0  0
    2.9436   -5.5217   -3.7870 H   0  0  0  0  0  0  0  0  0  0  0  0
    1.1890   -7.5534   -3.3970 H   0  0  0  0  0  0  0  0  0  0  0  0
    1.3880  -10.0360   -3.2249 H   0  0  0  0  0  0  0  0  0  0  0  0
    2.5376  -10.0766   -4.6296 H   0  0  0  0  0  0  0  0  0  0  0  0
   -0.3778   -9.0408   -4.6978 H   0  0  0  0  0  0  0  0  0  0  0  0
    0.7736   -9.0842   -6.1023 H   0  0  0  0  0  0  0  0  0  0  0  0
    7.9863    0.8743   -5.0219 H   0  0  0  0  0  0  0  0  0  0  0  0
    1.6366    5.7275   -4.0306 H   0  0  0  0  0  0  0  0  0  0  0  0
    1.2300    5.1087   -5.6427 H   0  0  0  0  0  0  0  0  0  0  0  0
  1  2  1  0  0  0  0
  1 34  1  0  0  0  0
  1 35  1  0  0  0  0
  1 36  1  0  0  0  0
  2  3  1  0  0  0  0
  2 37  1  0  0  0  0
  2 38  1  0  0  0  0
  3  4  1  0  0  0  0
  3 33  1  0  0  0  0
  4  5  1  0  0  0  0
  4 39  1  0  0  0  0
  4 40  1  0  0  0  0
  5  6  1  0  0  0  0
  5 41  1  0  0  0  0
  5 42  1  0  0  0  0
  6  7  1  0  0  0  0
  6 11  2  0  0  0  0
  7  8  2  0  0  0  0
  7 33  1  0  0  0  0
  8  9  1  0  0  0  0
  9 10  2  0  0  0  0
  9 43  1  0  0  0  0
 10 11  1  0  0  0  0
 11 12  1  0  0  0  0
 12 13  1  0  0  0  0
 13 14  1  0  0  0  0
 13 32  2  0  0  0  0
 14 15  2  0  0  0  0
 14 44  1  0  0  0  0
 15 16  1  0  0  0  0
 15 45  1  0  0  0  0
 16 17  2  0  0  0  0
 16 20  1  0  0  0  0
 17 18  1  0  0  0  0
 17 32  1  0  0  0  0
 18 19  2  0  0  0  0
 18 46  1  0  0  0  0
 19 20  1  0  0  0  0
 19 47  1  0  0  0  0
 20 21  1  0  0  0  0
 21 22  2  0  0  0  0
 21 23  1  0  0  0  0
 23 24  1  0  0  0  0
 23 48  1  0  0  0  0
 24 25  1  0  0  0  0
 24 31  2  0  0  0  0
 25 26  2  0  0  0  0
 25 49  1  0  0  0  0
 26 27  1  0  0  0  0
 26 30  1  0  0  0  0
 27 28  1  0  0  0  0
 27 29  1  0  0  0  0
 27 50  1  0  0  0  0
 28 29  1  0  0  0  0
 28 51  1  0  0  0  0
 28 52  1  0  0  0  0
 29 53  1  0  0  0  0
 29 54  1  0  0  0  0
 30 31  1  0  0  0  0
 32 55  1  0  0  0  0
 33 56  1  0  0  0  0
 33 57  1  0  0  0  0
M  END
$$$$
