CHEMBL4580644
 OpenBabel04072215383D

 51 55  0  0  0  0  0  0  0  0999 V2000
    6.3082    1.9069   -1.3454 N   0  0  0  0  0  0  0  0  0  0  0  0
    6.3221    0.5119   -1.3796 C   0  0  0  0  0  0  0  0  0  0  0  0
    6.9254   -0.0091   -2.4681 N   0  0  0  0  0  0  0  0  0  0  0  0
    6.9564   -1.3532   -2.5788 C   0  0  0  0  0  0  0  0  0  0  0  0
    6.4057   -2.2142   -1.6481 C   0  0  0  0  0  0  0  0  0  0  0  0
    5.7259   -1.6709   -0.5650 C   0  0  0  0  0  0  0  0  0  0  0  0
    5.1130   -2.4819    0.3688 O   0  0  0  0  0  0  0  0  0  0  0  0
    4.3892   -3.5789   -0.0597 C   0  0  0  0  0  0  0  0  0  0  0  0
    4.3396   -4.6687    0.8136 C   0  0  0  0  0  0  0  0  0  0  0  0
    3.5514   -5.7930    0.5086 C   0  0  0  0  0  0  0  0  0  0  0  0
    2.7958   -5.8469   -0.6699 C   0  0  0  0  0  0  0  0  0  0  0  0
    1.9458   -6.9353   -0.9387 N   0  0  0  0  0  0  0  0  0  0  0  0
    1.5901   -7.4460   -2.1930 C   0  0  0  0  0  0  0  0  0  0  0  0
    2.6088   -7.5166   -3.1009 N   0  0  0  0  0  0  0  0  0  0  0  0
    2.3564   -7.9487   -4.3484 C   0  0  0  0  0  0  0  0  0  0  0  0
    1.0978   -8.2714   -4.7853 C   0  0  0  0  0  0  0  0  0  0  0  0
    0.0415   -8.1316   -3.8923 C   0  0  0  0  0  0  0  0  0  0  0  0
   -1.2537   -8.3696   -4.3519 N   0  0  0  0  0  0  0  0  0  0  0  0
   -2.3206   -8.0865   -3.5588 C   0  0  0  0  0  0  0  0  0  0  0  0
   -2.3065   -7.8434   -2.2361 C   0  0  0  0  0  0  0  0  0  0  0  0
   -3.6214   -7.6584   -1.5344 C   0  0  0  0  0  0  0  0  0  0  0  0
   -4.8197   -8.1651   -2.1090 C   0  0  0  0  0  0  0  0  0  0  0  0
   -6.0818   -7.9140   -1.5645 C   0  0  0  0  0  0  0  0  0  0  0  0
   -6.1728   -7.1891   -0.3931 C   0  0  0  0  0  0  0  0  0  0  0  0
   -7.3789   -6.9306    0.1288 F   0  0  0  0  0  0  0  0  0  0  0  0
   -5.0242   -6.7337    0.2433 C   0  0  0  0  0  0  0  0  0  0  0  0
   -3.7565   -6.9644   -0.3234 C   0  0  0  0  0  0  0  0  0  0  0  0
   -0.9130   -7.7551   -1.6153 C   0  0  0  0  0  0  0  0  0  0  0  0
   -0.7423   -7.6832   -0.3980 O   0  0  0  0  0  0  0  0  0  0  0  0
    0.2749   -7.7858   -2.5479 C   0  0  0  0  0  0  0  0  0  0  0  0
    2.9240   -4.7859   -1.5752 C   0  0  0  0  0  0  0  0  0  0  0  0
    3.6661   -3.6513   -1.2513 C   0  0  0  0  0  0  0  0  0  0  0  0
    3.6436   -2.6263   -2.1163 F   0  0  0  0  0  0  0  0  0  0  0  0
    5.7111   -0.2826   -0.3986 C   0  0  0  0  0  0  0  0  0  0  0  0
    4.9941    0.4406    1.0019 Cl  0  0  0  0  0  0  0  0  0  0  0  0
    6.8755    2.2412   -2.1158 H   0  0  0  0  0  0  0  0  0  0  0  0
    6.5894    2.2708   -0.4447 H   0  0  0  0  0  0  0  0  0  0  0  0
    7.4369   -1.7348   -3.4749 H   0  0  0  0  0  0  0  0  0  0  0  0
    6.4819   -3.2868   -1.7990 H   0  0  0  0  0  0  0  0  0  0  0  0
    4.9017   -4.6426    1.7443 H   0  0  0  0  0  0  0  0  0  0  0  0
    3.5320   -6.6261    1.2073 H   0  0  0  0  0  0  0  0  0  0  0  0
    1.6203   -7.4873   -0.1532 H   0  0  0  0  0  0  0  0  0  0  0  0
    3.2159   -8.0106   -5.0084 H   0  0  0  0  0  0  0  0  0  0  0  0
    0.9379   -8.6016   -5.8049 H   0  0  0  0  0  0  0  0  0  0  0  0
   -1.4123   -8.3937   -5.3549 H   0  0  0  0  0  0  0  0  0  0  0  0
   -3.2342   -8.0776   -4.1434 H   0  0  0  0  0  0  0  0  0  0  0  0
   -4.8044   -8.7698   -3.0130 H   0  0  0  0  0  0  0  0  0  0  0  0
   -6.9806   -8.2779   -2.0535 H   0  0  0  0  0  0  0  0  0  0  0  0
   -5.1219   -6.1884    1.1771 H   0  0  0  0  0  0  0  0  0  0  0  0
   -2.8845   -6.5782    0.1995 H   0  0  0  0  0  0  0  0  0  0  0  0
    2.4004   -4.7985   -2.5261 H   0  0  0  0  0  0  0  0  0  0  0  0
  1  2  1  0  0  0  0
  1 36  1  0  0  0  0
  1 37  1  0  0  0  0
  2  3  1  0  0  0  0
  2 34  2  0  0  0  0
  3  4  2  0  0  0  0
  4  5  1  0  0  0  0
  4 38  1  0  0  0  0
  5  6  2  0  0  0  0
  5 39  1  0  0  0  0
  6  7  1  0  0  0  0
  6 34  1  0  0  0  0
  7  8  1  0  0  0  0
  8  9  1  0  0  0  0
  8 32  2  0  0  0  0
  9 10  2  0  0  0  0
  9 40  1  0  0  0  0
 10 11  1  0  0  0  0
 10 41  1  0  0  0  0
 11 12  1  0  0  0  0
 11 31  2  0  0  0  0
 12 13  1  0  0  0  0
 12 42  1  0  0  0  0
 13 14  1  0  0  0  0
 13 30  2  0  0  0  0
 14 15  2  0  0  0  0
 15 16  1  0  0  0  0
 15 43  1  0  0  0  0
 16 17  2  0  0  0  0
 16 44  1  0  0  0  0
 17 18  1  0  0  0  0
 17 30  1  0  0  0  0
 18 19  1  0  0  0  0
 18 45  1  0  0  0  0
 19 20  2  0  0  0  0
 19 46  1  0  0  0  0
 20 21  1  0  0  0  0
 20 28  1  0  0  0  0
 21 22  1  0  0  0  0
 21 27  2  0  0  0  0
 22 23  2  0  0  0  0
 22 47  1  0  0  0  0
 23 24  1  0  0  0  0
 23 48  1  0  0  0  0
 24 25  1  0  0  0  0
 24 26  2  0  0  0  0
 26 27  1  0  0  0  0
 26 49  1  0  0  0  0
 27 50  1  0  0  0  0
 28 29  2  0  0  0  0
 28 30  1  0  0  0  0
 31 32  1  0  0  0  0
 31 51  1  0  0  0  0
 32 33  1  0  0  0  0
 34 35  1  0  0  0  0
M  END
$$$$
