CHEMBL98995
 OpenBabel04072215383D

 33 35  0  0  0  0  0  0  0  0999 V2000
    5.1592   -3.8301   -0.3631 C   0  0  0  0  0  0  0  0  0  0  0  0
    5.2519   -2.5823    0.3193 O   0  0  0  0  0  0  0  0  0  0  0  0
    4.8066   -2.5783    1.6205 C   0  0  0  0  0  0  0  0  0  0  0  0
    4.7159   -3.7219    2.4177 C   0  0  0  0  0  0  0  0  0  0  0  0
    4.2630   -3.6129    3.7277 C   0  0  0  0  0  0  0  0  0  0  0  0
    3.9276   -2.3590    4.1987 C   0  0  0  0  0  0  0  0  0  0  0  0
    4.0149   -1.2345    3.4615 N   0  0  0  0  0  0  0  0  0  0  0  0
    4.4423   -1.3350    2.1801 C   0  0  0  0  0  0  0  0  0  0  0  0
    4.5280   -0.1783    1.3759 N   0  0  0  0  0  0  0  0  0  0  0  0
    3.8336    0.9577    1.6090 C   0  0  0  0  0  0  0  0  0  0  0  0
    2.6029    1.0320    2.0717 N   0  0  0  0  0  0  0  0  0  0  0  0
    2.1693    2.3396    2.0877 C   0  0  0  0  0  0  0  0  0  0  0  0
    3.0610    3.2920    1.6235 C   0  0  0  0  0  0  0  0  0  0  0  0
    2.8870    4.7476    1.4898 C   0  0  0  0  0  0  0  0  0  0  0  0
    1.9923    5.4325    2.3314 C   0  0  0  0  0  0  0  0  0  0  0  0
    1.7788    6.8082    2.1945 C   0  0  0  0  0  0  0  0  0  0  0  0
    2.4603    7.5255    1.2145 C   0  0  0  0  0  0  0  0  0  0  0  0
    3.3532    6.8684    0.3741 C   0  0  0  0  0  0  0  0  0  0  0  0
    3.5624    5.4920    0.5095 C   0  0  0  0  0  0  0  0  0  0  0  0
    4.5168    2.4857    1.1814 S   0  0  0  0  0  0  0  0  0  0  0  0
    5.3506   -3.6504   -1.4252 H   0  0  0  0  0  0  0  0  0  0  0  0
    4.1564   -4.2638   -0.2747 H   0  0  0  0  0  0  0  0  0  0  0  0
    5.9219   -4.5283   -0.0032 H   0  0  0  0  0  0  0  0  0  0  0  0
    4.9939   -4.7031    2.0506 H   0  0  0  0  0  0  0  0  0  0  0  0
    4.1757   -4.4846    4.3653 H   0  0  0  0  0  0  0  0  0  0  0  0
    3.5694   -2.2157    5.2138 H   0  0  0  0  0  0  0  0  0  0  0  0
    5.4334   -0.1131    0.9340 H   0  0  0  0  0  0  0  0  0  0  0  0
    1.1641    2.5408    2.4327 H   0  0  0  0  0  0  0  0  0  0  0  0
    1.4481    4.9044    3.1114 H   0  0  0  0  0  0  0  0  0  0  0  0
    1.0784    7.3179    2.8508 H   0  0  0  0  0  0  0  0  0  0  0  0
    2.2933    8.5938    1.1042 H   0  0  0  0  0  0  0  0  0  0  0  0
    3.8839    7.4225   -0.3956 H   0  0  0  0  0  0  0  0  0  0  0  0
    4.2506    5.0110   -0.1814 H   0  0  0  0  0  0  0  0  0  0  0  0
  1  2  1  0  0  0  0
  1 21  1  0  0  0  0
  1 22  1  0  0  0  0
  1 23  1  0  0  0  0
  2  3  1  0  0  0  0
  3  4  1  0  0  0  0
  3  8  2  0  0  0  0
  4  5  2  0  0  0  0
  4 24  1  0  0  0  0
  5  6  1  0  0  0  0
  5 25  1  0  0  0  0
  6  7  2  0  0  0  0
  6 26  1  0  0  0  0
  7  8  1  0  0  0  0
  8  9  1  0  0  0  0
  9 10  1  0  0  0  0
  9 27  1  0  0  0  0
 10 11  2  0  0  0  0
 10 20  1  0  0  0  0
 11 12  1  0  0  0  0
 12 13  2  0  0  0  0
 12 28  1  0  0  0  0
 13 14  1  0  0  0  0
 13 20  1  0  0  0  0
 14 15  1  0  0  0  0
 14 19  2  0  0  0  0
 15 16  2  0  0  0  0
 15 29  1  0  0  0  0
 16 17  1  0  0  0  0
 16 30  1  0  0  0  0
 17 18  2  0  0  0  0
 17 31  1  0  0  0  0
 18 19  1  0  0  0  0
 18 32  1  0  0  0  0
 19 33  1  0  0  0  0
M  END
$$$$
