CHEMBL2386799
 OpenBabel04072215363D

 72 76  0  0  0  0  0  0  0  0999 V2000
    0.8842    0.1680   -0.0555 O   0  0  0  0  0  0  0  0  0  0  0  0
    1.6307    0.9680   -0.6071 C   0  0  0  0  0  0  0  0  0  0  0  0
    2.4132    1.8419    0.1221 N   0  0  0  0  0  0  0  0  0  0  0  0
    2.2465    1.8519    1.5588 C   0  0  0  0  0  0  0  0  0  0  0  0
    3.1359    2.8641    2.2286 C   0  0  0  0  0  0  0  0  0  0  0  0
    2.6921    4.1820    2.3929 C   0  0  0  0  0  0  0  0  0  0  0  0
    3.4844    5.1143    3.0647 C   0  0  0  0  0  0  0  0  0  0  0  0
    4.7381    4.7564    3.5809 C   0  0  0  0  0  0  0  0  0  0  0  0
    5.5008    5.7198    4.3737 C   0  0  0  0  0  0  0  0  0  0  0  0
    4.9501    6.7330    5.2033 C   0  0  0  0  0  0  0  0  0  0  0  0
    6.0100    7.3855    5.7797 C   0  0  0  0  0  0  0  0  0  0  0  0
    5.9924    8.4440    6.6907 N   0  0  0  0  0  0  0  0  0  0  0  0
    4.7644    9.0102    7.1877 C   0  0  0  0  0  0  0  0  0  0  0  0
    3.6793    8.5783    6.8412 O   0  0  0  0  0  0  0  0  0  0  0  0
    4.8441   10.1260    8.1570 C   0  0  0  0  0  0  0  0  0  0  0  0
    5.9197   11.0199    8.1973 C   0  0  0  0  0  0  0  0  0  0  0  0
    5.8813   12.1117    9.0771 C   0  0  0  0  0  0  0  0  0  0  0  0
    4.7705   12.3126    9.9072 C   0  0  0  0  0  0  0  0  0  0  0  0
    4.5787   13.3704   10.7547 O   0  0  0  0  0  0  0  0  0  0  0  0
    5.2714   14.5658   10.3949 C   0  0  0  0  0  0  0  0  0  0  0  0
    4.5631   15.7967   10.9999 C   0  0  0  0  0  0  0  0  0  0  0  0
    5.1924   17.0473   10.5485 N   0  0  0  0  0  0  0  0  0  0  0  0
    6.5791   17.2172   11.0311 C   0  0  0  0  0  0  0  0  0  0  0  0
    6.6764   17.6800   12.4891 C   0  0  0  0  0  0  0  0  0  0  0  0
    6.0134   18.9349   12.6530 O   0  0  0  0  0  0  0  0  0  0  0  0
    4.6258   18.8082   12.3206 C   0  0  0  0  0  0  0  0  0  0  0  0
    4.4142   18.2582   10.8955 C   0  0  0  0  0  0  0  0  0  0  0  0
    3.7266   11.3900    9.8932 C   0  0  0  0  0  0  0  0  0  0  0  0
    3.7548   10.3103    9.0187 C   0  0  0  0  0  0  0  0  0  0  0  0
    7.1204    6.7662    5.2664 N   0  0  0  0  0  0  0  0  0  0  0  0
    6.8396    5.7403    4.4359 N   0  0  0  0  0  0  0  0  0  0  0  0
    5.2016    3.4511    3.3793 C   0  0  0  0  0  0  0  0  0  0  0  0
    4.4054    2.5131    2.7080 C   0  0  0  0  0  0  0  0  0  0  0  0
    1.8127    1.1257   -1.9632 N   0  0  0  0  0  0  0  0  0  0  0  0
    1.1547    0.4224   -2.9979 C   0  0  0  0  0  0  0  0  0  0  0  0
    0.1518   -0.5276   -2.7720 C   0  0  0  0  0  0  0  0  0  0  0  0
   -0.4350   -1.2161   -3.8381 C   0  0  0  0  0  0  0  0  0  0  0  0
   -0.0312   -0.9449   -5.1357 C   0  0  0  0  0  0  0  0  0  0  0  0
   -0.5851   -1.6132   -6.1560 F   0  0  0  0  0  0  0  0  0  0  0  0
    0.9427    0.0113   -5.3884 C   0  0  0  0  0  0  0  0  0  0  0  0
    1.5368    0.6949   -4.3202 C   0  0  0  0  0  0  0  0  0  0  0  0
    2.6205    2.7268   -0.3138 H   0  0  0  0  0  0  0  0  0  0  0  0
    2.4410    0.8460    1.9500 H   0  0  0  0  0  0  0  0  0  0  0  0
    1.1952    2.0756    1.7833 H   0  0  0  0  0  0  0  0  0  0  0  0
    1.7140    4.4830    2.0248 H   0  0  0  0  0  0  0  0  0  0  0  0
    3.0952    6.1227    3.1904 H   0  0  0  0  0  0  0  0  0  0  0  0
    3.8954    6.9100    5.3526 H   0  0  0  0  0  0  0  0  0  0  0  0
    6.8755    8.7734    7.0513 H   0  0  0  0  0  0  0  0  0  0  0  0
    6.7666   10.9319    7.5234 H   0  0  0  0  0  0  0  0  0  0  0  0
    6.7210   12.8007    9.0890 H   0  0  0  0  0  0  0  0  0  0  0  0
    5.2980   14.6908    9.3046 H   0  0  0  0  0  0  0  0  0  0  0  0
    6.2914   14.4750   10.7788 H   0  0  0  0  0  0  0  0  0  0  0  0
    4.5181   15.7143   12.0922 H   0  0  0  0  0  0  0  0  0  0  0  0
    3.5187   15.7669   10.6573 H   0  0  0  0  0  0  0  0  0  0  0  0
    7.0504   17.9707   10.3891 H   0  0  0  0  0  0  0  0  0  0  0  0
    7.1735   16.3104   10.8950 H   0  0  0  0  0  0  0  0  0  0  0  0
    7.7280   17.8165   12.7600 H   0  0  0  0  0  0  0  0  0  0  0  0
    6.2494   16.9470   13.1836 H   0  0  0  0  0  0  0  0  0  0  0  0
    4.1884   19.8101   12.3929 H   0  0  0  0  0  0  0  0  0  0  0  0
    4.1378   18.1770   13.0706 H   0  0  0  0  0  0  0  0  0  0  0  0
    4.7305   19.0388   10.1912 H   0  0  0  0  0  0  0  0  0  0  0  0
    3.3433   18.1092   10.7107 H   0  0  0  0  0  0  0  0  0  0  0  0
    2.8692   11.5417   10.5492 H   0  0  0  0  0  0  0  0  0  0  0  0
    2.9035    9.6315    8.9989 H   0  0  0  0  0  0  0  0  0  0  0  0
    8.0959    6.9754    5.4376 H   0  0  0  0  0  0  0  0  0  0  0  0
    6.1690    3.1464    3.7713 H   0  0  0  0  0  0  0  0  0  0  0  0
    4.7727    1.4949    2.5867 H   0  0  0  0  0  0  0  0  0  0  0  0
    2.5744    1.7275   -2.2380 H   0  0  0  0  0  0  0  0  0  0  0  0
   -0.1947   -0.7679   -1.7719 H   0  0  0  0  0  0  0  0  0  0  0  0
   -1.2000   -1.9639   -3.6537 H   0  0  0  0  0  0  0  0  0  0  0  0
    1.2363    0.2162   -6.4137 H   0  0  0  0  0  0  0  0  0  0  0  0
    2.2986    1.4383   -4.5413 H   0  0  0  0  0  0  0  0  0  0  0  0
  1  2  2  0  0  0  0
  2  3  1  0  0  0  0
  2 34  1  0  0  0  0
  3  4  1  0  0  0  0
  3 42  1  0  0  0  0
  4  5  1  0  0  0  0
  4 43  1  0  0  0  0
  4 44  1  0  0  0  0
  5  6  1  0  0  0  0
  5 33  2  0  0  0  0
  6  7  2  0  0  0  0
  6 45  1  0  0  0  0
  7  8  1  0  0  0  0
  7 46  1  0  0  0  0
  8  9  1  0  0  0  0
  8 32  2  0  0  0  0
  9 10  1  0  0  0  0
  9 31  2  0  0  0  0
 10 11  2  0  0  0  0
 10 47  1  0  0  0  0
 11 12  1  0  0  0  0
 11 30  1  0  0  0  0
 12 13  1  0  0  0  0
 12 48  1  0  0  0  0
 13 14  2  0  0  0  0
 13 15  1  0  0  0  0
 15 16  1  0  0  0  0
 15 29  2  0  0  0  0
 16 17  2  0  0  0  0
 16 49  1  0  0  0  0
 17 18  1  0  0  0  0
 17 50  1  0  0  0  0
 18 19  1  0  0  0  0
 18 28  2  0  0  0  0
 19 20  1  0  0  0  0
 20 21  1  0  0  0  0
 20 51  1  0  0  0  0
 20 52  1  0  0  0  0
 21 22  1  0  0  0  0
 21 53  1  0  0  0  0
 21 54  1  0  0  0  0
 22 23  1  0  0  0  0
 22 27  1  0  0  0  0
 23 24  1  0  0  0  0
 23 55  1  0  0  0  0
 23 56  1  0  0  0  0
 24 25  1  0  0  0  0
 24 57  1  0  0  0  0
 24 58  1  0  0  0  0
 25 26  1  0  0  0  0
 26 27  1  0  0  0  0
 26 59  1  0  0  0  0
 26 60  1  0  0  0  0
 27 61  1  0  0  0  0
 27 62  1  0  0  0  0
 28 29  1  0  0  0  0
 28 63  1  0  0  0  0
 29 64  1  0  0  0  0
 30 31  1  0  0  0  0
 30 65  1  0  0  0  0
 32 33  1  0  0  0  0
 32 66  1  0  0  0  0
 33 67  1  0  0  0  0
 34 35  1  0  0  0  0
 34 68  1  0  0  0  0
 35 36  1  0  0  0  0
 35 41  2  0  0  0  0
 36 37  2  0  0  0  0
 36 69  1  0  0  0  0
 37 38  1  0  0  0  0
 37 70  1  0  0  0  0
 38 39  1  0  0  0  0
 38 40  2  0  0  0  0
 40 41  1  0  0  0  0
 40 71  1  0  0  0  0
 41 72  1  0  0  0  0
M  END
$$$$
