CHEMBL147112
 OpenBabel04072215363D

 52 55  0  0  0  0  0  0  0  0999 V2000
    5.6983    1.0800    1.7121 C   0  0  0  0  0  0  0  0  0  0  0  0
    5.6204    0.6528    0.3573 O   0  0  0  0  0  0  0  0  0  0  0  0
    4.6470    1.2259   -0.4236 C   0  0  0  0  0  0  0  0  0  0  0  0
    4.1307    2.5089   -0.1696 C   0  0  0  0  0  0  0  0  0  0  0  0
    3.1533    3.0705   -0.9935 C   0  0  0  0  0  0  0  0  0  0  0  0
    2.7062    2.3754   -2.1041 C   0  0  0  0  0  0  0  0  0  0  0  0
    3.2311    1.1144   -2.3789 C   0  0  0  0  0  0  0  0  0  0  0  0
    4.1871    0.4902   -1.5397 C   0  0  0  0  0  0  0  0  0  0  0  0
    4.5797   -0.9150   -1.8465 C   0  0  0  0  0  0  0  0  0  0  0  0
    3.5749   -1.8101   -2.3087 C   0  0  0  0  0  0  0  0  0  0  0  0
    3.8457   -3.1249   -2.6716 C   0  0  0  0  0  0  0  0  0  0  0  0
    5.1419   -3.5741   -2.5418 C   0  0  0  0  0  0  0  0  0  0  0  0
    6.1463   -2.7297   -2.0732 C   0  0  0  0  0  0  0  0  0  0  0  0
    5.8954   -1.4096   -1.7244 C   0  0  0  0  0  0  0  0  0  0  0  0
    7.3611   -3.4150   -2.0327 N   0  0  0  0  0  0  0  0  0  0  0  0
    7.2212   -4.7296   -2.4679 C   0  0  0  0  0  0  0  0  0  0  0  0
    8.0991   -5.5659   -2.5822 O   0  0  0  0  0  0  0  0  0  0  0  0
    5.7593   -4.8879   -2.7865 C   0  0  0  0  0  0  0  0  0  0  0  0
    5.0126   -5.9322   -3.1665 C   0  0  0  0  0  0  0  0  0  0  0  0
    5.3602   -7.2925   -3.3596 C   0  0  0  0  0  0  0  0  0  0  0  0
    6.6517   -7.7470   -3.3117 N   0  0  0  0  0  0  0  0  0  0  0  0
    6.6694   -9.1037   -3.5074 C   0  0  0  0  0  0  0  0  0  0  0  0
    5.3755   -9.5423   -3.7146 C   0  0  0  0  0  0  0  0  0  0  0  0
    4.9506  -10.9510   -4.0044 C   0  0  0  0  0  0  0  0  0  0  0  0
    5.1941  -11.8963   -2.8330 C   0  0  0  0  0  0  0  0  0  0  0  0
    4.6845  -13.2802   -3.1469 C   0  0  0  0  0  0  0  0  0  0  0  0
    4.1233  -13.6141   -4.1812 O   0  0  0  0  0  0  0  0  0  0  0  0
    4.9117  -14.1549   -2.1411 O   0  0  0  0  0  0  0  0  0  0  0  0
    4.5367   -8.3861   -3.6154 C   0  0  0  0  0  0  0  0  0  0  0  0
    3.0485   -8.3319   -3.7467 C   0  0  0  0  0  0  0  0  0  0  0  0
    6.4963    0.5073    2.1945 H   0  0  0  0  0  0  0  0  0  0  0  0
    4.7622    0.8673    2.2378 H   0  0  0  0  0  0  0  0  0  0  0  0
    5.9707    2.1363    1.7980 H   0  0  0  0  0  0  0  0  0  0  0  0
    4.4761    3.1087    0.6653 H   0  0  0  0  0  0  0  0  0  0  0  0
    2.7525    4.0561   -0.7727 H   0  0  0  0  0  0  0  0  0  0  0  0
    1.9513    2.8036   -2.7580 H   0  0  0  0  0  0  0  0  0  0  0  0
    2.8693    0.6050   -3.2710 H   0  0  0  0  0  0  0  0  0  0  0  0
    2.5403   -1.4773   -2.3879 H   0  0  0  0  0  0  0  0  0  0  0  0
    3.0451   -3.7587   -3.0359 H   0  0  0  0  0  0  0  0  0  0  0  0
    6.7008   -0.7757   -1.3681 H   0  0  0  0  0  0  0  0  0  0  0  0
    8.2436   -3.0225   -1.7455 H   0  0  0  0  0  0  0  0  0  0  0  0
    3.9549   -5.7471   -3.3246 H   0  0  0  0  0  0  0  0  0  0  0  0
    7.4729   -7.1702   -3.1457 H   0  0  0  0  0  0  0  0  0  0  0  0
    7.6099   -9.6375   -3.4909 H   0  0  0  0  0  0  0  0  0  0  0  0
    5.4877  -11.3061   -4.8927 H   0  0  0  0  0  0  0  0  0  0  0  0
    3.8892  -10.9782   -4.2720 H   0  0  0  0  0  0  0  0  0  0  0  0
    4.6773  -11.5333   -1.9375 H   0  0  0  0  0  0  0  0  0  0  0  0
    6.2676  -11.9640   -2.6202 H   0  0  0  0  0  0  0  0  0  0  0  0
    5.3672  -13.7563   -1.3740 H   0  0  0  0  0  0  0  0  0  0  0  0
    2.6097   -9.3018   -3.9886 H   0  0  0  0  0  0  0  0  0  0  0  0
    2.7596   -7.6331   -4.5388 H   0  0  0  0  0  0  0  0  0  0  0  0
    2.6015   -7.9922   -2.8065 H   0  0  0  0  0  0  0  0  0  0  0  0
  1  2  1  0  0  0  0
  1 31  1  0  0  0  0
  1 32  1  0  0  0  0
  1 33  1  0  0  0  0
  2  3  1  0  0  0  0
  3  4  1  0  0  0  0
  3  8  2  0  0  0  0
  4  5  2  0  0  0  0
  4 34  1  0  0  0  0
  5  6  1  0  0  0  0
  5 35  1  0  0  0  0
  6  7  2  0  0  0  0
  6 36  1  0  0  0  0
  7  8  1  0  0  0  0
  7 37  1  0  0  0  0
  8  9  1  0  0  0  0
  9 10  1  0  0  0  0
  9 14  2  0  0  0  0
 10 11  2  0  0  0  0
 10 38  1  0  0  0  0
 11 12  1  0  0  0  0
 11 39  1  0  0  0  0
 12 13  2  0  0  0  0
 12 18  1  0  0  0  0
 13 14  1  0  0  0  0
 13 15  1  0  0  0  0
 14 40  1  0  0  0  0
 15 16  1  0  0  0  0
 15 41  1  0  0  0  0
 16 17  2  0  0  0  0
 16 18  1  0  0  0  0
 18 19  2  0  0  0  0
 19 20  1  0  0  0  0
 19 42  1  0  0  0  0
 20 21  1  0  0  0  0
 20 29  2  0  0  0  0
 21 22  1  0  0  0  0
 21 43  1  0  0  0  0
 22 23  2  0  0  0  0
 22 44  1  0  0  0  0
 23 24  1  0  0  0  0
 23 29  1  0  0  0  0
 24 25  1  0  0  0  0
 24 45  1  0  0  0  0
 24 46  1  0  0  0  0
 25 26  1  0  0  0  0
 25 47  1  0  0  0  0
 25 48  1  0  0  0  0
 26 27  2  0  0  0  0
 26 28  1  0  0  0  0
 28 49  1  0  0  0  0
 29 30  1  0  0  0  0
 30 50  1  0  0  0  0
 30 51  1  0  0  0  0
 30 52  1  0  0  0  0
M  END
$$$$
