CHEMBL76432
 OpenBabel04072215383D

 39 43  0  0  0  0  0  0  0  0999 V2000
    1.3773   -0.1777    0.0532 C   0  0  0  0  0  0  0  0  0  0  0  0
    0.4929   -1.1231    0.5631 C   0  0  0  0  0  0  0  0  0  0  0  0
   -0.8844   -0.9171    0.4592 C   0  0  0  0  0  0  0  0  0  0  0  0
   -1.4018    0.2348   -0.1566 C   0  0  0  0  0  0  0  0  0  0  0  0
   -2.8602    0.4218   -0.2383 C   0  0  0  0  0  0  0  0  0  0  0  0
   -3.8170    0.0330    0.6774 C   0  0  0  0  0  0  0  0  0  0  0  0
   -5.1460    0.3264    0.2687 C   0  0  0  0  0  0  0  0  0  0  0  0
   -6.2519    0.0337    0.9936 N   0  0  0  0  0  0  0  0  0  0  0  0
   -7.3919    0.4105    0.4157 C   0  0  0  0  0  0  0  0  0  0  0  0
   -7.5255    1.0383   -0.7619 N   0  0  0  0  0  0  0  0  0  0  0  0
   -6.4309    1.3455   -1.4904 C   0  0  0  0  0  0  0  0  0  0  0  0
   -6.5727    2.0069   -2.7188 N   0  0  0  0  0  0  0  0  0  0  0  0
   -7.5460    2.9699   -3.0613 C   0  0  0  0  0  0  0  0  0  0  0  0
   -7.7887    3.2397   -4.4139 C   0  0  0  0  0  0  0  0  0  0  0  0
   -8.7054    4.2192   -4.8221 C   0  0  0  0  0  0  0  0  0  0  0  0
   -9.4270    4.8795   -3.8240 C   0  0  0  0  0  0  0  0  0  0  0  0
  -10.3356    5.9095   -3.9014 N   0  0  0  0  0  0  0  0  0  0  0  0
  -10.9874    6.0455   -2.7038 C   0  0  0  0  0  0  0  0  0  0  0  0
  -10.3255    5.2668   -1.7823 C   0  0  0  0  0  0  0  0  0  0  0  0
   -9.3103    4.5527   -2.4761 C   0  0  0  0  0  0  0  0  0  0  0  0
   -8.3290    3.6208   -2.0923 C   0  0  0  0  0  0  0  0  0  0  0  0
   -5.1885    0.9594   -0.9676 C   0  0  0  0  0  0  0  0  0  0  0  0
   -3.6005    1.1638   -1.5989 S   0  0  0  0  0  0  0  0  0  0  0  0
   -0.4956    1.1824   -0.6555 C   0  0  0  0  0  0  0  0  0  0  0  0
    0.8836    0.9741   -0.5552 C   0  0  0  0  0  0  0  0  0  0  0  0
    2.4493   -0.3367    0.1310 H   0  0  0  0  0  0  0  0  0  0  0  0
    0.8724   -2.0227    1.0409 H   0  0  0  0  0  0  0  0  0  0  0  0
   -1.5514   -1.6786    0.8586 H   0  0  0  0  0  0  0  0  0  0  0  0
   -3.5888   -0.4540    1.6137 H   0  0  0  0  0  0  0  0  0  0  0  0
   -8.3072    0.1950    0.9544 H   0  0  0  0  0  0  0  0  0  0  0  0
   -5.7104    2.1015   -3.2416 H   0  0  0  0  0  0  0  0  0  0  0  0
   -7.2674    2.6680   -5.1783 H   0  0  0  0  0  0  0  0  0  0  0  0
   -8.8733    4.4230   -5.8738 H   0  0  0  0  0  0  0  0  0  0  0  0
  -10.5206    6.4522   -4.7334 H   0  0  0  0  0  0  0  0  0  0  0  0
  -11.8450    6.6973   -2.6076 H   0  0  0  0  0  0  0  0  0  0  0  0
  -10.5719    5.1780   -0.7323 H   0  0  0  0  0  0  0  0  0  0  0  0
   -8.1898    3.4210   -1.0353 H   0  0  0  0  0  0  0  0  0  0  0  0
   -0.8471    2.1003   -1.1200 H   0  0  0  0  0  0  0  0  0  0  0  0
    1.5725    1.7170   -0.9487 H   0  0  0  0  0  0  0  0  0  0  0  0
  1  2  1  0  0  0  0
  1 25  2  0  0  0  0
  1 26  1  0  0  0  0
  2  3  2  0  0  0  0
  2 27  1  0  0  0  0
  3  4  1  0  0  0  0
  3 28  1  0  0  0  0
  4  5  1  0  0  0  0
  4 24  2  0  0  0  0
  5  6  2  0  0  0  0
  5 23  1  0  0  0  0
  6  7  1  0  0  0  0
  6 29  1  0  0  0  0
  7  8  1  0  0  0  0
  7 22  2  0  0  0  0
  8  9  2  0  0  0  0
  9 10  1  0  0  0  0
  9 30  1  0  0  0  0
 10 11  2  0  0  0  0
 11 12  1  0  0  0  0
 11 22  1  0  0  0  0
 12 13  1  0  0  0  0
 12 31  1  0  0  0  0
 13 14  1  0  0  0  0
 13 21  2  0  0  0  0
 14 15  2  0  0  0  0
 14 32  1  0  0  0  0
 15 16  1  0  0  0  0
 15 33  1  0  0  0  0
 16 17  1  0  0  0  0
 16 20  2  0  0  0  0
 17 18  1  0  0  0  0
 17 34  1  0  0  0  0
 18 19  2  0  0  0  0
 18 35  1  0  0  0  0
 19 20  1  0  0  0  0
 19 36  1  0  0  0  0
 20 21  1  0  0  0  0
 21 37  1  0  0  0  0
 22 23  1  0  0  0  0
 24 25  1  0  0  0  0
 24 38  1  0  0  0  0
 25 39  1  0  0  0  0
M  END
$$$$
