CHEMBL459850
 OpenBabel04072215383D

 52 55  0  0  0  0  0  0  0  0999 V2000
    2.5798   -0.0673    0.0130 C   0  0  0  0  0  0  0  0  0  0  0  0
    1.0801   -0.0587    0.1347 C   0  0  0  0  0  0  0  0  0  0  0  0
    0.4222    1.1697    0.2617 C   0  0  0  0  0  0  0  0  0  0  0  0
   -0.9732    1.2417    0.2673 C   0  0  0  0  0  0  0  0  0  0  0  0
   -1.7525    0.0909    0.1446 C   0  0  0  0  0  0  0  0  0  0  0  0
   -3.1702    0.1030    0.1212 N   0  0  0  0  0  0  0  0  0  0  0  0
   -3.9885    1.2166    0.2099 C   0  0  0  0  0  0  0  0  0  0  0  0
   -3.6201    2.3826    0.3295 O   0  0  0  0  0  0  0  0  0  0  0  0
   -5.4606    0.9739    0.1965 C   0  0  0  0  0  0  0  0  0  0  0  0
   -6.0566   -0.0776   -0.5073 C   0  0  0  0  0  0  0  0  0  0  0  0
   -7.4488   -0.2169   -0.5045 C   0  0  0  0  0  0  0  0  0  0  0  0
   -8.2499    0.6851    0.2018 C   0  0  0  0  0  0  0  0  0  0  0  0
   -7.6711    1.7421    0.9161 C   0  0  0  0  0  0  0  0  0  0  0  0
   -8.5126    2.7126    1.7093 C   0  0  0  0  0  0  0  0  0  0  0  0
   -9.8474    2.4435    1.6551 F   0  0  0  0  0  0  0  0  0  0  0  0
   -8.1894    2.7126    3.0326 F   0  0  0  0  0  0  0  0  0  0  0  0
   -8.3740    3.9991    1.2883 F   0  0  0  0  0  0  0  0  0  0  0  0
   -6.2745    1.8838    0.8940 C   0  0  0  0  0  0  0  0  0  0  0  0
   -1.1016   -1.1455    0.0353 C   0  0  0  0  0  0  0  0  0  0  0  0
    0.3028   -1.2293    0.0455 C   0  0  0  0  0  0  0  0  0  0  0  0
    0.9519   -2.4843   -0.1077 N   0  0  0  0  0  0  0  0  0  0  0  0
    1.5646   -3.0664    1.0721 C   0  0  0  0  0  0  0  0  0  0  0  0
    2.6280   -4.0335    0.7181 C   0  0  0  0  0  0  0  0  0  0  0  0
    3.5937   -4.4494    1.6051 C   0  0  0  0  0  0  0  0  0  0  0  0
    4.5368   -5.3551    1.2994 N   0  0  0  0  0  0  0  0  0  0  0  0
    4.5004   -5.8532    0.0634 C   0  0  0  0  0  0  0  0  0  0  0  0
    5.4660   -6.7741   -0.2796 N   0  0  0  0  0  0  0  0  0  0  0  0
    3.5746   -5.5539   -0.8490 N   0  0  0  0  0  0  0  0  0  0  0  0
    2.6468   -4.6350   -0.5168 C   0  0  0  0  0  0  0  0  0  0  0  0
    1.6421   -4.2884   -1.4484 N   0  0  0  0  0  0  0  0  0  0  0  0
    1.6601   -4.8898   -2.7696 C   0  0  0  0  0  0  0  0  0  0  0  0
    0.7097   -3.2745   -1.2283 C   0  0  0  0  0  0  0  0  0  0  0  0
   -0.1858   -3.0389   -2.0418 O   0  0  0  0  0  0  0  0  0  0  0  0
    2.9773    0.9486   -0.0911 H   0  0  0  0  0  0  0  0  0  0  0  0
    2.8882   -0.6220   -0.8792 H   0  0  0  0  0  0  0  0  0  0  0  0
    3.0438   -0.5092    0.8984 H   0  0  0  0  0  0  0  0  0  0  0  0
    0.9900    2.0964    0.3262 H   0  0  0  0  0  0  0  0  0  0  0  0
   -1.4153    2.2285    0.3540 H   0  0  0  0  0  0  0  0  0  0  0  0
   -3.6120   -0.8066    0.0649 H   0  0  0  0  0  0  0  0  0  0  0  0
   -5.4653   -0.7745   -1.0943 H   0  0  0  0  0  0  0  0  0  0  0  0
   -7.9155   -1.0249   -1.0641 H   0  0  0  0  0  0  0  0  0  0  0  0
   -9.3323    0.5619    0.1865 H   0  0  0  0  0  0  0  0  0  0  0  0
   -5.8118    2.7151    1.4280 H   0  0  0  0  0  0  0  0  0  0  0  0
   -1.6819   -2.0582   -0.0709 H   0  0  0  0  0  0  0  0  0  0  0  0
    0.7776   -3.5855    1.6337 H   0  0  0  0  0  0  0  0  0  0  0  0
    1.9737   -2.2791    1.7134 H   0  0  0  0  0  0  0  0  0  0  0  0
    3.6440   -4.0635    2.6199 H   0  0  0  0  0  0  0  0  0  0  0  0
    5.8347   -7.2169    0.5500 H   0  0  0  0  0  0  0  0  0  0  0  0
    5.1349   -7.3723   -1.0225 H   0  0  0  0  0  0  0  0  0  0  0  0
    2.5694   -5.4585   -2.9770 H   0  0  0  0  0  0  0  0  0  0  0  0
    1.5905   -4.0939   -3.5206 H   0  0  0  0  0  0  0  0  0  0  0  0
    0.7870   -5.5398   -2.8763 H   0  0  0  0  0  0  0  0  0  0  0  0
  1  2  1  0  0  0  0
  1 34  1  0  0  0  0
  1 35  1  0  0  0  0
  1 36  1  0  0  0  0
  2  3  1  0  0  0  0
  2 20  2  0  0  0  0
  3  4  2  0  0  0  0
  3 37  1  0  0  0  0
  4  5  1  0  0  0  0
  4 38  1  0  0  0  0
  5  6  1  0  0  0  0
  5 19  2  0  0  0  0
  6  7  1  0  0  0  0
  6 39  1  0  0  0  0
  7  8  2  0  0  0  0
  7  9  1  0  0  0  0
  9 10  1  0  0  0  0
  9 18  2  0  0  0  0
 10 11  2  0  0  0  0
 10 40  1  0  0  0  0
 11 12  1  0  0  0  0
 11 41  1  0  0  0  0
 12 13  2  0  0  0  0
 12 42  1  0  0  0  0
 13 14  1  0  0  0  0
 13 18  1  0  0  0  0
 14 15  1  0  0  0  0
 14 16  1  0  0  0  0
 14 17  1  0  0  0  0
 18 43  1  0  0  0  0
 19 20  1  0  0  0  0
 19 44  1  0  0  0  0
 20 21  1  0  0  0  0
 21 22  1  0  0  0  0
 21 32  1  0  0  0  0
 22 23  1  0  0  0  0
 22 45  1  0  0  0  0
 22 46  1  0  0  0  0
 23 24  1  0  0  0  0
 23 29  2  0  0  0  0
 24 25  2  0  0  0  0
 24 47  1  0  0  0  0
 25 26  1  0  0  0  0
 26 27  1  0  0  0  0
 26 28  2  0  0  0  0
 27 48  1  0  0  0  0
 27 49  1  0  0  0  0
 28 29  1  0  0  0  0
 29 30  1  0  0  0  0
 30 31  1  0  0  0  0
 30 32  1  0  0  0  0
 31 50  1  0  0  0  0
 31 51  1  0  0  0  0
 31 52  1  0  0  0  0
 32 33  2  0  0  0  0
M  END
$$$$
