CHEMBL452828
 OpenBabel04072215383D

 53 56  0  0  0  0  0  0  0  0999 V2000
    1.0918   -0.0968   -0.5856 C   0  0  0  0  0  0  0  0  0  0  0  0
    2.5775   -0.1116   -0.2577 C   0  0  0  0  0  0  0  0  0  0  0  0
    3.0979   -1.5413   -0.1313 C   0  0  0  0  0  0  0  0  0  0  0  0
    4.5092   -1.5396    0.2384 N   0  0  0  0  0  0  0  0  0  0  0  0
    5.1275   -2.7424    0.3555 C   0  0  0  0  0  0  0  0  0  0  0  0
    4.7677   -3.8433   -0.3075 N   0  0  0  0  0  0  0  0  0  0  0  0
    5.6127   -4.7846    0.1325 N   0  0  0  0  0  0  0  0  0  0  0  0
    5.6279   -6.0836   -0.4981 C   0  0  0  0  0  0  0  0  0  0  0  0
    6.4666   -4.3564    1.1137 C   0  0  0  0  0  0  0  0  0  0  0  0
    7.4296   -5.0322    1.8691 C   0  0  0  0  0  0  0  0  0  0  0  0
    8.2726   -4.2609    2.6775 C   0  0  0  0  0  0  0  0  0  0  0  0
    9.3253   -4.8156    3.3819 O   0  0  0  0  0  0  0  0  0  0  0  0
   10.0887   -5.8129    2.7868 C   0  0  0  0  0  0  0  0  0  0  0  0
   10.3004   -5.8599    1.4109 C   0  0  0  0  0  0  0  0  0  0  0  0
   11.0448   -6.9048    0.9095 C   0  0  0  0  0  0  0  0  0  0  0  0
   11.6448   -7.8363    1.6839 N   0  0  0  0  0  0  0  0  0  0  0  0
   11.5319   -7.7360    3.0163 C   0  0  0  0  0  0  0  0  0  0  0  0
   12.2593   -8.5961    3.8373 C   0  0  0  0  0  0  0  0  0  0  0  0
   12.2609   -8.5198    5.2472 C   0  0  0  0  0  0  0  0  0  0  0  0
   13.2949   -9.2072    5.8263 O   0  0  0  0  0  0  0  0  0  0  0  0
   12.9807  -10.2702    6.7168 C   0  0  0  0  0  0  0  0  0  0  0  0
   11.4291   -7.5823    5.8622 C   0  0  0  0  0  0  0  0  0  0  0  0
   11.2340   -7.2411    7.1668 O   0  0  0  0  0  0  0  0  0  0  0  0
   11.8678   -7.9051    8.2324 C   0  0  0  0  0  0  0  0  0  0  0  0
   10.6692   -6.7276    5.0380 C   0  0  0  0  0  0  0  0  0  0  0  0
   10.7317   -6.7508    3.6266 C   0  0  0  0  0  0  0  0  0  0  0  0
    8.0585   -2.8891    2.8237 C   0  0  0  0  0  0  0  0  0  0  0  0
    7.0282   -2.2387    2.1186 C   0  0  0  0  0  0  0  0  0  0  0  0
    6.2304   -2.9896    1.2282 C   0  0  0  0  0  0  0  0  0  0  0  0
    0.7314    0.9322   -0.6776 H   0  0  0  0  0  0  0  0  0  0  0  0
    0.5121   -0.5898    0.2022 H   0  0  0  0  0  0  0  0  0  0  0  0
    0.8924   -0.6133   -1.5302 H   0  0  0  0  0  0  0  0  0  0  0  0
    2.7453    0.4350    0.6779 H   0  0  0  0  0  0  0  0  0  0  0  0
    3.1303    0.4198   -1.0414 H   0  0  0  0  0  0  0  0  0  0  0  0
    2.9471   -2.0633   -1.0843 H   0  0  0  0  0  0  0  0  0  0  0  0
    2.5229   -2.0698    0.6396 H   0  0  0  0  0  0  0  0  0  0  0  0
    4.7553   -0.8260    0.9142 H   0  0  0  0  0  0  0  0  0  0  0  0
    4.8066   -6.1565   -1.2141 H   0  0  0  0  0  0  0  0  0  0  0  0
    5.5227   -6.8482    0.2739 H   0  0  0  0  0  0  0  0  0  0  0  0
    6.5840   -6.1955   -1.0197 H   0  0  0  0  0  0  0  0  0  0  0  0
    7.5480   -6.1082    1.7843 H   0  0  0  0  0  0  0  0  0  0  0  0
    9.8937   -5.1218    0.7336 H   0  0  0  0  0  0  0  0  0  0  0  0
   11.1883   -7.0225   -0.1591 H   0  0  0  0  0  0  0  0  0  0  0  0
   12.9188   -9.3139    3.3440 H   0  0  0  0  0  0  0  0  0  0  0  0
   13.5485  -11.1602    6.4281 H   0  0  0  0  0  0  0  0  0  0  0  0
   11.9176  -10.5226    6.7587 H   0  0  0  0  0  0  0  0  0  0  0  0
   13.3518   -9.9978    7.7079 H   0  0  0  0  0  0  0  0  0  0  0  0
   11.6222   -7.3559    9.1471 H   0  0  0  0  0  0  0  0  0  0  0  0
   12.9550   -7.8899    8.1343 H   0  0  0  0  0  0  0  0  0  0  0  0
   11.4591   -8.9114    8.3626 H   0  0  0  0  0  0  0  0  0  0  0  0
   10.0545   -5.9638    5.5223 H   0  0  0  0  0  0  0  0  0  0  0  0
    8.6979   -2.3069    3.4833 H   0  0  0  0  0  0  0  0  0  0  0  0
    6.8725   -1.1731    2.2373 H   0  0  0  0  0  0  0  0  0  0  0  0
  1  2  1  0  0  0  0
  1 30  1  0  0  0  0
  1 31  1  0  0  0  0
  1 32  1  0  0  0  0
  2  3  1  0  0  0  0
  2 33  1  0  0  0  0
  2 34  1  0  0  0  0
  3  4  1  0  0  0  0
  3 35  1  0  0  0  0
  3 36  1  0  0  0  0
  4  5  1  0  0  0  0
  4 37  1  0  0  0  0
  5  6  2  0  0  0  0
  5 29  1  0  0  0  0
  6  7  1  0  0  0  0
  7  8  1  0  0  0  0
  7  9  1  0  0  0  0
  8 38  1  0  0  0  0
  8 39  1  0  0  0  0
  8 40  1  0  0  0  0
  9 10  1  0  0  0  0
  9 29  2  0  0  0  0
 10 11  2  0  0  0  0
 10 41  1  0  0  0  0
 11 12  1  0  0  0  0
 11 27  1  0  0  0  0
 12 13  1  0  0  0  0
 13 14  1  0  0  0  0
 13 26  2  0  0  0  0
 14 15  2  0  0  0  0
 14 42  1  0  0  0  0
 15 16  1  0  0  0  0
 15 43  1  0  0  0  0
 16 17  2  0  0  0  0
 17 18  1  0  0  0  0
 17 26  1  0  0  0  0
 18 19  2  0  0  0  0
 18 44  1  0  0  0  0
 19 20  1  0  0  0  0
 19 22  1  0  0  0  0
 20 21  1  0  0  0  0
 21 45  1  0  0  0  0
 21 46  1  0  0  0  0
 21 47  1  0  0  0  0
 22 23  1  0  0  0  0
 22 25  2  0  0  0  0
 23 24  1  0  0  0  0
 24 48  1  0  0  0  0
 24 49  1  0  0  0  0
 24 50  1  0  0  0  0
 25 26  1  0  0  0  0
 25 51  1  0  0  0  0
 27 28  2  0  0  0  0
 27 52  1  0  0  0  0
 28 29  1  0  0  0  0
 28 53  1  0  0  0  0
M  END
$$$$
