CHEMBL2386796
 OpenBabel04072215363D

 80 84  0  0  0  0  0  0  0  0999 V2000
   -1.5899   -1.8959    2.2540 C   0  0  0  0  0  0  0  0  0  0  0  0
   -1.0074   -0.9964    1.1943 C   0  0  0  0  0  0  0  0  0  0  0  0
   -1.6276    0.2611    1.0522 C   0  0  0  0  0  0  0  0  0  0  0  0
   -1.1687    1.2212    0.1471 C   0  0  0  0  0  0  0  0  0  0  0  0
   -1.8353    2.5187    0.0493 C   0  0  0  0  0  0  0  0  0  0  0  0
   -1.5702    3.5583   -0.8785 C   0  0  0  0  0  0  0  0  0  0  0  0
   -2.4601    4.5642   -0.5944 C   0  0  0  0  0  0  0  0  0  0  0  0
   -2.6401    5.7792   -1.2458 N   0  0  0  0  0  0  0  0  0  0  0  0
   -1.9004    6.1488   -2.4262 C   0  0  0  0  0  0  0  0  0  0  0  0
   -1.0852    5.3963   -2.9346 O   0  0  0  0  0  0  0  0  0  0  0  0
   -2.2008    7.4657   -3.0296 C   0  0  0  0  0  0  0  0  0  0  0  0
   -2.6592    8.5371   -2.2590 C   0  0  0  0  0  0  0  0  0  0  0  0
   -2.9059    9.7655   -2.8705 C   0  0  0  0  0  0  0  0  0  0  0  0
   -2.6590    9.9498   -4.2412 C   0  0  0  0  0  0  0  0  0  0  0  0
   -2.7545   11.3429   -4.8361 C   0  0  0  0  0  0  0  0  0  0  0  0
   -1.8142   12.2560   -4.1770 N   0  0  0  0  0  0  0  0  0  0  0  0
   -0.4071   11.8368   -4.3379 C   0  0  0  0  0  0  0  0  0  0  0  0
    0.5487   12.7877   -3.5884 C   0  0  0  0  0  0  0  0  0  0  0  0
    0.4331   14.2016   -3.9878 N   0  0  0  0  0  0  0  0  0  0  0  0
    1.0111   14.4243   -5.3113 C   0  0  0  0  0  0  0  0  0  0  0  0
   -0.9883   14.6054   -3.9400 C   0  0  0  0  0  0  0  0  0  0  0  0
   -1.9713   13.6419   -4.6534 C   0  0  0  0  0  0  0  0  0  0  0  0
   -2.1870    8.8751   -5.0046 C   0  0  0  0  0  0  0  0  0  0  0  0
   -1.9605    7.6379   -4.4013 C   0  0  0  0  0  0  0  0  0  0  0  0
   -3.1592    4.1176    0.4939 N   0  0  0  0  0  0  0  0  0  0  0  0
   -2.8249    2.8809    0.8831 N   0  0  0  0  0  0  0  0  0  0  0  0
   -0.0629    0.9074   -0.6378 C   0  0  0  0  0  0  0  0  0  0  0  0
    0.5674   -0.3314   -0.5113 C   0  0  0  0  0  0  0  0  0  0  0  0
    0.1081   -1.3026    0.3856 C   0  0  0  0  0  0  0  0  0  0  0  0
    0.7478   -2.5605    0.4840 N   0  0  0  0  0  0  0  0  0  0  0  0
    1.9019   -2.9745   -0.1928 C   0  0  0  0  0  0  0  0  0  0  0  0
    2.5501   -2.3239   -1.0063 O   0  0  0  0  0  0  0  0  0  0  0  0
    2.4238   -4.1623    0.2142 N   0  0  0  0  0  0  0  0  0  0  0  0
    1.8439   -5.0439    1.0861 C   0  0  0  0  0  0  0  0  0  0  0  0
    2.5389   -5.6945    2.1173 C   0  0  0  0  0  0  0  0  0  0  0  0
    1.5691   -6.3874    2.8039 C   0  0  0  0  0  0  0  0  0  0  0  0
    1.6082   -7.2023    4.0631 C   0  0  0  0  0  0  0  0  0  0  0  0
    1.9136   -6.2728    5.2527 C   0  0  0  0  0  0  0  0  0  0  0  0
    0.2827   -7.9325    4.3338 C   0  0  0  0  0  0  0  0  0  0  0  0
    2.7294   -8.2477    3.9365 C   0  0  0  0  0  0  0  0  0  0  0  0
    0.3750   -6.2125    2.1761 O   0  0  0  0  0  0  0  0  0  0  0  0
    0.5381   -5.3297    1.1244 N   0  0  0  0  0  0  0  0  0  0  0  0
   -2.4983   -1.4485    2.6822 H   0  0  0  0  0  0  0  0  0  0  0  0
   -0.8894   -2.0250    3.0841 H   0  0  0  0  0  0  0  0  0  0  0  0
   -1.8867   -2.8634    1.8435 H   0  0  0  0  0  0  0  0  0  0  0  0
   -2.4929    0.4989    1.6690 H   0  0  0  0  0  0  0  0  0  0  0  0
   -0.8251    3.5365   -1.6578 H   0  0  0  0  0  0  0  0  0  0  0  0
   -3.3665    6.3935   -0.9049 H   0  0  0  0  0  0  0  0  0  0  0  0
   -2.7668    8.4710   -1.1811 H   0  0  0  0  0  0  0  0  0  0  0  0
   -3.2200   10.6176   -2.2674 H   0  0  0  0  0  0  0  0  0  0  0  0
   -3.7843   11.6908   -4.6787 H   0  0  0  0  0  0  0  0  0  0  0  0
   -2.5940   11.3159   -5.9216 H   0  0  0  0  0  0  0  0  0  0  0  0
   -0.1391   11.7820   -5.4007 H   0  0  0  0  0  0  0  0  0  0  0  0
   -0.2459   10.8385   -3.9171 H   0  0  0  0  0  0  0  0  0  0  0  0
    1.5818   12.4388   -3.7082 H   0  0  0  0  0  0  0  0  0  0  0  0
    0.3391   12.7153   -2.5121 H   0  0  0  0  0  0  0  0  0  0  0  0
    2.0633   14.1185   -5.3233 H   0  0  0  0  0  0  0  0  0  0  0  0
    0.9911   15.4905   -5.5586 H   0  0  0  0  0  0  0  0  0  0  0  0
    0.4936   13.8809   -6.1082 H   0  0  0  0  0  0  0  0  0  0  0  0
   -1.1060   15.6185   -4.3434 H   0  0  0  0  0  0  0  0  0  0  0  0
   -1.2810   14.6738   -2.8833 H   0  0  0  0  0  0  0  0  0  0  0  0
   -1.8185   13.6968   -5.7391 H   0  0  0  0  0  0  0  0  0  0  0  0
   -2.9927   13.9878   -4.4536 H   0  0  0  0  0  0  0  0  0  0  0  0
   -1.9455    9.0089   -6.0580 H   0  0  0  0  0  0  0  0  0  0  0  0
   -1.5667    6.8193   -5.0034 H   0  0  0  0  0  0  0  0  0  0  0  0
   -3.8819    4.5907    1.0231 H   0  0  0  0  0  0  0  0  0  0  0  0
    0.3486    1.6033   -1.3626 H   0  0  0  0  0  0  0  0  0  0  0  0
    1.4283   -0.4971   -1.1484 H   0  0  0  0  0  0  0  0  0  0  0  0
    0.3356   -3.2360    1.0984 H   0  0  0  0  0  0  0  0  0  0  0  0
    3.4085   -4.2581    0.0090 H   0  0  0  0  0  0  0  0  0  0  0  0
    3.5751   -5.5820    2.3954 H   0  0  0  0  0  0  0  0  0  0  0  0
    1.1113   -5.5403    5.4045 H   0  0  0  0  0  0  0  0  0  0  0  0
    2.8419   -5.7095    5.0977 H   0  0  0  0  0  0  0  0  0  0  0  0
    2.0256   -6.8441    6.1806 H   0  0  0  0  0  0  0  0  0  0  0  0
   -0.5470   -7.2296    4.4756 H   0  0  0  0  0  0  0  0  0  0  0  0
    0.3537   -8.5430    5.2416 H   0  0  0  0  0  0  0  0  0  0  0  0
    0.0142   -8.5989    3.5061 H   0  0  0  0  0  0  0  0  0  0  0  0
    3.7013   -7.7746    3.7515 H   0  0  0  0  0  0  0  0  0  0  0  0
    2.5357   -8.9323    3.1021 H   0  0  0  0  0  0  0  0  0  0  0  0
    2.8211   -8.8428    4.8505 H   0  0  0  0  0  0  0  0  0  0  0  0
  1  2  1  0  0  0  0
  1 43  1  0  0  0  0
  1 44  1  0  0  0  0
  1 45  1  0  0  0  0
  2  3  1  0  0  0  0
  2 29  2  0  0  0  0
  3  4  2  0  0  0  0
  3 46  1  0  0  0  0
  4  5  1  0  0  0  0
  4 27  1  0  0  0  0
  5  6  1  0  0  0  0
  5 26  2  0  0  0  0
  6  7  2  0  0  0  0
  6 47  1  0  0  0  0
  7  8  1  0  0  0  0
  7 25  1  0  0  0  0
  8  9  1  0  0  0  0
  8 48  1  0  0  0  0
  9 10  2  0  0  0  0
  9 11  1  0  0  0  0
 11 12  1  0  0  0  0
 11 24  2  0  0  0  0
 12 13  2  0  0  0  0
 12 49  1  0  0  0  0
 13 14  1  0  0  0  0
 13 50  1  0  0  0  0
 14 15  1  0  0  0  0
 14 23  2  0  0  0  0
 15 16  1  0  0  0  0
 15 51  1  0  0  0  0
 15 52  1  0  0  0  0
 16 17  1  0  0  0  0
 16 22  1  0  0  0  0
 17 18  1  0  0  0  0
 17 53  1  0  0  0  0
 17 54  1  0  0  0  0
 18 19  1  0  0  0  0
 18 55  1  0  0  0  0
 18 56  1  0  0  0  0
 19 20  1  0  0  0  0
 19 21  1  0  0  0  0
 20 57  1  0  0  0  0
 20 58  1  0  0  0  0
 20 59  1  0  0  0  0
 21 22  1  0  0  0  0
 21 60  1  0  0  0  0
 21 61  1  0  0  0  0
 22 62  1  0  0  0  0
 22 63  1  0  0  0  0
 23 24  1  0  0  0  0
 23 64  1  0  0  0  0
 24 65  1  0  0  0  0
 25 26  1  0  0  0  0
 25 66  1  0  0  0  0
 27 28  2  0  0  0  0
 27 67  1  0  0  0  0
 28 29  1  0  0  0  0
 28 68  1  0  0  0  0
 29 30  1  0  0  0  0
 30 31  1  0  0  0  0
 30 69  1  0  0  0  0
 31 32  2  0  0  0  0
 31 33  1  0  0  0  0
 33 34  1  0  0  0  0
 33 70  1  0  0  0  0
 34 35  1  0  0  0  0
 34 42  2  0  0  0  0
 35 36  2  0  0  0  0
 35 71  1  0  0  0  0
 36 37  1  0  0  0  0
 36 41  1  0  0  0  0
 37 38  1  0  0  0  0
 37 39  1  0  0  0  0
 37 40  1  0  0  0  0
 38 72  1  0  0  0  0
 38 73  1  0  0  0  0
 38 74  1  0  0  0  0
 39 75  1  0  0  0  0
 39 76  1  0  0  0  0
 39 77  1  0  0  0  0
 40 78  1  0  0  0  0
 40 79  1  0  0  0  0
 40 80  1  0  0  0  0
 41 42  1  0  0  0  0
M  END
$$$$
