CHEMBL1681954
 OpenBabel04072215363D

 49 51  0  0  0  0  0  0  0  0999 V2000
    8.9074   -1.2508   -7.9673 C   0  0  0  0  0  0  0  0  0  0  0  0
    8.3676   -1.7941   -6.7632 O   0  0  0  0  0  0  0  0  0  0  0  0
    7.3738   -0.9222   -6.3051 N   0  0  0  0  0  0  0  0  0  0  0  0
    6.8240   -1.3893   -5.2235 C   0  0  0  0  0  0  0  0  0  0  0  0
    5.7114   -0.6687   -4.5841 C   0  0  0  0  0  0  0  0  0  0  0  0
    4.8418    0.1160   -5.3395 C   0  0  0  0  0  0  0  0  0  0  0  0
    4.9205    0.2075   -6.7290 N   0  0  0  0  0  0  0  0  0  0  0  0
    3.7884    0.7596   -4.8100 N   0  0  0  0  0  0  0  0  0  0  0  0
    3.6293    0.6534   -3.4907 C   0  0  0  0  0  0  0  0  0  0  0  0
    4.4357   -0.0150   -2.6641 N   0  0  0  0  0  0  0  0  0  0  0  0
    5.4563   -0.7065   -3.2257 C   0  0  0  0  0  0  0  0  0  0  0  0
    6.2871   -1.4391   -2.3619 O   0  0  0  0  0  0  0  0  0  0  0  0
    5.7566   -1.7708   -1.1280 C   0  0  0  0  0  0  0  0  0  0  0  0
    4.4585   -2.2679   -1.0111 C   0  0  0  0  0  0  0  0  0  0  0  0
    3.8939   -2.4936    0.2403 C   0  0  0  0  0  0  0  0  0  0  0  0
    4.6017   -2.2793    1.4281 C   0  0  0  0  0  0  0  0  0  0  0  0
    3.9552   -2.4630    2.6918 N   0  0  0  0  0  0  0  0  0  0  0  0
    2.5832   -2.4426    2.8543 C   0  0  0  0  0  0  0  0  0  0  0  0
    1.7649   -2.1998    1.9680 O   0  0  0  0  0  0  0  0  0  0  0  0
    2.1422   -2.7416    4.1250 N   0  0  0  0  0  0  0  0  0  0  0  0
    0.6975   -2.6871    4.2867 C   0  0  0  0  0  0  0  0  0  0  0  0
    0.1811   -2.9620    5.6697 C   0  0  0  0  0  0  0  0  0  0  0  0
   -0.6987   -4.0326    5.9047 C   0  0  0  0  0  0  0  0  0  0  0  0
   -1.2647   -4.2105    7.1687 C   0  0  0  0  0  0  0  0  0  0  0  0
   -0.9571   -3.3202    8.1915 C   0  0  0  0  0  0  0  0  0  0  0  0
   -1.5108   -3.4890    9.3995 F   0  0  0  0  0  0  0  0  0  0  0  0
   -0.0964   -2.2526    7.9770 C   0  0  0  0  0  0  0  0  0  0  0  0
    0.4624   -2.0829    6.7175 C   0  0  0  0  0  0  0  0  0  0  0  0
    1.2673   -1.0313    6.5018 F   0  0  0  0  0  0  0  0  0  0  0  0
    5.9478   -1.8857    1.3035 C   0  0  0  0  0  0  0  0  0  0  0  0
    6.9268   -1.6290    2.7092 Cl  0  0  0  0  0  0  0  0  0  0  0  0
    6.5262   -1.6337    0.0378 C   0  0  0  0  0  0  0  0  0  0  0  0
    9.8030   -1.8168   -8.2351 H   0  0  0  0  0  0  0  0  0  0  0  0
    9.1859   -0.2012   -7.8244 H   0  0  0  0  0  0  0  0  0  0  0  0
    8.1796   -1.3327   -8.7818 H   0  0  0  0  0  0  0  0  0  0  0  0
    7.1632   -2.3355   -4.7666 H   0  0  0  0  0  0  0  0  0  0  0  0
    5.8896    0.2932   -7.0400 H   0  0  0  0  0  0  0  0  0  0  0  0
    4.3064    0.9445   -7.0577 H   0  0  0  0  0  0  0  0  0  0  0  0
    2.7650    1.1392   -3.0518 H   0  0  0  0  0  0  0  0  0  0  0  0
    3.8303   -2.4111   -1.8815 H   0  0  0  0  0  0  0  0  0  0  0  0
    2.8682   -2.8469    0.2412 H   0  0  0  0  0  0  0  0  0  0  0  0
    4.5398   -2.4536    3.5169 H   0  0  0  0  0  0  0  0  0  0  0  0
    2.6996   -2.3722    4.8817 H   0  0  0  0  0  0  0  0  0  0  0  0
    0.2616   -3.4045    3.5789 H   0  0  0  0  0  0  0  0  0  0  0  0
    0.3446   -1.6936    3.9758 H   0  0  0  0  0  0  0  0  0  0  0  0
   -0.9695   -4.7143    5.1011 H   0  0  0  0  0  0  0  0  0  0  0  0
   -1.9557   -5.0270    7.3567 H   0  0  0  0  0  0  0  0  0  0  0  0
    0.1203   -1.5533    8.7754 H   0  0  0  0  0  0  0  0  0  0  0  0
    7.5511   -1.2972   -0.0390 H   0  0  0  0  0  0  0  0  0  0  0  0
  1  2  1  0  0  0  0
  1 33  1  0  0  0  0
  1 34  1  0  0  0  0
  1 35  1  0  0  0  0
  2  3  1  0  0  0  0
  3  4  2  0  0  0  0
  4  5  1  0  0  0  0
  4 36  1  0  0  0  0
  5  6  1  0  0  0  0
  5 11  2  0  0  0  0
  6  7  1  0  0  0  0
  6  8  2  0  0  0  0
  7 37  1  0  0  0  0
  7 38  1  0  0  0  0
  8  9  1  0  0  0  0
  9 10  2  0  0  0  0
  9 39  1  0  0  0  0
 10 11  1  0  0  0  0
 11 12  1  0  0  0  0
 12 13  1  0  0  0  0
 13 14  1  0  0  0  0
 13 32  2  0  0  0  0
 14 15  2  0  0  0  0
 14 40  1  0  0  0  0
 15 16  1  0  0  0  0
 15 41  1  0  0  0  0
 16 17  1  0  0  0  0
 16 30  2  0  0  0  0
 17 18  1  0  0  0  0
 17 42  1  0  0  0  0
 18 19  2  0  0  0  0
 18 20  1  0  0  0  0
 20 21  1  0  0  0  0
 20 43  1  0  0  0  0
 21 22  1  0  0  0  0
 21 44  1  0  0  0  0
 21 45  1  0  0  0  0
 22 23  1  0  0  0  0
 22 28  2  0  0  0  0
 23 24  2  0  0  0  0
 23 46  1  0  0  0  0
 24 25  1  0  0  0  0
 24 47  1  0  0  0  0
 25 26  1  0  0  0  0
 25 27  2  0  0  0  0
 27 28  1  0  0  0  0
 27 48  1  0  0  0  0
 28 29  1  0  0  0  0
 30 31  1  0  0  0  0
 30 32  1  0  0  0  0
 32 49  1  0  0  0  0
M  END
$$$$
