CHEMBL3951847
 OpenBabel04072215373D

 61 64  0  0  0  0  0  0  0  0999 V2000
    0.5289    1.4357   -3.7136 C   0  0  0  0  0  0  0  0  0  0  0  0
    1.8279    1.0567   -4.1890 O   0  0  0  0  0  0  0  0  0  0  0  0
    2.8293    0.9479   -3.2546 C   0  0  0  0  0  0  0  0  0  0  0  0
    2.6581    1.2069   -1.8920 C   0  0  0  0  0  0  0  0  0  0  0  0
    3.7109    1.0054   -1.0107 C   0  0  0  0  0  0  0  0  0  0  0  0
    3.6587    1.1825    0.3487 O   0  0  0  0  0  0  0  0  0  0  0  0
    2.4459    1.6961    0.8870 C   0  0  0  0  0  0  0  0  0  0  0  0
    4.9480    0.5449   -1.4904 C   0  0  0  0  0  0  0  0  0  0  0  0
    5.1757    0.2746   -2.8495 C   0  0  0  0  0  0  0  0  0  0  0  0
    6.3555   -0.3739   -3.3055 N   0  0  0  0  0  0  0  0  0  0  0  0
    6.9821   -1.3866   -2.3538 C   0  0  0  0  0  0  0  0  0  0  0  0
    6.1172   -2.5813   -1.8441 C   0  0  0  0  0  0  0  0  0  0  0  0
    5.6798   -3.6591   -2.7568 N   0  0  0  0  0  0  0  0  0  0  0  0
    6.7432   -4.5072   -3.3229 C   0  0  0  0  0  0  0  0  0  0  0  0
    6.1356   -5.7326   -4.0486 C   0  0  0  0  0  0  0  0  0  0  0  0
    7.1512   -6.5484   -4.8318 C   0  0  0  0  0  0  0  0  0  0  0  0
    7.9938   -7.2251   -5.4816 N   0  0  0  0  0  0  0  0  0  0  0  0
    7.4176    0.1188   -4.1703 C   0  0  0  0  0  0  0  0  0  0  0  0
    7.9578   -0.8702   -4.9853 C   0  0  0  0  0  0  0  0  0  0  0  0
    9.2768   -0.7941   -5.3723 C   0  0  0  0  0  0  0  0  0  0  0  0
   10.0386    0.3158   -5.1537 C   0  0  0  0  0  0  0  0  0  0  0  0
   11.3272    0.1176   -5.4401 N   0  0  0  0  0  0  0  0  0  0  0  0
   12.1243    1.1933   -5.4568 C   0  0  0  0  0  0  0  0  0  0  0  0
   11.6497    2.4680   -5.2709 C   0  0  0  0  0  0  0  0  0  0  0  0
   12.5882    3.5255   -5.7030 C   0  0  0  0  0  0  0  0  0  0  0  0
   12.6925    4.1653   -6.9747 C   0  0  0  0  0  0  0  0  0  0  0  0
   13.8678    4.7723   -7.1776 N   0  0  0  0  0  0  0  0  0  0  0  0
   14.5605    4.5010   -6.0592 N   0  0  0  0  0  0  0  0  0  0  0  0
   15.8645    5.0915   -5.8415 C   0  0  0  0  0  0  0  0  0  0  0  0
   13.8884    3.6551   -5.2149 C   0  0  0  0  0  0  0  0  0  0  0  0
   10.3488    2.6562   -4.8353 N   0  0  0  0  0  0  0  0  0  0  0  0
    9.4871    1.5398   -4.6973 C   0  0  0  0  0  0  0  0  0  0  0  0
    8.1350    1.3624   -4.1230 C   0  0  0  0  0  0  0  0  0  0  0  0
    4.0895    0.5009   -3.7249 C   0  0  0  0  0  0  0  0  0  0  0  0
   -0.1657    1.4309   -4.5596 H   0  0  0  0  0  0  0  0  0  0  0  0
    0.5414    2.4514   -3.3042 H   0  0  0  0  0  0  0  0  0  0  0  0
    0.1437    0.7232   -2.9749 H   0  0  0  0  0  0  0  0  0  0  0  0
    1.7003    1.5488   -1.5211 H   0  0  0  0  0  0  0  0  0  0  0  0
    2.5862    1.8253    1.9639 H   0  0  0  0  0  0  0  0  0  0  0  0
    1.6184    0.9927    0.7414 H   0  0  0  0  0  0  0  0  0  0  0  0
    2.2091    2.6773    0.4620 H   0  0  0  0  0  0  0  0  0  0  0  0
    5.7275    0.3715   -0.7577 H   0  0  0  0  0  0  0  0  0  0  0  0
    7.3836   -0.8443   -1.4877 H   0  0  0  0  0  0  0  0  0  0  0  0
    7.8641   -1.8617   -2.7996 H   0  0  0  0  0  0  0  0  0  0  0  0
    5.2198   -2.2027   -1.3443 H   0  0  0  0  0  0  0  0  0  0  0  0
    6.6963   -3.0642   -1.0431 H   0  0  0  0  0  0  0  0  0  0  0  0
    5.0854   -3.2594   -3.4861 H   0  0  0  0  0  0  0  0  0  0  0  0
    7.4068   -4.8662   -2.5230 H   0  0  0  0  0  0  0  0  0  0  0  0
    7.3498   -3.9257   -4.0202 H   0  0  0  0  0  0  0  0  0  0  0  0
    5.3761   -5.3890   -4.7623 H   0  0  0  0  0  0  0  0  0  0  0  0
    5.6309   -6.3887   -3.3297 H   0  0  0  0  0  0  0  0  0  0  0  0
    7.4153   -1.7969   -5.1507 H   0  0  0  0  0  0  0  0  0  0  0  0
    9.7477   -1.6730   -5.8214 H   0  0  0  0  0  0  0  0  0  0  0  0
   13.1636    0.9800   -5.6941 H   0  0  0  0  0  0  0  0  0  0  0  0
   11.9862    4.1543   -7.7960 H   0  0  0  0  0  0  0  0  0  0  0  0
   16.1442    5.7186   -6.6943 H   0  0  0  0  0  0  0  0  0  0  0  0
   16.6089    4.3027   -5.7032 H   0  0  0  0  0  0  0  0  0  0  0  0
   15.7972    5.7101   -4.9432 H   0  0  0  0  0  0  0  0  0  0  0  0
   14.3964    3.2056   -4.3757 H   0  0  0  0  0  0  0  0  0  0  0  0
    7.6995    2.2098   -3.5873 H   0  0  0  0  0  0  0  0  0  0  0  0
    4.1867    0.2570   -4.7802 H   0  0  0  0  0  0  0  0  0  0  0  0
  1  2  1  0  0  0  0
  1 35  1  0  0  0  0
  1 36  1  0  0  0  0
  1 37  1  0  0  0  0
  2  3  1  0  0  0  0
  3  4  1  0  0  0  0
  3 34  2  0  0  0  0
  4  5  2  0  0  0  0
  4 38  1  0  0  0  0
  5  6  1  0  0  0  0
  5  8  1  0  0  0  0
  6  7  1  0  0  0  0
  7 39  1  0  0  0  0
  7 40  1  0  0  0  0
  7 41  1  0  0  0  0
  8  9  2  0  0  0  0
  8 42  1  0  0  0  0
  9 10  1  0  0  0  0
  9 34  1  0  0  0  0
 10 11  1  0  0  0  0
 10 18  1  0  0  0  0
 11 12  1  0  0  0  0
 11 43  1  0  0  0  0
 11 44  1  0  0  0  0
 12 13  1  0  0  0  0
 12 45  1  0  0  0  0
 12 46  1  0  0  0  0
 13 14  1  0  0  0  0
 13 47  1  0  0  0  0
 14 15  1  0  0  0  0
 14 48  1  0  0  0  0
 14 49  1  0  0  0  0
 15 16  1  0  0  0  0
 15 50  1  0  0  0  0
 15 51  1  0  0  0  0
 16 17  3  0  0  0  0
 18 19  1  0  0  0  0
 18 33  2  0  0  0  0
 19 20  2  0  0  0  0
 19 52  1  0  0  0  0
 20 21  1  0  0  0  0
 20 53  1  0  0  0  0
 21 22  1  0  0  0  0
 21 32  2  0  0  0  0
 22 23  2  0  0  0  0
 23 24  1  0  0  0  0
 23 54  1  0  0  0  0
 24 25  1  0  0  0  0
 24 31  2  0  0  0  0
 25 26  1  0  0  0  0
 25 30  2  0  0  0  0
 26 27  2  0  0  0  0
 26 55  1  0  0  0  0
 27 28  1  0  0  0  0
 28 29  1  0  0  0  0
 28 30  1  0  0  0  0
 29 56  1  0  0  0  0
 29 57  1  0  0  0  0
 29 58  1  0  0  0  0
 30 59  1  0  0  0  0
 31 32  1  0  0  0  0
 32 33  1  0  0  0  0
 33 60  1  0  0  0  0
 34 61  1  0  0  0  0
M  END
$$$$
