CHEMBL3908510
 OpenBabel04072215373D

 68 72  0  0  0  0  0  0  0  0999 V2000
  -11.3568    4.1293   -6.0508 C   0  0  0  0  0  0  0  0  0  0  0  0
  -10.1102    4.3985   -5.3363 N   0  0  0  0  0  0  0  0  0  0  0  0
  -10.2497    4.0725   -3.8972 C   0  0  0  0  0  0  0  0  0  0  0  0
   -8.9341    4.2769   -3.1051 C   0  0  0  0  0  0  0  0  0  0  0  0
   -7.8429    3.5256   -3.7441 N   0  0  0  0  0  0  0  0  0  0  0  0
   -6.8321    3.0150   -2.9631 C   0  0  0  0  0  0  0  0  0  0  0  0
   -5.5130    2.9603   -3.4053 C   0  0  0  0  0  0  0  0  0  0  0  0
   -4.5306    2.3214   -2.6442 C   0  0  0  0  0  0  0  0  0  0  0  0
   -3.1087    2.2419   -3.1215 C   0  0  0  0  0  0  0  0  0  0  0  0
   -2.9066    2.8344   -4.3304 F   0  0  0  0  0  0  0  0  0  0  0  0
   -2.2405    2.8377   -2.2606 F   0  0  0  0  0  0  0  0  0  0  0  0
   -2.6809    0.9572   -3.2582 F   0  0  0  0  0  0  0  0  0  0  0  0
   -4.9037    1.7495   -1.4323 C   0  0  0  0  0  0  0  0  0  0  0  0
   -6.2229    1.8575   -1.0282 C   0  0  0  0  0  0  0  0  0  0  0  0
   -6.5584    1.2824    0.1959 N   0  0  0  0  0  0  0  0  0  0  0  0
   -7.7567    1.2373    0.8409 C   0  0  0  0  0  0  0  0  0  0  0  0
   -7.7760    0.6823    1.9398 O   0  0  0  0  0  0  0  0  0  0  0  0
   -8.8324    1.7829    0.1988 N   0  0  0  0  0  0  0  0  0  0  0  0
  -10.1551    1.8177    0.6734 C   0  0  0  0  0  0  0  0  0  0  0  0
  -10.4792    1.6629    2.0243 C   0  0  0  0  0  0  0  0  0  0  0  0
  -11.8124    1.6028    2.4398 C   0  0  0  0  0  0  0  0  0  0  0  0
  -12.8435    1.7074    1.5085 C   0  0  0  0  0  0  0  0  0  0  0  0
  -14.1078    1.5121    2.0146 O   0  0  0  0  0  0  0  0  0  0  0  0
  -15.1804    2.1890    1.4858 C   0  0  0  0  0  0  0  0  0  0  0  0
  -15.1088    3.4859    0.9946 C   0  0  0  0  0  0  0  0  0  0  0  0
  -16.2650    4.0353    0.4862 C   0  0  0  0  0  0  0  0  0  0  0  0
  -17.4555    3.4081    0.4891 N   0  0  0  0  0  0  0  0  0  0  0  0
  -17.5310    2.1734    1.0194 C   0  0  0  0  0  0  0  0  0  0  0  0
  -18.7670    1.5050    1.0655 N   0  0  0  0  0  0  0  0  0  0  0  0
  -19.9410    2.0220    0.5701 C   0  0  0  0  0  0  0  0  0  0  0  0
  -20.1163    3.0951    0.0105 O   0  0  0  0  0  0  0  0  0  0  0  0
  -21.1227    1.1263    0.7901 C   0  0  0  0  0  0  0  0  0  0  0  0
  -22.4471    1.4461    0.1276 C   0  0  0  0  0  0  0  0  0  0  0  0
  -22.2884    1.6386    1.6077 C   0  0  0  0  0  0  0  0  0  0  0  0
  -16.4116    1.5311    1.5328 C   0  0  0  0  0  0  0  0  0  0  0  0
  -12.5174    1.8931    0.1624 C   0  0  0  0  0  0  0  0  0  0  0  0
  -13.4695    1.9580   -0.7798 F   0  0  0  0  0  0  0  0  0  0  0  0
  -11.1868    1.9857   -0.2524 C   0  0  0  0  0  0  0  0  0  0  0  0
   -7.1684    2.4761   -1.7694 N   0  0  0  0  0  0  0  0  0  0  0  0
   -7.6719    3.8105   -5.1725 C   0  0  0  0  0  0  0  0  0  0  0  0
   -9.0103    3.5964   -5.9111 C   0  0  0  0  0  0  0  0  0  0  0  0
  -12.1667    4.7515   -5.6575 H   0  0  0  0  0  0  0  0  0  0  0  0
  -11.6597    3.0782   -5.9783 H   0  0  0  0  0  0  0  0  0  0  0  0
  -11.2494    4.3817   -7.1120 H   0  0  0  0  0  0  0  0  0  0  0  0
  -10.5694    3.0285   -3.7764 H   0  0  0  0  0  0  0  0  0  0  0  0
  -11.0250    4.7072   -3.4515 H   0  0  0  0  0  0  0  0  0  0  0  0
   -9.1066    3.9764   -2.0662 H   0  0  0  0  0  0  0  0  0  0  0  0
   -8.6768    5.3446   -3.0912 H   0  0  0  0  0  0  0  0  0  0  0  0
   -5.2269    3.4195   -4.3463 H   0  0  0  0  0  0  0  0  0  0  0  0
   -4.1683    1.2327   -0.8221 H   0  0  0  0  0  0  0  0  0  0  0  0
   -5.8312    0.8238    0.7273 H   0  0  0  0  0  0  0  0  0  0  0  0
   -8.6549    2.0152   -0.7780 H   0  0  0  0  0  0  0  0  0  0  0  0
   -9.7058    1.5790    2.7830 H   0  0  0  0  0  0  0  0  0  0  0  0
  -12.0358    1.4510    3.4929 H   0  0  0  0  0  0  0  0  0  0  0  0
  -14.1890    4.0534    0.9804 H   0  0  0  0  0  0  0  0  0  0  0  0
  -16.2726    5.0276    0.0450 H   0  0  0  0  0  0  0  0  0  0  0  0
  -18.7857    0.6013    1.5100 H   0  0  0  0  0  0  0  0  0  0  0  0
  -20.8933    0.0711    0.8784 H   0  0  0  0  0  0  0  0  0  0  0  0
  -23.0553    0.6199   -0.2203 H   0  0  0  0  0  0  0  0  0  0  0  0
  -22.5153    2.3331   -0.4934 H   0  0  0  0  0  0  0  0  0  0  0  0
  -22.7962    0.9464    2.2663 H   0  0  0  0  0  0  0  0  0  0  0  0
  -22.2497    2.6594    1.9756 H   0  0  0  0  0  0  0  0  0  0  0  0
  -16.4728    0.5362    1.9594 H   0  0  0  0  0  0  0  0  0  0  0  0
  -10.9806    2.1213   -1.3089 H   0  0  0  0  0  0  0  0  0  0  0  0
   -6.9452    3.1340   -5.6360 H   0  0  0  0  0  0  0  0  0  0  0  0
   -7.3169    4.8395   -5.3098 H   0  0  0  0  0  0  0  0  0  0  0  0
   -9.2622    2.5271   -5.8725 H   0  0  0  0  0  0  0  0  0  0  0  0
   -8.8666    3.8613   -6.9650 H   0  0  0  0  0  0  0  0  0  0  0  0
  1  2  1  0  0  0  0
  1 42  1  0  0  0  0
  1 43  1  0  0  0  0
  1 44  1  0  0  0  0
  2  3  1  0  0  0  0
  2 41  1  0  0  0  0
  3  4  1  0  0  0  0
  3 45  1  0  0  0  0
  3 46  1  0  0  0  0
  4  5  1  0  0  0  0
  4 47  1  0  0  0  0
  4 48  1  0  0  0  0
  5  6  1  0  0  0  0
  5 40  1  0  0  0  0
  6  7  1  0  0  0  0
  6 39  2  0  0  0  0
  7  8  2  0  0  0  0
  7 49  1  0  0  0  0
  8  9  1  0  0  0  0
  8 13  1  0  0  0  0
  9 10  1  0  0  0  0
  9 11  1  0  0  0  0
  9 12  1  0  0  0  0
 13 14  2  0  0  0  0
 13 50  1  0  0  0  0
 14 15  1  0  0  0  0
 14 39  1  0  0  0  0
 15 16  1  0  0  0  0
 15 51  1  0  0  0  0
 16 17  2  0  0  0  0
 16 18  1  0  0  0  0
 18 19  1  0  0  0  0
 18 52  1  0  0  0  0
 19 20  1  0  0  0  0
 19 38  2  0  0  0  0
 20 21  2  0  0  0  0
 20 53  1  0  0  0  0
 21 22  1  0  0  0  0
 21 54  1  0  0  0  0
 22 23  1  0  0  0  0
 22 36  2  0  0  0  0
 23 24  1  0  0  0  0
 24 25  1  0  0  0  0
 24 35  2  0  0  0  0
 25 26  2  0  0  0  0
 25 55  1  0  0  0  0
 26 27  1  0  0  0  0
 26 56  1  0  0  0  0
 27 28  2  0  0  0  0
 28 29  1  0  0  0  0
 28 35  1  0  0  0  0
 29 30  1  0  0  0  0
 29 57  1  0  0  0  0
 30 31  2  0  0  0  0
 30 32  1  0  0  0  0
 32 33  1  0  0  0  0
 32 34  1  0  0  0  0
 32 58  1  0  0  0  0
 33 34  1  0  0  0  0
 33 59  1  0  0  0  0
 33 60  1  0  0  0  0
 34 61  1  0  0  0  0
 34 62  1  0  0  0  0
 35 63  1  0  0  0  0
 36 37  1  0  0  0  0
 36 38  1  0  0  0  0
 38 64  1  0  0  0  0
 40 41  1  0  0  0  0
 40 65  1  0  0  0  0
 40 66  1  0  0  0  0
 41 67  1  0  0  0  0
 41 68  1  0  0  0  0
M  END
$$$$
