CHEMBL1083071
 OpenBabel04072215363D

 55 61  0  0  1  0  0  0  0  0999 V2000
    0.9667    0.5907   -0.0817 C   0  0  0  0  0  0  0  0  0  0  0  0
    1.9654   -0.3173   -0.6211 N   0  0  0  0  0  0  0  0  0  0  0  0
    2.1102   -0.4206   -1.9666 N   0  0  0  0  0  0  0  0  0  0  0  0
    1.8117   -1.7199   -2.1818 C   0  0  0  0  0  0  0  0  0  0  0  0
    1.4329   -2.3636   -0.9816 C   0  0  0  0  0  0  0  0  0  0  0  0
    2.1222   -1.5555   -0.0740 C   0  0  0  0  0  0  0  0  0  0  0  0
    2.6072   -1.8969    1.2895 C   0  0  0  0  0  0  0  0  0  0  0  0
    1.6886   -2.9844    1.7973 C   0  0  0  0  0  0  0  0  0  0  0  0
    1.5802   -4.0319    0.7362 C   0  0  0  0  0  0  0  0  0  0  0  0
    1.0631   -3.6820   -0.5212 C   0  0  0  0  0  0  0  0  0  0  0  0
    0.2006   -4.6705   -0.9957 C   0  0  0  0  0  0  0  0  0  0  0  0
    0.4533   -6.0448   -0.6908 C   0  0  0  0  0  0  0  0  0  0  0  0
    1.7231   -6.2551   -0.1134 C   0  0  0  0  0  0  0  0  0  0  0  0
    2.2846   -5.1918    0.5568 C   0  0  0  0  0  0  0  0  0  0  0  0
    3.5658   -5.5613    0.7945 N   0  0  0  0  0  0  0  0  0  0  0  0
    3.7573   -6.8516    0.3033 C   0  0  0  0  0  0  0  0  0  0  0  0
    4.9424   -7.5759    0.1691 C   0  0  0  0  0  0  0  0  0  0  0  0
    4.8299   -8.9559   -0.0253 C   0  0  0  0  0  0  0  0  0  0  0  0
    3.5870   -9.5784   -0.1214 C   0  0  0  0  0  0  0  0  0  0  0  0
    3.3574  -11.0532    0.1701 C   0  0  3  0  0  0  0  0  0  0  0  0
    4.5042  -12.0811    0.0536 C   0  0  0  0  0  0  0  0  0  0  0  0
    4.5713  -12.8670   -1.2584 C   0  0  0  0  0  0  0  0  0  0  0  0
    3.2179  -13.0594   -1.9318 C   0  0  0  0  0  0  0  0  0  0  0  0
    2.4281  -11.7719   -1.8799 C   0  0  0  0  0  0  0  0  0  0  0  0
    2.1788  -11.4973   -0.5052 O   0  0  0  0  0  0  0  0  0  0  0  0
    2.4211   -8.7622   -0.2650 C   0  0  0  0  0  0  0  0  0  0  0  0
    2.5111   -7.3848   -0.0438 C   0  0  0  0  0  0  0  0  0  0  0  0
   -0.7114   -6.8934   -0.8769 C   0  0  0  0  0  0  0  0  0  0  0  0
   -1.6655   -5.8676   -1.2984 N   0  0  0  0  0  0  0  0  0  0  0  0
   -1.1760   -4.5509   -1.3976 C   0  0  0  0  0  0  0  0  0  0  0  0
   -1.9076   -3.5953   -1.6145 O   0  0  0  0  0  0  0  0  0  0  0  0
    1.3912    1.6004   -0.0788 H   0  0  0  0  0  0  0  0  0  0  0  0
    0.7045    0.2789    0.9302 H   0  0  0  0  0  0  0  0  0  0  0  0
    0.0832    0.5274   -0.7157 H   0  0  0  0  0  0  0  0  0  0  0  0
    1.9269   -2.1115   -3.1839 H   0  0  0  0  0  0  0  0  0  0  0  0
    2.6360   -1.0448    1.9702 H   0  0  0  0  0  0  0  0  0  0  0  0
    3.6235   -2.3097    1.2192 H   0  0  0  0  0  0  0  0  0  0  0  0
    0.6772   -2.5618    1.9383 H   0  0  0  0  0  0  0  0  0  0  0  0
    1.9774   -3.4137    2.7579 H   0  0  0  0  0  0  0  0  0  0  0  0
    4.2936   -4.9544    1.1172 H   0  0  0  0  0  0  0  0  0  0  0  0
    5.9143   -7.1046    0.2844 H   0  0  0  0  0  0  0  0  0  0  0  0
    5.7485   -9.5338   -0.0338 H   0  0  0  0  0  0  0  0  0  0  0  0
    3.1023  -11.0464    1.2393 H   0  0  0  0  0  0  0  0  0  0  0  0
    4.3247  -12.8251    0.8409 H   0  0  0  0  0  0  0  0  0  0  0  0
    5.4851  -11.6572    0.2869 H   0  0  0  0  0  0  0  0  0  0  0  0
    5.0174  -13.8525   -1.0662 H   0  0  0  0  0  0  0  0  0  0  0  0
    5.2451  -12.3507   -1.9505 H   0  0  0  0  0  0  0  0  0  0  0  0
    2.6607  -13.8395   -1.3987 H   0  0  0  0  0  0  0  0  0  0  0  0
    3.3514  -13.3873   -2.9667 H   0  0  0  0  0  0  0  0  0  0  0  0
    1.4633  -11.8778   -2.3760 H   0  0  0  0  0  0  0  0  0  0  0  0
    2.9645  -10.9460   -2.3616 H   0  0  0  0  0  0  0  0  0  0  0  0
    1.4397   -9.2082   -0.4053 H   0  0  0  0  0  0  0  0  0  0  0  0
   -1.0424   -7.3176    0.0762 H   0  0  0  0  0  0  0  0  0  0  0  0
   -0.6170   -7.6507   -1.6540 H   0  0  0  0  0  0  0  0  0  0  0  0
   -2.6669   -5.9915   -1.2203 H   0  0  0  0  0  0  0  0  0  0  0  0
  1  2  1  0  0  0  0
  1 32  1  0  0  0  0
  1 33  1  0  0  0  0
  1 34  1  0  0  0  0
  2  3  1  0  0  0  0
  2  6  1  0  0  0  0
  3  4  2  0  0  0  0
  4  5  1  0  0  0  0
  4 35  1  0  0  0  0
  5  6  2  0  0  0  0
  5 10  1  0  0  0  0
  6  7  1  0  0  0  0
  7  8  1  0  0  0  0
  7 36  1  0  0  0  0
  7 37  1  0  0  0  0
  8  9  1  0  0  0  0
  8 38  1  0  0  0  0
  8 39  1  0  0  0  0
  9 10  1  0  0  0  0
  9 14  2  0  0  0  0
 10 11  2  0  0  0  0
 11 12  1  0  0  0  0
 11 30  1  0  0  0  0
 12 13  2  0  0  0  0
 12 28  1  0  0  0  0
 13 14  1  0  0  0  0
 13 27  1  0  0  0  0
 14 15  1  0  0  0  0
 15 16  1  0  0  0  0
 15 40  1  0  0  0  0
 16 17  1  0  0  0  0
 16 27  2  0  0  0  0
 17 18  2  0  0  0  0
 17 41  1  0  0  0  0
 18 19  1  0  0  0  0
 18 42  1  0  0  0  0
 19 20  1  0  0  0  0
 19 26  2  0  0  0  0
 20 21  1  0  0  0  0
 20 25  1  0  0  0  0
 20 43  1  0  0  0  0
 21 22  1  0  0  0  0
 21 44  1  0  0  0  0
 21 45  1  0  0  0  0
 22 23  1  0  0  0  0
 22 46  1  0  0  0  0
 22 47  1  0  0  0  0
 23 24  1  0  0  0  0
 23 48  1  0  0  0  0
 23 49  1  0  0  0  0
 24 25  1  0  0  0  0
 24 50  1  0  0  0  0
 24 51  1  0  0  0  0
 26 27  1  0  0  0  0
 26 52  1  0  0  0  0
 28 29  1  0  0  0  0
 28 53  1  0  0  0  0
 28 54  1  0  0  0  0
 29 30  1  0  0  0  0
 29 55  1  0  0  0  0
 30 31  2  0  0  0  0
M  END
$$$$
