CHEMBL1688357
 OpenBabel04072215363D

 56 61  0  0  0  0  0  0  0  0999 V2000
    1.3673   -0.2900    0.0628 C   0  0  0  0  0  0  0  0  0  0  0  0
    0.5131   -1.3737   -0.0397 C   0  0  0  0  0  0  0  0  0  0  0  0
   -0.8612   -1.1585   -0.1355 C   0  0  0  0  0  0  0  0  0  0  0  0
   -1.4088    0.1465   -0.1411 C   0  0  0  0  0  0  0  0  0  0  0  0
   -2.8673    0.2907   -0.2453 C   0  0  0  0  0  0  0  0  0  0  0  0
   -3.5436    1.2665   -0.8238 N   0  0  0  0  0  0  0  0  0  0  0  0
   -4.8912    1.0251   -0.6493 N   0  0  0  0  0  0  0  0  0  0  0  0
   -5.0260   -0.0992    0.0151 C   0  0  0  0  0  0  0  0  0  0  0  0
   -6.1526   -0.6566    0.5152 N   0  0  0  0  0  0  0  0  0  0  0  0
   -6.3860   -2.0010    0.8663 C   0  0  0  0  0  0  0  0  0  0  0  0
   -5.8620   -3.0697    0.1298 C   0  0  0  0  0  0  0  0  0  0  0  0
   -6.0557   -4.3915    0.5519 C   0  0  0  0  0  0  0  0  0  0  0  0
   -6.7610   -4.6613    1.7214 C   0  0  0  0  0  0  0  0  0  0  0  0
   -7.3411   -3.6104    2.4273 C   0  0  0  0  0  0  0  0  0  0  0  0
   -7.1586   -2.2924    1.9954 C   0  0  0  0  0  0  0  0  0  0  0  0
   -8.0971   -3.8018    3.5503 O   0  0  0  0  0  0  0  0  0  0  0  0
   -7.7383   -5.0132    4.2167 C   0  0  0  0  0  0  0  0  0  0  0  0
   -7.6235   -6.2001    3.2705 C   0  0  0  0  0  0  0  0  0  0  0  0
   -6.8125   -5.9671    2.1173 O   0  0  0  0  0  0  0  0  0  0  0  0
   -3.7785   -0.5985    0.2746 N   0  0  0  0  0  0  0  0  0  0  0  0
   -0.5350    1.2666   -0.0795 C   0  0  0  0  0  0  0  0  0  0  0  0
   -1.0286    2.6078   -0.0064 N   0  0  0  0  0  0  0  0  0  0  0  0
   -0.1313    3.6262   -0.5485 C   0  0  0  0  0  0  0  0  0  0  0  0
   -0.6595    5.0442   -0.5691 C   0  0  0  0  0  0  0  0  0  0  0  0
   -0.1181    5.9164   -1.5271 C   0  0  0  0  0  0  0  0  0  0  0  0
   -0.4248    7.2781   -1.5212 C   0  0  0  0  0  0  0  0  0  0  0  0
   -1.2706    7.8221   -0.5782 C   0  0  0  0  0  0  0  0  0  0  0  0
   -1.5107    9.1444   -0.6227 N   0  0  0  0  0  0  0  0  0  0  0  0
   -2.3507    9.6637    0.2962 C   0  0  0  0  0  0  0  0  0  0  0  0
   -2.9725    8.9137    1.2751 C   0  0  0  0  0  0  0  0  0  0  0  0
   -2.7080    7.5470    1.3237 C   0  0  0  0  0  0  0  0  0  0  0  0
   -1.8393    6.9649    0.3879 C   0  0  0  0  0  0  0  0  0  0  0  0
   -1.5182    5.5838    0.3976 C   0  0  0  0  0  0  0  0  0  0  0  0
    0.8473    1.0055    0.0618 C   0  0  0  0  0  0  0  0  0  0  0  0
    2.4403   -0.4406    0.1506 H   0  0  0  0  0  0  0  0  0  0  0  0
    0.9143   -2.3834   -0.0413 H   0  0  0  0  0  0  0  0  0  0  0  0
   -1.5009   -2.0323   -0.2253 H   0  0  0  0  0  0  0  0  0  0  0  0
   -7.0065   -0.1159    0.4024 H   0  0  0  0  0  0  0  0  0  0  0  0
   -5.3266   -2.8903   -0.8001 H   0  0  0  0  0  0  0  0  0  0  0  0
   -5.6588   -5.2126   -0.0376 H   0  0  0  0  0  0  0  0  0  0  0  0
   -7.5938   -1.4842    2.5828 H   0  0  0  0  0  0  0  0  0  0  0  0
   -6.8004   -4.8428    4.7592 H   0  0  0  0  0  0  0  0  0  0  0  0
   -8.5123   -5.2225    4.9649 H   0  0  0  0  0  0  0  0  0  0  0  0
   -8.6117   -6.5297    2.9300 H   0  0  0  0  0  0  0  0  0  0  0  0
   -7.1693   -7.0366    3.8132 H   0  0  0  0  0  0  0  0  0  0  0  0
   -3.5780   -1.4155    0.8269 H   0  0  0  0  0  0  0  0  0  0  0  0
   -1.9595    2.6460   -0.4383 H   0  0  0  0  0  0  0  0  0  0  0  0
    0.1380    3.3425   -1.5751 H   0  0  0  0  0  0  0  0  0  0  0  0
    0.7840    3.6855    0.0487 H   0  0  0  0  0  0  0  0  0  0  0  0
    0.5738    5.5449   -2.2794 H   0  0  0  0  0  0  0  0  0  0  0  0
    0.0298    7.9322   -2.2625 H   0  0  0  0  0  0  0  0  0  0  0  0
   -2.5138   10.7346    0.2161 H   0  0  0  0  0  0  0  0  0  0  0  0
   -3.6513    9.3815    1.9788 H   0  0  0  0  0  0  0  0  0  0  0  0
   -3.1878    6.9399    2.0866 H   0  0  0  0  0  0  0  0  0  0  0  0
   -1.9258    4.9347    1.1725 H   0  0  0  0  0  0  0  0  0  0  0  0
    1.5659    1.8100    0.1793 H   0  0  0  0  0  0  0  0  0  0  0  0
  1  2  1  0  0  0  0
  1 34  2  0  0  0  0
  1 35  1  0  0  0  0
  2  3  2  0  0  0  0
  2 36  1  0  0  0  0
  3  4  1  0  0  0  0
  3 37  1  0  0  0  0
  4  5  1  0  0  0  0
  4 21  2  0  0  0  0
  5  6  2  0  0  0  0
  5 20  1  0  0  0  0
  6  7  1  0  0  0  0
  7  8  2  0  0  0  0
  8  9  1  0  0  0  0
  8 20  1  0  0  0  0
  9 10  1  0  0  0  0
  9 38  1  0  0  0  0
 10 11  1  0  0  0  0
 10 15  2  0  0  0  0
 11 12  2  0  0  0  0
 11 39  1  0  0  0  0
 12 13  1  0  0  0  0
 12 40  1  0  0  0  0
 13 14  2  0  0  0  0
 13 19  1  0  0  0  0
 14 15  1  0  0  0  0
 14 16  1  0  0  0  0
 15 41  1  0  0  0  0
 16 17  1  0  0  0  0
 17 18  1  0  0  0  0
 17 42  1  0  0  0  0
 17 43  1  0  0  0  0
 18 19  1  0  0  0  0
 18 44  1  0  0  0  0
 18 45  1  0  0  0  0
 20 46  1  0  0  0  0
 21 22  1  0  0  0  0
 21 34  1  0  0  0  0
 22 23  1  0  0  0  0
 22 47  1  0  0  0  0
 23 24  1  0  0  0  0
 23 48  1  0  0  0  0
 23 49  1  0  0  0  0
 24 25  1  0  0  0  0
 24 33  2  0  0  0  0
 25 26  2  0  0  0  0
 25 50  1  0  0  0  0
 26 27  1  0  0  0  0
 26 51  1  0  0  0  0
 27 28  1  0  0  0  0
 27 32  2  0  0  0  0
 28 29  2  0  0  0  0
 29 30  1  0  0  0  0
 29 52  1  0  0  0  0
 30 31  2  0  0  0  0
 30 53  1  0  0  0  0
 31 32  1  0  0  0  0
 31 54  1  0  0  0  0
 32 33  1  0  0  0  0
 33 55  1  0  0  0  0
 34 56  1  0  0  0  0
M  END
$$$$
