CHEMBL4076909
 OpenBabel04072215383D

 62 67  0  0  1  0  0  0  0  0999 V2000
   10.6054    2.4459    1.4518 C   0  0  0  0  0  0  0  0  0  0  0  0
   11.1309    1.1779    2.0832 C   0  0  0  0  0  0  0  0  0  0  0  0
   12.1421    1.2371    2.7806 O   0  0  0  0  0  0  0  0  0  0  0  0
   10.4255    0.0056    1.8481 N   0  0  0  0  0  0  0  0  0  0  0  0
    9.3343   -0.0814    0.8777 C   0  0  0  0  0  0  0  0  0  0  0  0
    8.0096   -0.4036    1.5330 C   0  0  0  0  0  0  0  0  0  0  0  0
    6.9108   -0.1352    0.7948 N   0  0  0  0  0  0  0  0  0  0  0  0
    5.7358   -0.4168    1.3604 C   0  0  0  0  0  0  0  0  0  0  0  0
    5.5639   -0.9507    2.5673 N   0  0  0  0  0  0  0  0  0  0  0  0
    6.6817   -1.2813    3.2539 C   0  0  0  0  0  0  0  0  0  0  0  0
    6.5232   -1.9648    4.4666 O   0  0  0  0  0  0  0  0  0  0  0  0
    5.3432   -2.6850    4.6117 C   0  0  0  0  0  0  0  0  0  0  0  0
    4.8489   -3.4842    3.5804 C   0  0  0  0  0  0  0  0  0  0  0  0
    3.5859   -4.0718    3.6592 C   0  0  0  0  0  0  0  0  0  0  0  0
    2.8441   -3.8885    4.8337 C   0  0  0  0  0  0  0  0  0  0  0  0
    3.3590   -3.1863    5.9306 C   0  0  0  0  0  0  0  0  0  0  0  0
    2.3700   -3.2577    6.9519 C   0  0  0  0  0  0  0  0  0  0  0  0
    1.2533   -3.8730    6.4254 C   0  0  0  0  0  0  0  0  0  0  0  0
    1.5434   -4.2792    5.1352 N   0  0  0  0  0  0  0  0  0  0  0  0
    0.7192   -5.0575    4.3098 C   0  0  0  0  0  0  0  0  0  0  0  0
    1.1372   -6.1427    3.9116 O   0  0  0  0  0  0  0  0  0  0  0  0
   -0.4283   -4.3894    3.9392 N   0  0  0  0  0  0  0  0  0  0  0  0
   -1.2072   -4.9484    2.9369 C   0  0  0  0  0  0  0  0  0  0  0  0
   -1.5855   -6.3046    2.8058 C   0  0  0  0  0  0  0  0  0  0  0  0
   -2.1722   -6.3976    1.5640 C   0  0  0  0  0  0  0  0  0  0  0  0
   -2.6882   -7.6806    0.8663 C   0  0  0  0  0  0  0  0  0  0  0  0
   -3.1084   -7.5737   -0.5883 C   0  0  0  0  0  0  0  0  0  0  0  0
   -2.9822   -6.3292   -1.0989 F   0  0  0  0  0  0  0  0  0  0  0  0
   -2.3620   -8.4009   -1.3637 F   0  0  0  0  0  0  0  0  0  0  0  0
   -4.4045   -7.9451   -0.7464 F   0  0  0  0  0  0  0  0  0  0  0  0
   -3.4536   -8.6662    1.7683 C   0  0  0  0  0  0  0  0  0  0  0  0
   -2.0802   -9.0186    1.3281 C   0  0  0  0  0  0  0  0  0  0  0  0
   -2.2164   -5.1428    1.0266 O   0  0  0  0  0  0  0  0  0  0  0  0
   -1.6784   -4.2251    1.9200 N   0  0  0  0  0  0  0  0  0  0  0  0
    4.6423   -2.5934    5.8248 C   0  0  0  0  0  0  0  0  0  0  0  0
    7.9554   -0.9992    2.7936 C   0  0  0  0  0  0  0  0  0  0  0  0
    9.2119   -1.2299    3.5957 C   0  0  0  0  0  0  0  0  0  0  0  0
   10.4974   -1.1768    2.7333 C   0  0  2  0  0  0  0  0  0  0  0  0
   11.7270   -1.3192    3.6312 C   0  0  0  0  0  0  0  0  0  0  0  0
   11.1048    3.3063    1.9089 H   0  0  0  0  0  0  0  0  0  0  0  0
    9.5353    2.5539    1.6520 H   0  0  0  0  0  0  0  0  0  0  0  0
   10.8056    2.4562    0.3781 H   0  0  0  0  0  0  0  0  0  0  0  0
    9.5826   -0.8895    0.1788 H   0  0  0  0  0  0  0  0  0  0  0  0
    9.2352    0.8275    0.2803 H   0  0  0  0  0  0  0  0  0  0  0  0
    4.8417   -0.2113    0.7832 H   0  0  0  0  0  0  0  0  0  0  0  0
    5.4129   -3.6004    2.6590 H   0  0  0  0  0  0  0  0  0  0  0  0
    3.1839   -4.6160    2.8100 H   0  0  0  0  0  0  0  0  0  0  0  0
    2.4610   -2.8847    7.9651 H   0  0  0  0  0  0  0  0  0  0  0  0
    0.3057   -4.1313    6.8797 H   0  0  0  0  0  0  0  0  0  0  0  0
   -0.4104   -3.3748    3.9445 H   0  0  0  0  0  0  0  0  0  0  0  0
   -1.3966   -7.1052    3.5044 H   0  0  0  0  0  0  0  0  0  0  0  0
   -4.2820   -9.2217    1.3380 H   0  0  0  0  0  0  0  0  0  0  0  0
   -3.6140   -8.4171    2.8112 H   0  0  0  0  0  0  0  0  0  0  0  0
   -1.9773   -9.8212    0.6026 H   0  0  0  0  0  0  0  0  0  0  0  0
   -1.2868   -9.0260    2.0662 H   0  0  0  0  0  0  0  0  0  0  0  0
    5.0541   -2.0295    6.6582 H   0  0  0  0  0  0  0  0  0  0  0  0
    9.1620   -2.1992    4.1059 H   0  0  0  0  0  0  0  0  0  0  0  0
    9.2612   -0.4445    4.3614 H   0  0  0  0  0  0  0  0  0  0  0  0
   10.5024   -2.0467    2.0600 H   0  0  0  0  0  0  0  0  0  0  0  0
   11.7847   -0.5154    4.3723 H   0  0  0  0  0  0  0  0  0  0  0  0
   12.6517   -1.3253    3.0452 H   0  0  0  0  0  0  0  0  0  0  0  0
   11.6808   -2.2603    4.1901 H   0  0  0  0  0  0  0  0  0  0  0  0
  1  2  1  0  0  0  0
  1 40  1  0  0  0  0
  1 41  1  0  0  0  0
  1 42  1  0  0  0  0
  2  3  2  0  0  0  0
  2  4  1  0  0  0  0
  4  5  1  0  0  0  0
  4 38  1  0  0  0  0
  5  6  1  0  0  0  0
  5 43  1  0  0  0  0
  5 44  1  0  0  0  0
  6  7  1  0  0  0  0
  6 36  2  0  0  0  0
  7  8  2  0  0  0  0
  8  9  1  0  0  0  0
  8 45  1  0  0  0  0
  9 10  2  0  0  0  0
 10 11  1  0  0  0  0
 10 36  1  0  0  0  0
 11 12  1  0  0  0  0
 12 13  1  0  0  0  0
 12 35  2  0  0  0  0
 13 14  2  0  0  0  0
 13 46  1  0  0  0  0
 14 15  1  0  0  0  0
 14 47  1  0  0  0  0
 15 16  2  0  0  0  0
 15 19  1  0  0  0  0
 16 17  1  0  0  0  0
 16 35  1  0  0  0  0
 17 18  2  0  0  0  0
 17 48  1  0  0  0  0
 18 19  1  0  0  0  0
 18 49  1  0  0  0  0
 19 20  1  0  0  0  0
 20 21  2  0  0  0  0
 20 22  1  0  0  0  0
 22 23  1  0  0  0  0
 22 50  1  0  0  0  0
 23 24  1  0  0  0  0
 23 34  2  0  0  0  0
 24 25  2  0  0  0  0
 24 51  1  0  0  0  0
 25 26  1  0  0  0  0
 25 33  1  0  0  0  0
 26 27  1  0  0  0  0
 26 31  1  0  0  0  0
 26 32  1  0  0  0  0
 27 28  1  0  0  0  0
 27 29  1  0  0  0  0
 27 30  1  0  0  0  0
 31 32  1  0  0  0  0
 31 52  1  0  0  0  0
 31 53  1  0  0  0  0
 32 54  1  0  0  0  0
 32 55  1  0  0  0  0
 33 34  1  0  0  0  0
 35 56  1  0  0  0  0
 36 37  1  0  0  0  0
 37 38  1  0  0  0  0
 37 57  1  0  0  0  0
 37 58  1  0  0  0  0
 38 39  1  0  0  0  0
 38 59  1  6  0  0  0
 39 60  1  0  0  0  0
 39 61  1  0  0  0  0
 39 62  1  0  0  0  0
M  END
$$$$
