CHEMBL4289433
 OpenBabel04072215383D

 53 57  0  0  0  0  0  0  0  0999 V2000
    2.5127   -0.2450    0.4131 C   0  0  0  0  0  0  0  0  0  0  0  0
    1.0234   -0.1087    0.2929 C   0  0  0  0  0  0  0  0  0  0  0  0
    0.4046   -0.0535   -0.9604 C   0  0  0  0  0  0  0  0  0  0  0  0
   -0.9880    0.0274   -1.0624 C   0  0  0  0  0  0  0  0  0  0  0  0
   -1.7801    0.0810    0.0928 C   0  0  0  0  0  0  0  0  0  0  0  0
   -3.2887    0.0897    0.0222 C   0  0  0  0  0  0  0  0  0  0  0  0
   -3.8956   -0.5013    1.0114 N   0  0  0  0  0  0  0  0  0  0  0  0
   -5.2730   -0.7004    0.9568 C   0  0  0  0  0  0  0  0  0  0  0  0
   -6.0988   -0.9972   -0.1520 C   0  0  0  0  0  0  0  0  0  0  0  0
   -7.3403   -1.3025    0.2356 N   0  0  0  0  0  0  0  0  0  0  0  0
   -7.3053   -1.1398    1.5699 N   0  0  0  0  0  0  0  0  0  0  0  0
   -6.0883   -0.7526    2.0585 C   0  0  0  0  0  0  0  0  0  0  0  0
   -5.8364   -0.4867    3.4875 C   0  0  0  0  0  0  0  0  0  0  0  0
   -5.7159   -0.8831   -1.4405 N   0  0  0  0  0  0  0  0  0  0  0  0
   -4.9932    0.2444   -1.8587 C   0  0  0  0  0  0  0  0  0  0  0  0
   -5.4646    0.8405   -2.9739 N   0  0  0  0  0  0  0  0  0  0  0  0
   -4.9271    2.0044   -3.3650 C   0  0  0  0  0  0  0  0  0  0  0  0
   -5.3581    2.5765   -4.5360 N   0  0  0  0  0  0  0  0  0  0  0  0
   -6.6322    2.1529   -5.1190 C   0  0  0  0  0  0  0  0  0  0  0  0
   -6.5765    2.3703   -6.6495 C   0  0  0  0  0  0  0  0  0  0  0  0
   -6.2422    3.7677   -7.0161 N   0  0  0  0  0  0  0  0  0  0  0  0
   -6.1453    3.9048   -8.4672 C   0  0  0  0  0  0  0  0  0  0  0  0
   -4.9612    4.1479   -6.3743 C   0  0  0  0  0  0  0  0  0  0  0  0
   -4.9774    3.9560   -4.8398 C   0  0  0  0  0  0  0  0  0  0  0  0
   -3.9310    2.5954   -2.6895 N   0  0  0  0  0  0  0  0  0  0  0  0
   -3.4528    1.9628   -1.6019 C   0  0  0  0  0  0  0  0  0  0  0  0
   -3.9255    0.7539   -1.1481 C   0  0  0  0  0  0  0  0  0  0  0  0
   -1.1588    0.0367    1.3471 C   0  0  0  0  0  0  0  0  0  0  0  0
    0.2320   -0.0544    1.4461 C   0  0  0  0  0  0  0  0  0  0  0  0
    2.9865   -0.3531   -0.5681 H   0  0  0  0  0  0  0  0  0  0  0  0
    2.7627   -1.1348    1.0005 H   0  0  0  0  0  0  0  0  0  0  0  0
    2.9345    0.6402    0.8998 H   0  0  0  0  0  0  0  0  0  0  0  0
    1.0007   -0.0981   -1.8699 H   0  0  0  0  0  0  0  0  0  0  0  0
   -1.4302    0.0146   -2.0553 H   0  0  0  0  0  0  0  0  0  0  0  0
   -8.1588   -1.3119    2.0930 H   0  0  0  0  0  0  0  0  0  0  0  0
   -6.7638   -0.5151    4.0695 H   0  0  0  0  0  0  0  0  0  0  0  0
   -5.3971    0.5081    3.6129 H   0  0  0  0  0  0  0  0  0  0  0  0
   -5.1464   -1.2245    3.9048 H   0  0  0  0  0  0  0  0  0  0  0  0
   -6.4672   -1.0260   -2.1074 H   0  0  0  0  0  0  0  0  0  0  0  0
   -7.4557    2.7348   -4.6868 H   0  0  0  0  0  0  0  0  0  0  0  0
   -6.8477    1.0929   -4.9417 H   0  0  0  0  0  0  0  0  0  0  0  0
   -7.5499    2.0994   -7.0758 H   0  0  0  0  0  0  0  0  0  0  0  0
   -5.8298    1.6826   -7.0699 H   0  0  0  0  0  0  0  0  0  0  0  0
   -7.1012    3.6529   -8.9385 H   0  0  0  0  0  0  0  0  0  0  0  0
   -5.3687    3.2608   -8.8958 H   0  0  0  0  0  0  0  0  0  0  0  0
   -5.9216    4.9420   -8.7388 H   0  0  0  0  0  0  0  0  0  0  0  0
   -4.7379    5.1994   -6.5895 H   0  0  0  0  0  0  0  0  0  0  0  0
   -4.1405    3.5458   -6.7886 H   0  0  0  0  0  0  0  0  0  0  0  0
   -5.6887    4.6527   -4.3796 H   0  0  0  0  0  0  0  0  0  0  0  0
   -3.9774    4.2084   -4.4681 H   0  0  0  0  0  0  0  0  0  0  0  0
   -2.6411    2.4865   -1.1045 H   0  0  0  0  0  0  0  0  0  0  0  0
   -1.7554    0.0508    2.2569 H   0  0  0  0  0  0  0  0  0  0  0  0
    0.6923   -0.1044    2.4304 H   0  0  0  0  0  0  0  0  0  0  0  0
  1  2  1  0  0  0  0
  1 30  1  0  0  0  0
  1 31  1  0  0  0  0
  1 32  1  0  0  0  0
  2  3  1  0  0  0  0
  2 29  2  0  0  0  0
  3  4  2  0  0  0  0
  3 33  1  0  0  0  0
  4  5  1  0  0  0  0
  4 34  1  0  0  0  0
  5  6  1  0  0  0  0
  5 28  2  0  0  0  0
  6  7  2  0  0  0  0
  6 27  1  0  0  0  0
  7  8  1  0  0  0  0
  8  9  1  0  0  0  0
  8 12  2  0  0  0  0
  9 10  2  0  0  0  0
  9 14  1  0  0  0  0
 10 11  1  0  0  0  0
 11 12  1  0  0  0  0
 11 35  1  0  0  0  0
 12 13  1  0  0  0  0
 13 36  1  0  0  0  0
 13 37  1  0  0  0  0
 13 38  1  0  0  0  0
 14 15  1  0  0  0  0
 14 39  1  0  0  0  0
 15 16  1  0  0  0  0
 15 27  2  0  0  0  0
 16 17  2  0  0  0  0
 17 18  1  0  0  0  0
 17 25  1  0  0  0  0
 18 19  1  0  0  0  0
 18 24  1  0  0  0  0
 19 20  1  0  0  0  0
 19 40  1  0  0  0  0
 19 41  1  0  0  0  0
 20 21  1  0  0  0  0
 20 42  1  0  0  0  0
 20 43  1  0  0  0  0
 21 22  1  0  0  0  0
 21 23  1  0  0  0  0
 22 44  1  0  0  0  0
 22 45  1  0  0  0  0
 22 46  1  0  0  0  0
 23 24  1  0  0  0  0
 23 47  1  0  0  0  0
 23 48  1  0  0  0  0
 24 49  1  0  0  0  0
 24 50  1  0  0  0  0
 25 26  2  0  0  0  0
 26 27  1  0  0  0  0
 26 51  1  0  0  0  0
 28 29  1  0  0  0  0
 28 52  1  0  0  0  0
 29 53  1  0  0  0  0
M  END
$$$$
