CHEMBL3925474
 OpenBabel04072215373D

 51 54  0  0  0  0  0  0  0  0999 V2000
    1.1703   -0.9822    0.3925 O   0  0  0  0  0  0  0  0  0  0  0  0
    2.2100   -0.3946    0.1282 C   0  0  0  0  0  0  0  0  0  0  0  0
    2.7071    0.6745    0.8596 N   0  0  0  0  0  0  0  0  0  0  0  0
    2.0913    1.2841    1.9818 C   0  0  0  0  0  0  0  0  0  0  0  0
    0.9748    0.7664    2.6422 C   0  0  0  0  0  0  0  0  0  0  0  0
    0.3913    1.4532    3.7160 C   0  0  0  0  0  0  0  0  0  0  0  0
    0.9257    2.6639    4.1660 C   0  0  0  0  0  0  0  0  0  0  0  0
    0.3208    3.2000    5.2833 O   0  0  0  0  0  0  0  0  0  0  0  0
   -0.0557    4.5410    5.2657 C   0  0  0  0  0  0  0  0  0  0  0  0
   -0.3403    5.1049    6.4936 C   0  0  0  0  0  0  0  0  0  0  0  0
   -0.6380    6.4543    6.4862 C   0  0  0  0  0  0  0  0  0  0  0  0
   -0.9680    7.0877    7.7023 N   0  0  0  0  0  0  0  0  0  0  0  0
   -1.1453    8.4534    7.8323 C   0  0  0  0  0  0  0  0  0  0  0  0
   -0.8985    9.3049    6.9904 O   0  0  0  0  0  0  0  0  0  0  0  0
   -1.6745    8.9458    9.1430 C   0  0  0  0  0  0  0  0  0  0  0  0
   -1.4372    8.2913   10.4786 C   0  0  0  0  0  0  0  0  0  0  0  0
   -2.8069    8.2525    9.8616 C   0  0  0  0  0  0  0  0  0  0  0  0
   -0.6488    7.1608    5.3489 N   0  0  0  0  0  0  0  0  0  0  0  0
   -0.3863    6.5083    4.2112 C   0  0  0  0  0  0  0  0  0  0  0  0
   -0.1182    5.2058    4.1008 N   0  0  0  0  0  0  0  0  0  0  0  0
    2.0897    3.1505    3.5573 C   0  0  0  0  0  0  0  0  0  0  0  0
    2.9651    4.5186    4.1546 Cl  0  0  0  0  0  0  0  0  0  0  0  0
    2.6491    2.4763    2.4586 C   0  0  0  0  0  0  0  0  0  0  0  0
    3.0233   -0.6963   -0.9552 N   0  0  0  0  0  0  0  0  0  0  0  0
    2.7328   -1.6146   -1.9920 C   0  0  0  0  0  0  0  0  0  0  0  0
    1.5064   -2.2746   -2.1194 C   0  0  0  0  0  0  0  0  0  0  0  0
    1.2784   -3.1690   -3.1669 C   0  0  0  0  0  0  0  0  0  0  0  0
    2.2726   -3.4037   -4.1055 C   0  0  0  0  0  0  0  0  0  0  0  0
    2.0193   -4.2674   -5.0959 F   0  0  0  0  0  0  0  0  0  0  0  0
    3.4999   -2.7558   -4.0224 C   0  0  0  0  0  0  0  0  0  0  0  0
    4.5647   -2.9949   -5.0509 C   0  0  0  0  0  0  0  0  0  0  0  0
    4.2729   -3.9366   -5.9866 F   0  0  0  0  0  0  0  0  0  0  0  0
    4.8618   -1.8601   -5.7462 F   0  0  0  0  0  0  0  0  0  0  0  0
    5.7403   -3.3905   -4.4839 F   0  0  0  0  0  0  0  0  0  0  0  0
    3.7223   -1.8564   -2.9590 C   0  0  0  0  0  0  0  0  0  0  0  0
    3.5070    1.1541    0.4757 H   0  0  0  0  0  0  0  0  0  0  0  0
    0.5304   -0.1833    2.3582 H   0  0  0  0  0  0  0  0  0  0  0  0
   -0.4799    1.0233    4.2053 H   0  0  0  0  0  0  0  0  0  0  0  0
   -0.3013    4.5188    7.3991 H   0  0  0  0  0  0  0  0  0  0  0  0
   -1.0930    6.5082    8.5165 H   0  0  0  0  0  0  0  0  0  0  0  0
   -1.7102   10.0354    9.1647 H   0  0  0  0  0  0  0  0  0  0  0  0
   -1.2866    8.9500   11.3300 H   0  0  0  0  0  0  0  0  0  0  0  0
   -0.8675    7.3748   10.5411 H   0  0  0  0  0  0  0  0  0  0  0  0
   -3.5810    8.8854   10.2861 H   0  0  0  0  0  0  0  0  0  0  0  0
   -3.1794    7.3087    9.4842 H   0  0  0  0  0  0  0  0  0  0  0  0
   -0.3870    7.0987    3.3023 H   0  0  0  0  0  0  0  0  0  0  0  0
    3.5347    2.8923    1.9860 H   0  0  0  0  0  0  0  0  0  0  0  0
    3.9481   -0.2908   -0.9581 H   0  0  0  0  0  0  0  0  0  0  0  0
    0.6908   -2.1164   -1.4215 H   0  0  0  0  0  0  0  0  0  0  0  0
    0.3242   -3.6807   -3.2493 H   0  0  0  0  0  0  0  0  0  0  0  0
    4.6835   -1.3467   -2.8984 H   0  0  0  0  0  0  0  0  0  0  0  0
  1  2  2  0  0  0  0
  2  3  1  0  0  0  0
  2 24  1  0  0  0  0
  3  4  1  0  0  0  0
  3 36  1  0  0  0  0
  4  5  1  0  0  0  0
  4 23  2  0  0  0  0
  5  6  2  0  0  0  0
  5 37  1  0  0  0  0
  6  7  1  0  0  0  0
  6 38  1  0  0  0  0
  7  8  1  0  0  0  0
  7 21  2  0  0  0  0
  8  9  1  0  0  0  0
  9 10  1  0  0  0  0
  9 20  2  0  0  0  0
 10 11  2  0  0  0  0
 10 39  1  0  0  0  0
 11 12  1  0  0  0  0
 11 18  1  0  0  0  0
 12 13  1  0  0  0  0
 12 40  1  0  0  0  0
 13 14  2  0  0  0  0
 13 15  1  0  0  0  0
 15 16  1  0  0  0  0
 15 17  1  0  0  0  0
 15 41  1  0  0  0  0
 16 17  1  0  0  0  0
 16 42  1  0  0  0  0
 16 43  1  0  0  0  0
 17 44  1  0  0  0  0
 17 45  1  0  0  0  0
 18 19  2  0  0  0  0
 19 20  1  0  0  0  0
 19 46  1  0  0  0  0
 21 22  1  0  0  0  0
 21 23  1  0  0  0  0
 23 47  1  0  0  0  0
 24 25  1  0  0  0  0
 24 48  1  0  0  0  0
 25 26  1  0  0  0  0
 25 35  2  0  0  0  0
 26 27  2  0  0  0  0
 26 49  1  0  0  0  0
 27 28  1  0  0  0  0
 27 50  1  0  0  0  0
 28 29  1  0  0  0  0
 28 30  2  0  0  0  0
 30 31  1  0  0  0  0
 30 35  1  0  0  0  0
 31 32  1  0  0  0  0
 31 33  1  0  0  0  0
 31 34  1  0  0  0  0
 35 51  1  0  0  0  0
M  END
$$$$
