CHEMBL3930543
 OpenBabel04072215373D

 75 79  0  0  0  0  0  0  0  0999 V2000
    1.2407   -0.9068   -0.7198 C   0  0  0  0  0  0  0  0  0  0  0  0
    0.5689    0.2809   -0.0048 C   0  0  0  0  0  0  0  0  0  0  0  0
   -0.5428   -0.3162    0.8769 C   0  0  0  0  0  0  0  0  0  0  0  0
    1.5447    1.0858    0.7715 N   0  0  0  0  0  0  0  0  0  0  0  0
    0.9388    2.2522    1.4689 C   0  0  0  0  0  0  0  0  0  0  0  0
    0.4027    3.3730    0.5467 C   0  0  0  0  0  0  0  0  0  0  0  0
    1.3774    3.7848   -0.4805 N   0  0  0  0  0  0  0  0  0  0  0  0
    1.8495    5.0853   -0.5801 C   0  0  0  0  0  0  0  0  0  0  0  0
    1.9446    5.9334    0.5246 C   0  0  0  0  0  0  0  0  0  0  0  0
    2.5074    7.2224    0.4618 C   0  0  0  0  0  0  0  0  0  0  0  0
    2.6992    8.0052    1.6339 N   0  0  0  0  0  0  0  0  0  0  0  0
    2.8128    7.4506    2.9008 C   0  0  0  0  0  0  0  0  0  0  0  0
    2.8417    6.2441    3.1344 O   0  0  0  0  0  0  0  0  0  0  0  0
    2.8768    8.4016    3.9124 N   0  0  0  0  0  0  0  0  0  0  0  0
    3.0169    7.9508    5.2519 C   0  0  0  0  0  0  0  0  0  0  0  0
    3.9809    6.9867    5.5777 C   0  0  0  0  0  0  0  0  0  0  0  0
    4.0460    6.4412    6.8626 C   0  0  0  0  0  0  0  0  0  0  0  0
    3.1922    6.9067    7.8654 C   0  0  0  0  0  0  0  0  0  0  0  0
    3.2228    6.4359    9.1675 O   0  0  0  0  0  0  0  0  0  0  0  0
    4.4403    6.1260    9.7466 C   0  0  0  0  0  0  0  0  0  0  0  0
    5.6297    6.7640    9.4049 C   0  0  0  0  0  0  0  0  0  0  0  0
    6.7903    6.3177    9.9891 C   0  0  0  0  0  0  0  0  0  0  0  0
    6.8213    5.3532   10.9224 N   0  0  0  0  0  0  0  0  0  0  0  0
    5.6701    4.7852   11.3226 C   0  0  0  0  0  0  0  0  0  0  0  0
    5.7101    3.8160   12.3416 N   0  0  0  0  0  0  0  0  0  0  0  0
    6.8782    3.4002   12.9477 C   0  0  0  0  0  0  0  0  0  0  0  0
    8.0178    3.7572   12.6800 O   0  0  0  0  0  0  0  0  0  0  0  0
    6.7552    2.4304   14.0780 C   0  0  0  0  0  0  0  0  0  0  0  0
    5.5265    1.7328   14.5821 C   0  0  0  0  0  0  0  0  0  0  0  0
    6.0859    2.8939   15.3515 C   0  0  0  0  0  0  0  0  0  0  0  0
    4.4475    5.1496   10.7544 C   0  0  0  0  0  0  0  0  0  0  0  0
    2.2274    7.8614    7.5296 C   0  0  0  0  0  0  0  0  0  0  0  0
    1.3359    8.2648    8.4474 F   0  0  0  0  0  0  0  0  0  0  0  0
    2.1456    8.4029    6.2398 C   0  0  0  0  0  0  0  0  0  0  0  0
    2.9108    7.7158   -0.7804 C   0  0  0  0  0  0  0  0  0  0  0  0
    2.8103    6.9038   -1.9253 C   0  0  0  0  0  0  0  0  0  0  0  0
    3.3036    7.3479   -3.2793 C   0  0  0  0  0  0  0  0  0  0  0  0
    3.8660    8.5887   -3.2779 F   0  0  0  0  0  0  0  0  0  0  0  0
    4.2545    6.5105   -3.7813 F   0  0  0  0  0  0  0  0  0  0  0  0
    2.3138    7.3865   -4.2140 F   0  0  0  0  0  0  0  0  0  0  0  0
    2.2724    5.6068   -1.8040 C   0  0  0  0  0  0  0  0  0  0  0  0
    2.1873    2.7199   -1.0997 C   0  0  0  0  0  0  0  0  0  0  0  0
    2.6324    1.6554   -0.0658 C   0  0  0  0  0  0  0  0  0  0  0  0
    0.4923   -1.5127   -1.2439 H   0  0  0  0  0  0  0  0  0  0  0  0
    1.7559   -1.5608   -0.0068 H   0  0  0  0  0  0  0  0  0  0  0  0
    1.9613   -0.5864   -1.4772 H   0  0  0  0  0  0  0  0  0  0  0  0
    0.0847    0.8984   -0.7701 H   0  0  0  0  0  0  0  0  0  0  0  0
   -0.1363   -1.0193    1.6126 H   0  0  0  0  0  0  0  0  0  0  0  0
   -1.2608   -0.8653    0.2557 H   0  0  0  0  0  0  0  0  0  0  0  0
   -1.1195    0.4449    1.4080 H   0  0  0  0  0  0  0  0  0  0  0  0
    1.7081    2.6838    2.1254 H   0  0  0  0  0  0  0  0  0  0  0  0
    0.1507    1.9326    2.1576 H   0  0  0  0  0  0  0  0  0  0  0  0
    0.0635    4.2073    1.1721 H   0  0  0  0  0  0  0  0  0  0  0  0
   -0.4979    3.0224    0.0306 H   0  0  0  0  0  0  0  0  0  0  0  0
    1.6113    5.5542    1.4817 H   0  0  0  0  0  0  0  0  0  0  0  0
    3.0702    8.9371    1.5179 H   0  0  0  0  0  0  0  0  0  0  0  0
    2.2926    9.2116    3.7577 H   0  0  0  0  0  0  0  0  0  0  0  0
    4.6769    6.6242    4.8226 H   0  0  0  0  0  0  0  0  0  0  0  0
    4.7723    5.6563    7.0556 H   0  0  0  0  0  0  0  0  0  0  0  0
    5.6780    7.5662    8.6771 H   0  0  0  0  0  0  0  0  0  0  0  0
    7.7587    6.7242    9.7159 H   0  0  0  0  0  0  0  0  0  0  0  0
    4.8313    3.4341   12.6569 H   0  0  0  0  0  0  0  0  0  0  0  0
    7.6780    1.8662   14.2022 H   0  0  0  0  0  0  0  0  0  0  0  0
    5.6608    0.7453   15.0133 H   0  0  0  0  0  0  0  0  0  0  0  0
    4.5788    1.8504   14.0746 H   0  0  0  0  0  0  0  0  0  0  0  0
    6.6215    2.7095   16.2759 H   0  0  0  0  0  0  0  0  0  0  0  0
    5.5363    3.8284   15.3409 H   0  0  0  0  0  0  0  0  0  0  0  0
    3.5168    4.6917   11.0685 H   0  0  0  0  0  0  0  0  0  0  0  0
    1.3526    9.1093    6.0177 H   0  0  0  0  0  0  0  0  0  0  0  0
    3.3463    8.7082   -0.8654 H   0  0  0  0  0  0  0  0  0  0  0  0
    2.1834    4.9938   -2.7015 H   0  0  0  0  0  0  0  0  0  0  0  0
    3.1015    3.1160   -1.5594 H   0  0  0  0  0  0  0  0  0  0  0  0
    1.6039    2.2574   -1.9007 H   0  0  0  0  0  0  0  0  0  0  0  0
    3.3654    2.1191    0.6102 H   0  0  0  0  0  0  0  0  0  0  0  0
    3.1985    0.8666   -0.5700 H   0  0  0  0  0  0  0  0  0  0  0  0
  1  2  1  0  0  0  0
  1 44  1  0  0  0  0
  1 45  1  0  0  0  0
  1 46  1  0  0  0  0
  2  3  1  0  0  0  0
  2  4  1  0  0  0  0
  2 47  1  0  0  0  0
  3 48  1  0  0  0  0
  3 49  1  0  0  0  0
  3 50  1  0  0  0  0
  4  5  1  0  0  0  0
  4 43  1  0  0  0  0
  5  6  1  0  0  0  0
  5 51  1  0  0  0  0
  5 52  1  0  0  0  0
  6  7  1  0  0  0  0
  6 53  1  0  0  0  0
  6 54  1  0  0  0  0
  7  8  1  0  0  0  0
  7 42  1  0  0  0  0
  8  9  1  0  0  0  0
  8 41  2  0  0  0  0
  9 10  2  0  0  0  0
  9 55  1  0  0  0  0
 10 11  1  0  0  0  0
 10 35  1  0  0  0  0
 11 12  1  0  0  0  0
 11 56  1  0  0  0  0
 12 13  2  0  0  0  0
 12 14  1  0  0  0  0
 14 15  1  0  0  0  0
 14 57  1  0  0  0  0
 15 16  1  0  0  0  0
 15 34  2  0  0  0  0
 16 17  2  0  0  0  0
 16 58  1  0  0  0  0
 17 18  1  0  0  0  0
 17 59  1  0  0  0  0
 18 19  1  0  0  0  0
 18 32  2  0  0  0  0
 19 20  1  0  0  0  0
 20 21  1  0  0  0  0
 20 31  2  0  0  0  0
 21 22  2  0  0  0  0
 21 60  1  0  0  0  0
 22 23  1  0  0  0  0
 22 61  1  0  0  0  0
 23 24  2  0  0  0  0
 24 25  1  0  0  0  0
 24 31  1  0  0  0  0
 25 26  1  0  0  0  0
 25 62  1  0  0  0  0
 26 27  2  0  0  0  0
 26 28  1  0  0  0  0
 28 29  1  0  0  0  0
 28 30  1  0  0  0  0
 28 63  1  0  0  0  0
 29 30  1  0  0  0  0
 29 64  1  0  0  0  0
 29 65  1  0  0  0  0
 30 66  1  0  0  0  0
 30 67  1  0  0  0  0
 31 68  1  0  0  0  0
 32 33  1  0  0  0  0
 32 34  1  0  0  0  0
 34 69  1  0  0  0  0
 35 36  2  0  0  0  0
 35 70  1  0  0  0  0
 36 37  1  0  0  0  0
 36 41  1  0  0  0  0
 37 38  1  0  0  0  0
 37 39  1  0  0  0  0
 37 40  1  0  0  0  0
 41 71  1  0  0  0  0
 42 43  1  0  0  0  0
 42 72  1  0  0  0  0
 42 73  1  0  0  0  0
 43 74  1  0  0  0  0
 43 75  1  0  0  0  0
M  END
$$$$
