CHEMBL3354192
 OpenBabel04072215363D

 52 55  0  0  0  0  0  0  0  0999 V2000
    1.8489    0.5795   -2.3632 C   0  0  0  0  0  0  0  0  0  0  0  0
    2.1297    1.0724   -1.0604 O   0  0  0  0  0  0  0  0  0  0  0  0
    2.3297    2.4921   -0.9936 C   0  0  0  0  0  0  0  0  0  0  0  0
    3.5787    2.9513   -1.7548 C   0  0  0  0  0  0  0  0  0  0  0  0
    4.8353    2.3379   -1.1410 C   0  0  0  0  0  0  0  0  0  0  0  0
    4.9026    2.6770    0.2747 N   0  0  0  0  0  0  0  0  0  0  0  0
    5.7607    3.6731    0.6847 C   0  0  0  0  0  0  0  0  0  0  0  0
    5.5368    4.3151    1.8376 N   0  0  0  0  0  0  0  0  0  0  0  0
    6.4452    5.2280    2.2226 C   0  0  0  0  0  0  0  0  0  0  0  0
    7.5814    5.5206    1.5107 C   0  0  0  0  0  0  0  0  0  0  0  0
    7.7613    4.8123    0.3461 C   0  0  0  0  0  0  0  0  0  0  0  0
    8.9740    4.9528   -0.3497 N   0  0  0  0  0  0  0  0  0  0  0  0
    9.5406    4.1081   -1.3110 C   0  0  0  0  0  0  0  0  0  0  0  0
    9.2080    2.7583   -1.3810 C   0  0  0  0  0  0  0  0  0  0  0  0
    9.8311    1.9718   -2.3543 C   0  0  0  0  0  0  0  0  0  0  0  0
    9.7627    0.6178   -2.7866 C   0  0  0  0  0  0  0  0  0  0  0  0
    8.8765   -0.4906   -2.2807 C   0  0  0  0  0  0  0  0  0  0  0  0
    9.1177   -0.7987   -0.8010 C   0  0  0  0  0  0  0  0  0  0  0  0
    7.3956   -0.1933   -2.5271 C   0  0  0  0  0  0  0  0  0  0  0  0
   10.6164    0.3862   -3.7960 N   0  0  0  0  0  0  0  0  0  0  0  0
   11.2139    1.5743   -3.9968 N   0  0  0  0  0  0  0  0  0  0  0  0
   10.7753    2.5691   -3.1713 C   0  0  0  0  0  0  0  0  0  0  0  0
   11.1090    3.9079   -3.0547 C   0  0  0  0  0  0  0  0  0  0  0  0
   10.4762    4.6624   -2.1187 N   0  0  0  0  0  0  0  0  0  0  0  0
    6.8441    3.9207   -0.0657 N   0  0  0  0  0  0  0  0  0  0  0  0
    3.7528    2.3034    1.0882 C   0  0  0  0  0  0  0  0  0  0  0  0
    2.4667    2.8729    0.4873 C   0  0  0  0  0  0  0  0  0  0  0  0
    1.5652   -0.4729   -2.2750 H   0  0  0  0  0  0  0  0  0  0  0  0
    2.7388    0.6291   -2.9964 H   0  0  0  0  0  0  0  0  0  0  0  0
    1.0221    1.1288   -2.8221 H   0  0  0  0  0  0  0  0  0  0  0  0
    1.4392    2.9855   -1.4014 H   0  0  0  0  0  0  0  0  0  0  0  0
    3.6440    4.0461   -1.7148 H   0  0  0  0  0  0  0  0  0  0  0  0
    3.5216    2.6756   -2.8124 H   0  0  0  0  0  0  0  0  0  0  0  0
    5.7084    2.6663   -1.7154 H   0  0  0  0  0  0  0  0  0  0  0  0
    4.8025    1.2462   -1.2420 H   0  0  0  0  0  0  0  0  0  0  0  0
    6.2347    5.7158    3.1694 H   0  0  0  0  0  0  0  0  0  0  0  0
    8.3097    6.2295    1.8769 H   0  0  0  0  0  0  0  0  0  0  0  0
    9.2865    5.9003   -0.4968 H   0  0  0  0  0  0  0  0  0  0  0  0
    8.4888    2.3168   -0.7055 H   0  0  0  0  0  0  0  0  0  0  0  0
    9.1159   -1.4038   -2.8420 H   0  0  0  0  0  0  0  0  0  0  0  0
    8.9146    0.0653   -0.1603 H   0  0  0  0  0  0  0  0  0  0  0  0
   10.1564   -1.1006   -0.6306 H   0  0  0  0  0  0  0  0  0  0  0  0
    8.4697   -1.6154   -0.4647 H   0  0  0  0  0  0  0  0  0  0  0  0
    7.0662    0.6835   -1.9640 H   0  0  0  0  0  0  0  0  0  0  0  0
    6.7714   -1.0392   -2.2191 H   0  0  0  0  0  0  0  0  0  0  0  0
    7.2011   -0.0004   -3.5878 H   0  0  0  0  0  0  0  0  0  0  0  0
   11.9152    1.6359   -4.7266 H   0  0  0  0  0  0  0  0  0  0  0  0
   11.8503    4.4035   -3.6691 H   0  0  0  0  0  0  0  0  0  0  0  0
    3.8461    2.6136    2.1352 H   0  0  0  0  0  0  0  0  0  0  0  0
    3.6900    1.2078    1.1145 H   0  0  0  0  0  0  0  0  0  0  0  0
    2.4671    3.9655    0.5853 H   0  0  0  0  0  0  0  0  0  0  0  0
    1.6119    2.4875    1.0552 H   0  0  0  0  0  0  0  0  0  0  0  0
  1  2  1  0  0  0  0
  1 28  1  0  0  0  0
  1 29  1  0  0  0  0
  1 30  1  0  0  0  0
  2  3  1  0  0  0  0
  3  4  1  0  0  0  0
  3 27  1  0  0  0  0
  3 31  1  0  0  0  0
  4  5  1  0  0  0  0
  4 32  1  0  0  0  0
  4 33  1  0  0  0  0
  5  6  1  0  0  0  0
  5 34  1  0  0  0  0
  5 35  1  0  0  0  0
  6  7  1  0  0  0  0
  6 26  1  0  0  0  0
  7  8  1  0  0  0  0
  7 25  2  0  0  0  0
  8  9  2  0  0  0  0
  9 10  1  0  0  0  0
  9 36  1  0  0  0  0
 10 11  2  0  0  0  0
 10 37  1  0  0  0  0
 11 12  1  0  0  0  0
 11 25  1  0  0  0  0
 12 13  1  0  0  0  0
 12 38  1  0  0  0  0
 13 14  1  0  0  0  0
 13 24  2  0  0  0  0
 14 15  2  0  0  0  0
 14 39  1  0  0  0  0
 15 16  1  0  0  0  0
 15 22  1  0  0  0  0
 16 17  1  0  0  0  0
 16 20  2  0  0  0  0
 17 18  1  0  0  0  0
 17 19  1  0  0  0  0
 17 40  1  0  0  0  0
 18 41  1  0  0  0  0
 18 42  1  0  0  0  0
 18 43  1  0  0  0  0
 19 44  1  0  0  0  0
 19 45  1  0  0  0  0
 19 46  1  0  0  0  0
 20 21  1  0  0  0  0
 21 22  1  0  0  0  0
 21 47  1  0  0  0  0
 22 23  2  0  0  0  0
 23 24  1  0  0  0  0
 23 48  1  0  0  0  0
 26 27  1  0  0  0  0
 26 49  1  0  0  0  0
 26 50  1  0  0  0  0
 27 51  1  0  0  0  0
 27 52  1  0  0  0  0
M  END
$$$$
