CHEMBL239590
 OpenBabel04072215363D

 83 87  0  0  0  0  0  0  0  0999 V2000
    3.7111   -6.1378    2.5042 C   0  0  0  0  0  0  0  0  0  0  0  0
    2.9141   -5.7734    3.7813 C   0  0  0  0  0  0  0  0  0  0  0  0
    3.5977   -6.5346    4.9273 C   0  0  0  0  0  0  0  0  0  0  0  0
    2.7873   -4.2867    3.9564 N   0  0  0  0  0  0  0  0  0  0  0  0
    2.2503   -3.6525    2.7040 C   0  0  0  0  0  0  0  0  0  0  0  0
    0.8033   -4.0472    2.3604 C   0  0  0  0  0  0  0  0  0  0  0  0
    0.3177   -3.3818    1.1913 O   0  0  0  0  0  0  0  0  0  0  0  0
   -0.9839   -3.6989    0.8699 C   0  0  0  0  0  0  0  0  0  0  0  0
   -1.7609   -4.6680    1.5144 C   0  0  0  0  0  0  0  0  0  0  0  0
   -3.0760   -4.9169    1.1020 C   0  0  0  0  0  0  0  0  0  0  0  0
   -3.6395   -4.2051    0.0374 C   0  0  0  0  0  0  0  0  0  0  0  0
   -5.0052   -4.5111   -0.3911 C   0  0  0  0  0  0  0  0  0  0  0  0
   -5.8483   -4.7756    0.6435 O   0  0  0  0  0  0  0  0  0  0  0  0
   -7.0889   -4.9725    0.1415 C   0  0  0  0  0  0  0  0  0  0  0  0
   -8.1431   -5.1941    0.9460 N   0  0  0  0  0  0  0  0  0  0  0  0
   -9.2985   -5.3311    0.2772 C   0  0  0  0  0  0  0  0  0  0  0  0
   -9.4338   -5.2881   -1.1001 C   0  0  0  0  0  0  0  0  0  0  0  0
   -8.3083   -5.0980   -1.9214 C   0  0  0  0  0  0  0  0  0  0  0  0
   -8.4626   -5.1805   -3.3225 N   0  0  0  0  0  0  0  0  0  0  0  0
   -9.4010   -4.2093   -3.9126 C   0  0  0  0  0  0  0  0  0  0  0  0
   -9.5807   -4.4871   -5.4238 C   0  0  0  0  0  0  0  0  0  0  0  0
  -10.7558   -3.8277   -6.0293 N   0  0  0  0  0  0  0  0  0  0  0  0
  -10.9440   -4.2689   -7.4282 C   0  0  0  0  0  0  0  0  0  0  0  0
   -9.9506   -3.6473   -8.4367 C   0  0  0  0  0  0  0  0  0  0  0  0
   -9.9123   -2.1758   -8.3952 N   0  0  0  0  0  0  0  0  0  0  0  0
   -9.7340   -1.7073   -7.0113 C   0  0  0  0  0  0  0  0  0  0  0  0
  -10.7048   -2.3539   -5.9972 C   0  0  0  0  0  0  0  0  0  0  0  0
   -7.0686   -4.8946   -1.2533 C   0  0  0  0  0  0  0  0  0  0  0  0
   -5.6952   -4.5941   -1.5982 C   0  0  0  0  0  0  0  0  0  0  0  0
   -5.0792   -4.3566   -2.9023 C   0  0  0  0  0  0  0  0  0  0  0  0
   -5.7384   -3.5695   -3.8539 C   0  0  0  0  0  0  0  0  0  0  0  0
   -5.2012   -3.3790   -5.1278 C   0  0  0  0  0  0  0  0  0  0  0  0
   -3.9477   -3.8981   -5.4358 C   0  0  0  0  0  0  0  0  0  0  0  0
   -3.2454   -4.6264   -4.4792 C   0  0  0  0  0  0  0  0  0  0  0  0
   -3.8212   -4.8822   -3.2314 C   0  0  0  0  0  0  0  0  0  0  0  0
   -2.8657   -3.2215   -0.5846 C   0  0  0  0  0  0  0  0  0  0  0  0
   -1.5443   -2.9767   -0.1834 C   0  0  0  0  0  0  0  0  0  0  0  0
    2.0200   -3.8212    5.1612 C   0  0  0  0  0  0  0  0  0  0  0  0
    2.6000   -4.2228    6.5278 C   0  0  0  0  0  0  0  0  0  0  0  0
    1.8969   -2.2787    5.2207 C   0  0  0  0  0  0  0  0  0  0  0  0
    3.9999   -7.1952    2.4925 H   0  0  0  0  0  0  0  0  0  0  0  0
    4.6320   -5.5483    2.4294 H   0  0  0  0  0  0  0  0  0  0  0  0
    3.1189   -5.9836    1.5966 H   0  0  0  0  0  0  0  0  0  0  0  0
    1.9132   -6.2105    3.6778 H   0  0  0  0  0  0  0  0  0  0  0  0
    4.4718   -5.9995    5.3083 H   0  0  0  0  0  0  0  0  0  0  0  0
    3.9386   -7.5265    4.6081 H   0  0  0  0  0  0  0  0  0  0  0  0
    2.8979   -6.7401    5.7384 H   0  0  0  0  0  0  0  0  0  0  0  0
    2.8983   -3.8719    1.8476 H   0  0  0  0  0  0  0  0  0  0  0  0
    2.3377   -2.5613    2.7541 H   0  0  0  0  0  0  0  0  0  0  0  0
    0.1497   -3.7829    3.1984 H   0  0  0  0  0  0  0  0  0  0  0  0
    0.7739   -5.1265    2.1820 H   0  0  0  0  0  0  0  0  0  0  0  0
   -1.3900   -5.2517    2.3464 H   0  0  0  0  0  0  0  0  0  0  0  0
   -3.6508   -5.6839    1.6267 H   0  0  0  0  0  0  0  0  0  0  0  0
  -10.1703   -5.5015    0.9045 H   0  0  0  0  0  0  0  0  0  0  0  0
  -10.4152   -5.4494   -1.5341 H   0  0  0  0  0  0  0  0  0  0  0  0
   -7.5606   -5.1766   -3.7935 H   0  0  0  0  0  0  0  0  0  0  0  0
   -9.0120   -3.1943   -3.7681 H   0  0  0  0  0  0  0  0  0  0  0  0
  -10.3811   -4.2642   -3.4272 H   0  0  0  0  0  0  0  0  0  0  0  0
   -9.7073   -5.5723   -5.5372 H   0  0  0  0  0  0  0  0  0  0  0  0
   -8.6521   -4.2293   -5.9479 H   0  0  0  0  0  0  0  0  0  0  0  0
  -11.9642   -3.9972   -7.7308 H   0  0  0  0  0  0  0  0  0  0  0  0
  -10.9025   -5.3630   -7.4944 H   0  0  0  0  0  0  0  0  0  0  0  0
  -10.2350   -3.9551   -9.4494 H   0  0  0  0  0  0  0  0  0  0  0  0
   -8.9413   -4.0400   -8.2673 H   0  0  0  0  0  0  0  0  0  0  0  0
  -10.8107   -1.8297   -8.7336 H   0  0  0  0  0  0  0  0  0  0  0  0
   -9.8856   -0.6215   -6.9980 H   0  0  0  0  0  0  0  0  0  0  0  0
   -8.6973   -1.8802   -6.7007 H   0  0  0  0  0  0  0  0  0  0  0  0
  -11.7181   -1.9879   -6.2133 H   0  0  0  0  0  0  0  0  0  0  0  0
  -10.4837   -1.9869   -4.9892 H   0  0  0  0  0  0  0  0  0  0  0  0
   -6.6864   -3.0982   -3.6127 H   0  0  0  0  0  0  0  0  0  0  0  0
   -5.7559   -2.8148   -5.8729 H   0  0  0  0  0  0  0  0  0  0  0  0
   -3.5134   -3.7264   -6.4173 H   0  0  0  0  0  0  0  0  0  0  0  0
   -2.2494   -5.0005   -4.7031 H   0  0  0  0  0  0  0  0  0  0  0  0
   -3.2579   -5.4791   -2.5166 H   0  0  0  0  0  0  0  0  0  0  0  0
   -3.2785   -2.6294   -1.3986 H   0  0  0  0  0  0  0  0  0  0  0  0
   -0.9586   -2.2175   -0.6953 H   0  0  0  0  0  0  0  0  0  0  0  0
    1.0035   -4.2310    5.1202 H   0  0  0  0  0  0  0  0  0  0  0  0
    3.6904   -4.1397    6.5477 H   0  0  0  0  0  0  0  0  0  0  0  0
    2.2962   -5.2302    6.8131 H   0  0  0  0  0  0  0  0  0  0  0  0
    2.2133   -3.5864    7.3329 H   0  0  0  0  0  0  0  0  0  0  0  0
    2.8853   -1.8056    5.2019 H   0  0  0  0  0  0  0  0  0  0  0  0
    1.3945   -1.9601    6.1418 H   0  0  0  0  0  0  0  0  0  0  0  0
    1.2932   -1.8685    4.4068 H   0  0  0  0  0  0  0  0  0  0  0  0
  1  2  1  0  0  0  0
  1 41  1  0  0  0  0
  1 42  1  0  0  0  0
  1 43  1  0  0  0  0
  2  3  1  0  0  0  0
  2  4  1  0  0  0  0
  2 44  1  0  0  0  0
  3 45  1  0  0  0  0
  3 46  1  0  0  0  0
  3 47  1  0  0  0  0
  4  5  1  0  0  0  0
  4 38  1  0  0  0  0
  5  6  1  0  0  0  0
  5 48  1  0  0  0  0
  5 49  1  0  0  0  0
  6  7  1  0  0  0  0
  6 50  1  0  0  0  0
  6 51  1  0  0  0  0
  7  8  1  0  0  0  0
  8  9  1  0  0  0  0
  8 37  2  0  0  0  0
  9 10  2  0  0  0  0
  9 52  1  0  0  0  0
 10 11  1  0  0  0  0
 10 53  1  0  0  0  0
 11 12  1  0  0  0  0
 11 36  2  0  0  0  0
 12 13  1  0  0  0  0
 12 29  2  0  0  0  0
 13 14  1  0  0  0  0
 14 15  1  0  0  0  0
 14 28  2  0  0  0  0
 15 16  2  0  0  0  0
 16 17  1  0  0  0  0
 16 54  1  0  0  0  0
 17 18  2  0  0  0  0
 17 55  1  0  0  0  0
 18 19  1  0  0  0  0
 18 28  1  0  0  0  0
 19 20  1  0  0  0  0
 19 56  1  0  0  0  0
 20 21  1  0  0  0  0
 20 57  1  0  0  0  0
 20 58  1  0  0  0  0
 21 22  1  0  0  0  0
 21 59  1  0  0  0  0
 21 60  1  0  0  0  0
 22 23  1  0  0  0  0
 22 27  1  0  0  0  0
 23 24  1  0  0  0  0
 23 61  1  0  0  0  0
 23 62  1  0  0  0  0
 24 25  1  0  0  0  0
 24 63  1  0  0  0  0
 24 64  1  0  0  0  0
 25 26  1  0  0  0  0
 25 65  1  0  0  0  0
 26 27  1  0  0  0  0
 26 66  1  0  0  0  0
 26 67  1  0  0  0  0
 27 68  1  0  0  0  0
 27 69  1  0  0  0  0
 28 29  1  0  0  0  0
 29 30  1  0  0  0  0
 30 31  1  0  0  0  0
 30 35  2  0  0  0  0
 31 32  2  0  0  0  0
 31 70  1  0  0  0  0
 32 33  1  0  0  0  0
 32 71  1  0  0  0  0
 33 34  2  0  0  0  0
 33 72  1  0  0  0  0
 34 35  1  0  0  0  0
 34 73  1  0  0  0  0
 35 74  1  0  0  0  0
 36 37  1  0  0  0  0
 36 75  1  0  0  0  0
 37 76  1  0  0  0  0
 38 39  1  0  0  0  0
 38 40  1  0  0  0  0
 38 77  1  0  0  0  0
 39 78  1  0  0  0  0
 39 79  1  0  0  0  0
 39 80  1  0  0  0  0
 40 81  1  0  0  0  0
 40 82  1  0  0  0  0
 40 83  1  0  0  0  0
M  END
$$$$
