CHEMBL3939655
 OpenBabel04072215373D

 55 58  0  0  0  0  0  0  0  0999 V2000
    0.1200   -4.9675    1.8501 C   0  0  0  0  0  0  0  0  0  0  0  0
    1.1072   -4.5295    2.9225 C   0  0  0  0  0  0  0  0  0  0  0  0
    0.3944   -3.9878    3.9526 F   0  0  0  0  0  0  0  0  0  0  0  0
    1.6486   -5.6768    3.4405 F   0  0  0  0  0  0  0  0  0  0  0  0
    2.1650   -3.5826    2.4179 C   0  0  0  0  0  0  0  0  0  0  0  0
    3.5310   -3.9339    2.4786 C   0  0  0  0  0  0  0  0  0  0  0  0
    4.5393   -3.0714    2.0250 C   0  0  0  0  0  0  0  0  0  0  0  0
    5.9068   -3.4364    2.0500 N   0  0  0  0  0  0  0  0  0  0  0  0
    6.3504   -4.7495    2.0371 C   0  0  0  0  0  0  0  0  0  0  0  0
    5.6157   -5.7164    1.8682 O   0  0  0  0  0  0  0  0  0  0  0  0
    7.7191   -4.8524    2.2581 N   0  0  0  0  0  0  0  0  0  0  0  0
    8.3271   -6.1354    2.2703 C   0  0  0  0  0  0  0  0  0  0  0  0
    8.0052   -7.0915    1.3003 C   0  0  0  0  0  0  0  0  0  0  0  0
    8.4821   -8.4018    1.3977 C   0  0  0  0  0  0  0  0  0  0  0  0
    9.3424   -8.7592    2.4361 C   0  0  0  0  0  0  0  0  0  0  0  0
    9.8143  -10.0424    2.6386 O   0  0  0  0  0  0  0  0  0  0  0  0
   10.1956  -10.8270    1.5653 C   0  0  0  0  0  0  0  0  0  0  0  0
   10.6473  -10.3133    0.3556 C   0  0  0  0  0  0  0  0  0  0  0  0
   10.9863  -11.2073   -0.6349 C   0  0  0  0  0  0  0  0  0  0  0  0
   10.9566  -12.5420   -0.4734 N   0  0  0  0  0  0  0  0  0  0  0  0
   10.5849  -13.0501    0.7119 C   0  0  0  0  0  0  0  0  0  0  0  0
   10.6108  -14.4495    0.8999 N   0  0  0  0  0  0  0  0  0  0  0  0
   11.0123  -15.3436   -0.0787 C   0  0  0  0  0  0  0  0  0  0  0  0
   11.3862  -15.0774   -1.2124 O   0  0  0  0  0  0  0  0  0  0  0  0
   11.0021  -16.7985    0.2716 C   0  0  0  0  0  0  0  0  0  0  0  0
   10.3804  -17.4468    1.4782 C   0  0  0  0  0  0  0  0  0  0  0  0
   11.8745  -17.3143    1.3921 C   0  0  0  0  0  0  0  0  0  0  0  0
   10.1882  -12.2185    1.7599 C   0  0  0  0  0  0  0  0  0  0  0  0
    9.6846   -7.7982    3.3955 C   0  0  0  0  0  0  0  0  0  0  0  0
    9.1999   -6.4824    3.3024 C   0  0  0  0  0  0  0  0  0  0  0  0
    4.1809   -1.8092    1.5491 C   0  0  0  0  0  0  0  0  0  0  0  0
    2.8339   -1.4383    1.4895 C   0  0  0  0  0  0  0  0  0  0  0  0
    1.8412   -2.3257    1.9171 C   0  0  0  0  0  0  0  0  0  0  0  0
    0.5573   -1.9442    1.8345 F   0  0  0  0  0  0  0  0  0  0  0  0
   -0.5382   -5.7456    2.2528 H   0  0  0  0  0  0  0  0  0  0  0  0
    0.6302   -5.3899    0.9782 H   0  0  0  0  0  0  0  0  0  0  0  0
   -0.5190   -4.1428    1.5225 H   0  0  0  0  0  0  0  0  0  0  0  0
    3.7785   -4.9013    2.9049 H   0  0  0  0  0  0  0  0  0  0  0  0
    6.5797   -2.7411    1.7591 H   0  0  0  0  0  0  0  0  0  0  0  0
    8.0909   -4.1675    2.9015 H   0  0  0  0  0  0  0  0  0  0  0  0
    7.3446   -6.8362    0.4741 H   0  0  0  0  0  0  0  0  0  0  0  0
    8.1508   -9.1287    0.6620 H   0  0  0  0  0  0  0  0  0  0  0  0
   10.7318   -9.2513    0.1635 H   0  0  0  0  0  0  0  0  0  0  0  0
   11.3068  -10.8720   -1.6163 H   0  0  0  0  0  0  0  0  0  0  0  0
   10.3484  -14.8058    1.8032 H   0  0  0  0  0  0  0  0  0  0  0  0
   10.9869  -17.4118   -0.6296 H   0  0  0  0  0  0  0  0  0  0  0  0
    9.9594  -18.4396    1.3387 H   0  0  0  0  0  0  0  0  0  0  0  0
    9.8466  -16.8557    2.2074 H   0  0  0  0  0  0  0  0  0  0  0  0
   12.4661  -18.2004    1.1848 H   0  0  0  0  0  0  0  0  0  0  0  0
   12.3658  -16.6033    2.0450 H   0  0  0  0  0  0  0  0  0  0  0  0
    9.8822  -12.6240    2.7173 H   0  0  0  0  0  0  0  0  0  0  0  0
   10.3067   -8.0801    4.2415 H   0  0  0  0  0  0  0  0  0  0  0  0
    9.4494   -5.7719    4.0856 H   0  0  0  0  0  0  0  0  0  0  0  0
    4.9294   -1.1037    1.2053 H   0  0  0  0  0  0  0  0  0  0  0  0
    2.5472   -0.4624    1.1075 H   0  0  0  0  0  0  0  0  0  0  0  0
  1  2  1  0  0  0  0
  1 35  1  0  0  0  0
  1 36  1  0  0  0  0
  1 37  1  0  0  0  0
  2  3  1  0  0  0  0
  2  4  1  0  0  0  0
  2  5  1  0  0  0  0
  5  6  1  0  0  0  0
  5 33  2  0  0  0  0
  6  7  2  0  0  0  0
  6 38  1  0  0  0  0
  7  8  1  0  0  0  0
  7 31  1  0  0  0  0
  8  9  1  0  0  0  0
  8 39  1  0  0  0  0
  9 10  2  0  0  0  0
  9 11  1  0  0  0  0
 11 12  1  0  0  0  0
 11 40  1  0  0  0  0
 12 13  1  0  0  0  0
 12 30  2  0  0  0  0
 13 14  2  0  0  0  0
 13 41  1  0  0  0  0
 14 15  1  0  0  0  0
 14 42  1  0  0  0  0
 15 16  1  0  0  0  0
 15 29  2  0  0  0  0
 16 17  1  0  0  0  0
 17 18  1  0  0  0  0
 17 28  2  0  0  0  0
 18 19  2  0  0  0  0
 18 43  1  0  0  0  0
 19 20  1  0  0  0  0
 19 44  1  0  0  0  0
 20 21  2  0  0  0  0
 21 22  1  0  0  0  0
 21 28  1  0  0  0  0
 22 23  1  0  0  0  0
 22 45  1  0  0  0  0
 23 24  2  0  0  0  0
 23 25  1  0  0  0  0
 25 26  1  0  0  0  0
 25 27  1  0  0  0  0
 25 46  1  0  0  0  0
 26 27  1  0  0  0  0
 26 47  1  0  0  0  0
 26 48  1  0  0  0  0
 27 49  1  0  0  0  0
 27 50  1  0  0  0  0
 28 51  1  0  0  0  0
 29 30  1  0  0  0  0
 29 52  1  0  0  0  0
 30 53  1  0  0  0  0
 31 32  2  0  0  0  0
 31 54  1  0  0  0  0
 32 33  1  0  0  0  0
 32 55  1  0  0  0  0
 33 34  1  0  0  0  0
M  END
$$$$
