CHEMBL3656076
 OpenBabel04072215373D

 66 69  0  0  0  0  0  0  0  0999 V2000
    2.8524    7.1862    2.5775 C   0  0  0  0  0  0  0  0  0  0  0  0
    1.7313    6.2095    2.3653 C   0  0  0  0  0  0  0  0  0  0  0  0
    2.0197    4.9080    1.9428 C   0  0  0  0  0  0  0  0  0  0  0  0
    0.9916    3.9899    1.7748 C   0  0  0  0  0  0  0  0  0  0  0  0
   -0.3282    4.3674    2.0079 C   0  0  0  0  0  0  0  0  0  0  0  0
   -1.2347    3.3837    1.9595 F   0  0  0  0  0  0  0  0  0  0  0  0
   -0.6638    5.6820    2.3692 C   0  0  0  0  0  0  0  0  0  0  0  0
   -1.9946    6.1598    2.5359 N   0  0  0  0  0  0  0  0  0  0  0  0
   -3.1234    5.5646    2.0004 C   0  0  0  0  0  0  0  0  0  0  0  0
   -3.1259    4.5687    1.2814 O   0  0  0  0  0  0  0  0  0  0  0  0
   -4.2940    6.2626    2.2988 N   0  0  0  0  0  0  0  0  0  0  0  0
   -5.5299    5.7028    1.8808 C   0  0  0  0  0  0  0  0  0  0  0  0
   -5.8428    4.3759    2.1960 C   0  0  0  0  0  0  0  0  0  0  0  0
   -6.9952    3.7780    1.6857 C   0  0  0  0  0  0  0  0  0  0  0  0
   -7.8787    4.5203    0.9007 C   0  0  0  0  0  0  0  0  0  0  0  0
   -9.0388    4.0117    0.3551 O   0  0  0  0  0  0  0  0  0  0  0  0
   -9.7381    3.0395    1.0384 C   0  0  0  0  0  0  0  0  0  0  0  0
   -9.8714    3.0074    2.4223 C   0  0  0  0  0  0  0  0  0  0  0  0
  -10.5690    1.9532    2.9840 C   0  0  0  0  0  0  0  0  0  0  0  0
  -11.1727    0.9794    2.2672 N   0  0  0  0  0  0  0  0  0  0  0  0
  -11.0798    1.0662    0.9181 C   0  0  0  0  0  0  0  0  0  0  0  0
  -11.7815    0.0100    0.1928 C   0  0  0  0  0  0  0  0  0  0  0  0
  -11.9587   -0.2185   -1.1618 C   0  0  0  0  0  0  0  0  0  0  0  0
  -12.7576   -1.3887   -1.3429 C   0  0  0  0  0  0  0  0  0  0  0  0
  -13.2346   -2.0181   -2.5755 C   0  0  0  0  0  0  0  0  0  0  0  0
  -13.9557   -3.0115   -2.5740 O   0  0  0  0  0  0  0  0  0  0  0  0
  -12.8195   -1.3995   -3.7382 N   0  0  0  0  0  0  0  0  0  0  0  0
  -13.2202   -1.8670   -5.0462 C   0  0  0  0  0  0  0  0  0  0  0  0
  -14.5493   -1.2526   -5.4774 C   0  0  0  0  0  0  0  0  0  0  0  0
  -14.9574   -1.7684   -6.8533 C   0  0  0  0  0  0  0  0  0  0  0  0
  -16.2378   -1.1464   -7.3592 C   0  0  0  0  0  0  0  0  0  0  0  0
  -17.3507   -1.3825   -6.6124 N   0  0  0  0  0  0  0  0  0  0  0  0
  -16.3003   -0.4960   -8.3964 O   0  0  0  0  0  0  0  0  0  0  0  0
  -13.0253   -1.8527   -0.0668 C   0  0  0  0  0  0  0  0  0  0  0  0
  -12.4402   -1.0127    0.8412 N   0  0  0  0  0  0  0  0  0  0  0  0
  -10.3831    2.0773    0.2681 C   0  0  0  0  0  0  0  0  0  0  0  0
   -7.5648    5.8449    0.5793 C   0  0  0  0  0  0  0  0  0  0  0  0
   -6.4054    6.4470    1.0890 C   0  0  0  0  0  0  0  0  0  0  0  0
    0.3896    6.5892    2.5791 C   0  0  0  0  0  0  0  0  0  0  0  0
    3.8260    6.7215    2.3823 H   0  0  0  0  0  0  0  0  0  0  0  0
    2.8576    7.5389    3.6132 H   0  0  0  0  0  0  0  0  0  0  0  0
    2.7494    8.0382    1.8990 H   0  0  0  0  0  0  0  0  0  0  0  0
    3.0445    4.5927    1.7606 H   0  0  0  0  0  0  0  0  0  0  0  0
    1.2011    2.9667    1.4790 H   0  0  0  0  0  0  0  0  0  0  0  0
   -2.1111    7.0710    2.9524 H   0  0  0  0  0  0  0  0  0  0  0  0
   -4.2090    7.2636    2.2041 H   0  0  0  0  0  0  0  0  0  0  0  0
   -5.1734    3.7849    2.8174 H   0  0  0  0  0  0  0  0  0  0  0  0
   -7.1739    2.7288    1.9025 H   0  0  0  0  0  0  0  0  0  0  0  0
   -9.4271    3.7645    3.0574 H   0  0  0  0  0  0  0  0  0  0  0  0
  -10.6562    1.8611    4.0630 H   0  0  0  0  0  0  0  0  0  0  0  0
  -11.5579    0.4135   -1.9401 H   0  0  0  0  0  0  0  0  0  0  0  0
  -12.2566   -0.5656   -3.6821 H   0  0  0  0  0  0  0  0  0  0  0  0
  -13.2893   -2.9618   -5.0329 H   0  0  0  0  0  0  0  0  0  0  0  0
  -12.4235   -1.5843   -5.7427 H   0  0  0  0  0  0  0  0  0  0  0  0
  -14.4655   -0.1583   -5.4977 H   0  0  0  0  0  0  0  0  0  0  0  0
  -15.3231   -1.4833   -4.7353 H   0  0  0  0  0  0  0  0  0  0  0  0
  -15.0867   -2.8564   -6.8371 H   0  0  0  0  0  0  0  0  0  0  0  0
  -14.1687   -1.5450   -7.5821 H   0  0  0  0  0  0  0  0  0  0  0  0
  -17.3508   -1.9424   -5.7711 H   0  0  0  0  0  0  0  0  0  0  0  0
  -18.2294   -1.0100   -6.9486 H   0  0  0  0  0  0  0  0  0  0  0  0
  -13.5910   -2.7144    0.2645 H   0  0  0  0  0  0  0  0  0  0  0  0
  -12.4705   -1.0984    1.8489 H   0  0  0  0  0  0  0  0  0  0  0  0
  -10.3288    2.1216   -0.8127 H   0  0  0  0  0  0  0  0  0  0  0  0
   -8.2122    6.4044   -0.0917 H   0  0  0  0  0  0  0  0  0  0  0  0
   -6.1656    7.4639    0.7939 H   0  0  0  0  0  0  0  0  0  0  0  0
    0.1800    7.6113    2.8866 H   0  0  0  0  0  0  0  0  0  0  0  0
  1  2  1  0  0  0  0
  1 40  1  0  0  0  0
  1 41  1  0  0  0  0
  1 42  1  0  0  0  0
  2  3  1  0  0  0  0
  2 39  2  0  0  0  0
  3  4  2  0  0  0  0
  3 43  1  0  0  0  0
  4  5  1  0  0  0  0
  4 44  1  0  0  0  0
  5  6  1  0  0  0  0
  5  7  2  0  0  0  0
  7  8  1  0  0  0  0
  7 39  1  0  0  0  0
  8  9  1  0  0  0  0
  8 45  1  0  0  0  0
  9 10  2  0  0  0  0
  9 11  1  0  0  0  0
 11 12  1  0  0  0  0
 11 46  1  0  0  0  0
 12 13  1  0  0  0  0
 12 38  2  0  0  0  0
 13 14  2  0  0  0  0
 13 47  1  0  0  0  0
 14 15  1  0  0  0  0
 14 48  1  0  0  0  0
 15 16  1  0  0  0  0
 15 37  2  0  0  0  0
 16 17  1  0  0  0  0
 17 18  1  0  0  0  0
 17 36  2  0  0  0  0
 18 19  2  0  0  0  0
 18 49  1  0  0  0  0
 19 20  1  0  0  0  0
 19 50  1  0  0  0  0
 20 21  2  0  0  0  0
 21 22  1  0  0  0  0
 21 36  1  0  0  0  0
 22 23  2  0  0  0  0
 22 35  1  0  0  0  0
 23 24  1  0  0  0  0
 23 51  1  0  0  0  0
 24 25  1  0  0  0  0
 24 34  2  0  0  0  0
 25 26  2  0  0  0  0
 25 27  1  0  0  0  0
 27 28  1  0  0  0  0
 27 52  1  0  0  0  0
 28 29  1  0  0  0  0
 28 53  1  0  0  0  0
 28 54  1  0  0  0  0
 29 30  1  0  0  0  0
 29 55  1  0  0  0  0
 29 56  1  0  0  0  0
 30 31  1  0  0  0  0
 30 57  1  0  0  0  0
 30 58  1  0  0  0  0
 31 32  1  0  0  0  0
 31 33  2  0  0  0  0
 32 59  1  0  0  0  0
 32 60  1  0  0  0  0
 34 35  1  0  0  0  0
 34 61  1  0  0  0  0
 35 62  1  0  0  0  0
 36 63  1  0  0  0  0
 37 38  1  0  0  0  0
 37 64  1  0  0  0  0
 38 65  1  0  0  0  0
 39 66  1  0  0  0  0
M  END
$$$$
