CHEMBL3660280
 OpenBabel04072215373D

 55 58  0  0  0  0  0  0  0  0999 V2000
    3.4187    3.0170   -0.1794 C   0  0  0  0  0  0  0  0  0  0  0  0
    4.6358    2.4345    0.2874 O   0  0  0  0  0  0  0  0  0  0  0  0
    4.8921    1.2140   -0.2656 C   0  0  0  0  0  0  0  0  0  0  0  0
    4.1495    0.6507   -1.0622 O   0  0  0  0  0  0  0  0  0  0  0  0
    6.1519    0.6305    0.1736 C   0  0  0  0  0  0  0  0  0  0  0  0
    7.0505    1.1042    1.1151 C   0  0  0  0  0  0  0  0  0  0  0  0
    8.1032    0.2229    1.1948 N   0  0  0  0  0  0  0  0  0  0  0  0
    7.9164   -0.8226    0.3165 C   0  0  0  0  0  0  0  0  0  0  0  0
    8.8800   -1.9055    0.1409 C   0  0  0  0  0  0  0  0  0  0  0  0
    8.6497   -2.9271   -0.7721 C   0  0  0  0  0  0  0  0  0  0  0  0
    9.6480   -3.8705   -1.0001 C   0  0  0  0  0  0  0  0  0  0  0  0
    9.5485   -4.8884   -1.9329 O   0  0  0  0  0  0  0  0  0  0  0  0
    8.8341   -4.6662   -3.0938 C   0  0  0  0  0  0  0  0  0  0  0  0
    8.8024   -3.4375   -3.7403 C   0  0  0  0  0  0  0  0  0  0  0  0
    7.9725   -3.2476   -4.8443 C   0  0  0  0  0  0  0  0  0  0  0  0
    7.1977   -4.2853   -5.3768 C   0  0  0  0  0  0  0  0  0  0  0  0
    6.2910   -4.0945   -6.4601 N   0  0  0  0  0  0  0  0  0  0  0  0
    5.9431   -2.8524   -6.9725 C   0  0  0  0  0  0  0  0  0  0  0  0
    6.3663   -1.7915   -6.5250 O   0  0  0  0  0  0  0  0  0  0  0  0
    5.0495   -2.9011   -8.0347 N   0  0  0  0  0  0  0  0  0  0  0  0
    4.6619   -1.7278   -8.7483 C   0  0  0  0  0  0  0  0  0  0  0  0
    5.4692   -0.5804   -8.7847 C   0  0  0  0  0  0  0  0  0  0  0  0
    5.0245    0.6022   -9.3708 C   0  0  0  0  0  0  0  0  0  0  0  0
    3.7869    0.6350   -9.9833 C   0  0  0  0  0  0  0  0  0  0  0  0
    3.3795    1.7925  -10.5211 F   0  0  0  0  0  0  0  0  0  0  0  0
    2.9890   -0.5046  -10.0478 C   0  0  0  0  0  0  0  0  0  0  0  0
    1.6770   -0.4611  -10.7740 C   0  0  0  0  0  0  0  0  0  0  0  0
    1.3452    0.7432  -11.3074 F   0  0  0  0  0  0  0  0  0  0  0  0
    1.6453   -1.3438  -11.8131 F   0  0  0  0  0  0  0  0  0  0  0  0
    0.6322   -0.8108   -9.9693 F   0  0  0  0  0  0  0  0  0  0  0  0
    3.4353   -1.6944   -9.4227 C   0  0  0  0  0  0  0  0  0  0  0  0
    7.3318   -5.5535   -4.8000 C   0  0  0  0  0  0  0  0  0  0  0  0
    8.1412   -5.7402   -3.6593 C   0  0  0  0  0  0  0  0  0  0  0  0
   10.8016   -3.8211   -0.2289 C   0  0  0  0  0  0  0  0  0  0  0  0
   10.9308   -2.7898    0.6919 C   0  0  0  0  0  0  0  0  0  0  0  0
   10.0063   -1.8181    0.8842 N   0  0  0  0  0  0  0  0  0  0  0  0
    6.7104   -0.5825   -0.3183 C   0  0  0  0  0  0  0  0  0  0  0  0
    3.3739    4.0488    0.1789 H   0  0  0  0  0  0  0  0  0  0  0  0
    2.5607    2.4697    0.2242 H   0  0  0  0  0  0  0  0  0  0  0  0
    3.3825    3.0352   -1.2740 H   0  0  0  0  0  0  0  0  0  0  0  0
    7.0291    1.9929    1.7332 H   0  0  0  0  0  0  0  0  0  0  0  0
    8.9186    0.3076    1.7888 H   0  0  0  0  0  0  0  0  0  0  0  0
    7.7191   -2.9610   -1.3244 H   0  0  0  0  0  0  0  0  0  0  0  0
    9.3778   -2.5885   -3.3824 H   0  0  0  0  0  0  0  0  0  0  0  0
    7.9667   -2.2438   -5.2519 H   0  0  0  0  0  0  0  0  0  0  0  0
    5.8190   -4.9094   -6.8200 H   0  0  0  0  0  0  0  0  0  0  0  0
    4.4382   -3.6967   -8.0845 H   0  0  0  0  0  0  0  0  0  0  0  0
    6.4636   -0.5692   -8.3456 H   0  0  0  0  0  0  0  0  0  0  0  0
    5.6439    1.4943   -9.3327 H   0  0  0  0  0  0  0  0  0  0  0  0
    2.7948   -2.5740   -9.4465 H   0  0  0  0  0  0  0  0  0  0  0  0
    6.7940   -6.4091   -5.1995 H   0  0  0  0  0  0  0  0  0  0  0  0
    8.2118   -6.7246   -3.2035 H   0  0  0  0  0  0  0  0  0  0  0  0
   11.5852   -4.5604   -0.3460 H   0  0  0  0  0  0  0  0  0  0  0  0
   11.8175   -2.7122    1.3159 H   0  0  0  0  0  0  0  0  0  0  0  0
    6.2578   -1.2010   -1.0832 H   0  0  0  0  0  0  0  0  0  0  0  0
  1  2  1  0  0  0  0
  1 38  1  0  0  0  0
  1 39  1  0  0  0  0
  1 40  1  0  0  0  0
  2  3  1  0  0  0  0
  3  4  2  0  0  0  0
  3  5  1  0  0  0  0
  5  6  2  0  0  0  0
  5 37  1  0  0  0  0
  6  7  1  0  0  0  0
  6 41  1  0  0  0  0
  7  8  1  0  0  0  0
  7 42  1  0  0  0  0
  8  9  1  0  0  0  0
  8 37  2  0  0  0  0
  9 10  1  0  0  0  0
  9 36  2  0  0  0  0
 10 11  2  0  0  0  0
 10 43  1  0  0  0  0
 11 12  1  0  0  0  0
 11 34  1  0  0  0  0
 12 13  1  0  0  0  0
 13 14  1  0  0  0  0
 13 33  2  0  0  0  0
 14 15  2  0  0  0  0
 14 44  1  0  0  0  0
 15 16  1  0  0  0  0
 15 45  1  0  0  0  0
 16 17  1  0  0  0  0
 16 32  2  0  0  0  0
 17 18  1  0  0  0  0
 17 46  1  0  0  0  0
 18 19  2  0  0  0  0
 18 20  1  0  0  0  0
 20 21  1  0  0  0  0
 20 47  1  0  0  0  0
 21 22  1  0  0  0  0
 21 31  2  0  0  0  0
 22 23  2  0  0  0  0
 22 48  1  0  0  0  0
 23 24  1  0  0  0  0
 23 49  1  0  0  0  0
 24 25  1  0  0  0  0
 24 26  2  0  0  0  0
 26 27  1  0  0  0  0
 26 31  1  0  0  0  0
 27 28  1  0  0  0  0
 27 29  1  0  0  0  0
 27 30  1  0  0  0  0
 31 50  1  0  0  0  0
 32 33  1  0  0  0  0
 32 51  1  0  0  0  0
 33 52  1  0  0  0  0
 34 35  2  0  0  0  0
 34 53  1  0  0  0  0
 35 36  1  0  0  0  0
 35 54  1  0  0  0  0
 37 55  1  0  0  0  0
M  END
$$$$
