CHEMBL2088095
 OpenBabel04072215363D

 49 52  0  0  0  0  0  0  0  0999 V2000
  -12.3222   -4.2745   -2.8386 C   0  0  0  0  0  0  0  0  0  0  0  0
  -11.2241   -4.8293   -2.0170 C   0  0  0  0  0  0  0  0  0  0  0  0
   -9.8458   -4.8800   -2.3158 C   0  0  0  0  0  0  0  0  0  0  0  0
   -9.2773   -5.4552   -1.2045 C   0  0  0  0  0  0  0  0  0  0  0  0
   -7.8787   -5.7733   -0.8080 C   0  0  0  0  0  0  0  0  0  0  0  0
   -6.9751   -4.6456   -1.0001 N   0  0  0  0  0  0  0  0  0  0  0  0
   -5.6672   -4.8573   -0.5902 C   0  0  0  0  0  0  0  0  0  0  0  0
   -4.7606   -3.9585   -0.9763 N   0  0  0  0  0  0  0  0  0  0  0  0
   -3.4858   -4.1765   -0.5910 C   0  0  0  0  0  0  0  0  0  0  0  0
   -3.0953   -5.2091    0.2276 C   0  0  0  0  0  0  0  0  0  0  0  0
   -1.2857   -5.4164    0.7127 Br  0  0  0  0  0  0  0  0  0  0  0  0
   -4.1000   -6.0722    0.6246 C   0  0  0  0  0  0  0  0  0  0  0  0
   -3.8257   -7.1845    1.4569 N   0  0  0  0  0  0  0  0  0  0  0  0
   -4.6591   -8.2362    1.6244 C   0  0  0  0  0  0  0  0  0  0  0  0
   -5.4138   -8.7869    0.5668 C   0  0  0  0  0  0  0  0  0  0  0  0
   -6.2252   -9.7339    1.1400 C   0  0  0  0  0  0  0  0  0  0  0  0
   -7.3339  -10.5507    0.5607 C   0  0  0  0  0  0  0  0  0  0  0  0
   -7.1214  -10.8108   -0.9354 C   0  0  0  0  0  0  0  0  0  0  0  0
   -8.2820  -11.5271   -1.5705 C   0  0  0  0  0  0  0  0  0  0  0  0
   -9.3427  -10.7993   -2.1281 C   0  0  0  0  0  0  0  0  0  0  0  0
  -10.4115  -11.4623   -2.7357 C   0  0  0  0  0  0  0  0  0  0  0  0
  -10.4254  -12.8541   -2.7864 C   0  0  0  0  0  0  0  0  0  0  0  0
   -9.3777  -13.5856   -2.2264 C   0  0  0  0  0  0  0  0  0  0  0  0
   -8.3103  -12.9251   -1.6200 C   0  0  0  0  0  0  0  0  0  0  0  0
   -5.8549   -9.7662    2.4574 N   0  0  0  0  0  0  0  0  0  0  0  0
   -4.8721   -8.8856    2.7679 N   0  0  0  0  0  0  0  0  0  0  0  0
   -5.3699   -5.9006    0.1841 N   0  0  0  0  0  0  0  0  0  0  0  0
  -10.2549   -5.7554   -0.3079 O   0  0  0  0  0  0  0  0  0  0  0  0
  -11.4818   -5.3626   -0.8160 N   0  0  0  0  0  0  0  0  0  0  0  0
  -11.9436   -3.8785   -3.7862 H   0  0  0  0  0  0  0  0  0  0  0  0
  -12.8244   -3.4577   -2.3092 H   0  0  0  0  0  0  0  0  0  0  0  0
  -13.0630   -5.0477   -3.0666 H   0  0  0  0  0  0  0  0  0  0  0  0
   -9.3310   -4.5274   -3.1972 H   0  0  0  0  0  0  0  0  0  0  0  0
   -7.5436   -6.6107   -1.4352 H   0  0  0  0  0  0  0  0  0  0  0  0
   -7.8770   -6.1190    0.2336 H   0  0  0  0  0  0  0  0  0  0  0  0
   -7.2862   -3.8078   -0.5192 H   0  0  0  0  0  0  0  0  0  0  0  0
   -2.7681   -3.4627   -0.9893 H   0  0  0  0  0  0  0  0  0  0  0  0
   -3.3242   -6.8996    2.2942 H   0  0  0  0  0  0  0  0  0  0  0  0
   -5.4100   -8.4709   -0.4640 H   0  0  0  0  0  0  0  0  0  0  0  0
   -8.2737  -10.0074    0.7153 H   0  0  0  0  0  0  0  0  0  0  0  0
   -7.4217  -11.5013    1.1001 H   0  0  0  0  0  0  0  0  0  0  0  0
   -6.2002  -11.3880   -1.0917 H   0  0  0  0  0  0  0  0  0  0  0  0
   -6.9691   -9.8682   -1.4776 H   0  0  0  0  0  0  0  0  0  0  0  0
   -9.3416   -9.7112   -2.0993 H   0  0  0  0  0  0  0  0  0  0  0  0
  -11.2248  -10.8911   -3.1719 H   0  0  0  0  0  0  0  0  0  0  0  0
  -11.2553  -13.3704   -3.2628 H   0  0  0  0  0  0  0  0  0  0  0  0
   -9.3914  -14.6714   -2.2685 H   0  0  0  0  0  0  0  0  0  0  0  0
   -7.4962  -13.5077   -1.1946 H   0  0  0  0  0  0  0  0  0  0  0  0
   -6.2321  -10.3419    3.2001 H   0  0  0  0  0  0  0  0  0  0  0  0
  1  2  1  0  0  0  0
  1 30  1  0  0  0  0
  1 31  1  0  0  0  0
  1 32  1  0  0  0  0
  2  3  1  0  0  0  0
  2 29  2  0  0  0  0
  3  4  2  0  0  0  0
  3 33  1  0  0  0  0
  4  5  1  0  0  0  0
  4 28  1  0  0  0  0
  5  6  1  0  0  0  0
  5 34  1  0  0  0  0
  5 35  1  0  0  0  0
  6  7  1  0  0  0  0
  6 36  1  0  0  0  0
  7  8  1  0  0  0  0
  7 27  2  0  0  0  0
  8  9  2  0  0  0  0
  9 10  1  0  0  0  0
  9 37  1  0  0  0  0
 10 11  1  0  0  0  0
 10 12  2  0  0  0  0
 12 13  1  0  0  0  0
 12 27  1  0  0  0  0
 13 14  1  0  0  0  0
 13 38  1  0  0  0  0
 14 15  1  0  0  0  0
 14 26  2  0  0  0  0
 15 16  2  0  0  0  0
 15 39  1  0  0  0  0
 16 17  1  0  0  0  0
 16 25  1  0  0  0  0
 17 18  1  0  0  0  0
 17 40  1  0  0  0  0
 17 41  1  0  0  0  0
 18 19  1  0  0  0  0
 18 42  1  0  0  0  0
 18 43  1  0  0  0  0
 19 20  1  0  0  0  0
 19 24  2  0  0  0  0
 20 21  2  0  0  0  0
 20 44  1  0  0  0  0
 21 22  1  0  0  0  0
 21 45  1  0  0  0  0
 22 23  2  0  0  0  0
 22 46  1  0  0  0  0
 23 24  1  0  0  0  0
 23 47  1  0  0  0  0
 24 48  1  0  0  0  0
 25 26  1  0  0  0  0
 25 49  1  0  0  0  0
 28 29  1  0  0  0  0
M  END
$$$$
