CHEMBL150405
 OpenBabel04072215363D

 61 66  0  0  0  0  0  0  0  0999 V2000
    5.6940   -1.8859    2.2597 C   0  0  0  0  0  0  0  0  0  0  0  0
    4.9851   -1.0173    1.2364 C   0  0  0  0  0  0  0  0  0  0  0  0
    4.8159    0.4143    1.7382 C   0  0  0  0  0  0  0  0  0  0  0  0
    5.9903   -1.0472   -0.2932 S   0  0  0  0  0  0  0  0  0  0  0  0
    4.8728   -0.1304   -1.3470 C   0  0  0  0  0  0  0  0  0  0  0  0
    5.3289   -0.1232   -2.7861 C   0  0  0  0  0  0  0  0  0  0  0  0
    5.3201   -1.3077   -3.5246 C   0  0  0  0  0  0  0  0  0  0  0  0
    5.5422   -1.3218   -4.8982 C   0  0  0  0  0  0  0  0  0  0  0  0
    5.7407   -0.0838   -5.5219 C   0  0  0  0  0  0  0  0  0  0  0  0
    5.8710    1.1009   -4.7883 C   0  0  0  0  0  0  0  0  0  0  0  0
    5.6850    1.0891   -3.4087 C   0  0  0  0  0  0  0  0  0  0  0  0
    6.2177    2.0175   -5.7438 C   0  0  0  0  0  0  0  0  0  0  0  0
    7.0110    3.1799   -5.5861 C   0  0  0  0  0  0  0  0  0  0  0  0
    7.7921    3.5643   -6.7622 C   0  0  0  0  0  0  0  0  0  0  0  0
    7.5453    2.9176   -7.9882 C   0  0  0  0  0  0  0  0  0  0  0  0
    6.2178    2.4803   -8.0325 C   0  0  0  0  0  0  0  0  0  0  0  0
    5.9290    1.6105   -7.0174 C   0  0  0  0  0  0  0  0  0  0  0  0
    5.9840    0.2169   -6.8852 N   0  0  0  0  0  0  0  0  0  0  0  0
    6.7918   -0.6278   -7.7586 C   0  0  0  0  0  0  0  0  0  0  0  0
    6.5556   -2.1274   -7.8883 C   0  0  0  0  0  0  0  0  0  0  0  0
    5.1633   -2.4250   -8.3846 C   0  0  0  0  0  0  0  0  0  0  0  0
    4.9640   -3.8333   -8.4699 O   0  0  0  0  0  0  0  0  0  0  0  0
    5.7390    2.6433   -9.4090 C   0  0  0  0  0  0  0  0  0  0  0  0
    6.9612    2.0984  -10.0884 C   0  0  0  0  0  0  0  0  0  0  0  0
    6.8124    1.1107  -11.0579 C   0  0  0  0  0  0  0  0  0  0  0  0
    7.8005    0.1513  -11.1273 C   0  0  0  0  0  0  0  0  0  0  0  0
    8.9354    0.2620  -10.2985 C   0  0  0  0  0  0  0  0  0  0  0  0
    9.1033    1.3261   -9.3538 C   0  0  0  0  0  0  0  0  0  0  0  0
    8.0887    2.2801   -9.2102 C   0  0  0  0  0  0  0  0  0  0  0  0
    8.0130    5.0020   -6.6118 C   0  0  0  0  0  0  0  0  0  0  0  0
    8.4826    5.8489   -7.3732 O   0  0  0  0  0  0  0  0  0  0  0  0
    7.4300    5.3353   -5.3820 N   0  0  0  0  0  0  0  0  0  0  0  0
    6.7850    4.2615   -4.6432 C   0  0  0  0  0  0  0  0  0  0  0  0
    5.1486   -1.8896    3.2103 H   0  0  0  0  0  0  0  0  0  0  0  0
    6.7117   -1.5238    2.4678 H   0  0  0  0  0  0  0  0  0  0  0  0
    5.7655   -2.9258    1.9221 H   0  0  0  0  0  0  0  0  0  0  0  0
    4.0014   -1.4571    1.0261 H   0  0  0  0  0  0  0  0  0  0  0  0
    5.7707    0.9351    1.8178 H   0  0  0  0  0  0  0  0  0  0  0  0
    4.3428    0.4197    2.7265 H   0  0  0  0  0  0  0  0  0  0  0  0
    4.1581    0.9938    1.0798 H   0  0  0  0  0  0  0  0  0  0  0  0
    4.8008    0.9087   -1.0133 H   0  0  0  0  0  0  0  0  0  0  0  0
    3.8692   -0.5608   -1.3134 H   0  0  0  0  0  0  0  0  0  0  0  0
    5.1121   -2.2633   -3.0248 H   0  0  0  0  0  0  0  0  0  0  0  0
    5.5275   -2.2658   -5.4188 H   0  0  0  0  0  0  0  0  0  0  0  0
    5.7487    2.0047   -2.8283 H   0  0  0  0  0  0  0  0  0  0  0  0
    7.8348   -0.4698   -7.4499 H   0  0  0  0  0  0  0  0  0  0  0  0
    6.6506   -0.2200   -8.7494 H   0  0  0  0  0  0  0  0  0  0  0  0
    6.7828   -2.6733   -6.9662 H   0  0  0  0  0  0  0  0  0  0  0  0
    7.2759   -2.5283   -8.6148 H   0  0  0  0  0  0  0  0  0  0  0  0
    4.9980   -1.9989   -9.3865 H   0  0  0  0  0  0  0  0  0  0  0  0
    4.3966   -2.0224   -7.7190 H   0  0  0  0  0  0  0  0  0  0  0  0
    5.5676   -4.1778   -9.1527 H   0  0  0  0  0  0  0  0  0  0  0  0
    5.6765    3.7219   -9.6313 H   0  0  0  0  0  0  0  0  0  0  0  0
    4.7864    2.1634   -9.6068 H   0  0  0  0  0  0  0  0  0  0  0  0
    5.8493    0.9707  -11.5438 H   0  0  0  0  0  0  0  0  0  0  0  0
    7.6204   -0.7414  -11.7254 H   0  0  0  0  0  0  0  0  0  0  0  0
    9.6396   -0.5716  -10.3110 H   0  0  0  0  0  0  0  0  0  0  0  0
    9.9182    1.2371   -8.6397 H   0  0  0  0  0  0  0  0  0  0  0  0
    7.1523    6.2951   -5.2556 H   0  0  0  0  0  0  0  0  0  0  0  0
    5.7123    4.4776   -4.5446 H   0  0  0  0  0  0  0  0  0  0  0  0
    7.2540    4.1326   -3.6700 H   0  0  0  0  0  0  0  0  0  0  0  0
  1  2  1  0  0  0  0
  1 34  1  0  0  0  0
  1 35  1  0  0  0  0
  1 36  1  0  0  0  0
  2  3  1  0  0  0  0
  2  4  1  0  0  0  0
  2 37  1  0  0  0  0
  3 38  1  0  0  0  0
  3 39  1  0  0  0  0
  3 40  1  0  0  0  0
  4  5  1  0  0  0  0
  5  6  1  0  0  0  0
  5 41  1  0  0  0  0
  5 42  1  0  0  0  0
  6  7  1  0  0  0  0
  6 11  2  0  0  0  0
  7  8  2  0  0  0  0
  7 43  1  0  0  0  0
  8  9  1  0  0  0  0
  8 44  1  0  0  0  0
  9 10  2  0  0  0  0
  9 18  1  0  0  0  0
 10 11  1  0  0  0  0
 10 12  1  0  0  0  0
 11 45  1  0  0  0  0
 12 13  1  0  0  0  0
 12 17  2  0  0  0  0
 13 14  2  0  0  0  0
 13 33  1  0  0  0  0
 14 15  1  0  0  0  0
 14 30  1  0  0  0  0
 15 16  2  0  0  0  0
 15 29  1  0  0  0  0
 16 17  1  0  0  0  0
 16 23  1  0  0  0  0
 17 18  1  0  0  0  0
 18 19  1  0  0  0  0
 19 20  1  0  0  0  0
 19 46  1  0  0  0  0
 19 47  1  0  0  0  0
 20 21  1  0  0  0  0
 20 48  1  0  0  0  0
 20 49  1  0  0  0  0
 21 22  1  0  0  0  0
 21 50  1  0  0  0  0
 21 51  1  0  0  0  0
 22 52  1  0  0  0  0
 23 24  1  0  0  0  0
 23 53  1  0  0  0  0
 23 54  1  0  0  0  0
 24 25  1  0  0  0  0
 24 29  2  0  0  0  0
 25 26  2  0  0  0  0
 25 55  1  0  0  0  0
 26 27  1  0  0  0  0
 26 56  1  0  0  0  0
 27 28  2  0  0  0  0
 27 57  1  0  0  0  0
 28 29  1  0  0  0  0
 28 58  1  0  0  0  0
 30 31  2  0  0  0  0
 30 32  1  0  0  0  0
 32 33  1  0  0  0  0
 32 59  1  0  0  0  0
 33 60  1  0  0  0  0
 33 61  1  0  0  0  0
M  END
$$$$
