CHEMBL3945523
 OpenBabel04072215373D

 58 61  0  0  0  0  0  0  0  0999 V2000
    2.5704    0.1760   -0.1568 C   0  0  0  0  0  0  0  0  0  0  0  0
    1.0706    0.0541   -0.0839 C   0  0  0  0  0  0  0  0  0  0  0  0
    0.3750    1.2776   -0.1079 C   0  0  0  0  0  0  0  0  0  0  0  0
   -1.0145    1.3804   -0.0474 C   0  0  0  0  0  0  0  0  0  0  0  0
   -1.6705    2.6386   -0.0059 N   0  0  0  0  0  0  0  0  0  0  0  0
   -1.0309    3.8273    0.3264 C   0  0  0  0  0  0  0  0  0  0  0  0
    0.1473    3.9199    0.6557 O   0  0  0  0  0  0  0  0  0  0  0  0
   -1.8643    4.9378    0.3155 N   0  0  0  0  0  0  0  0  0  0  0  0
   -1.2749    6.1893    0.6686 C   0  0  0  0  0  0  0  0  0  0  0  0
   -0.1676    6.6739   -0.0426 C   0  0  0  0  0  0  0  0  0  0  0  0
    0.4738    7.8296    0.3849 C   0  0  0  0  0  0  0  0  0  0  0  0
    1.5328    8.2875   -0.2953 F   0  0  0  0  0  0  0  0  0  0  0  0
    0.0477    8.5092    1.5176 C   0  0  0  0  0  0  0  0  0  0  0  0
   -1.0616    8.0430    2.2398 C   0  0  0  0  0  0  0  0  0  0  0  0
   -1.4873    8.7584    3.5024 C   0  0  0  0  0  0  0  0  0  0  0  0
   -0.7858    8.2037    4.7337 C   0  0  0  0  0  0  0  0  0  0  0  0
   -1.2224   10.0972    3.4476 F   0  0  0  0  0  0  0  0  0  0  0  0
   -2.8330    8.6672    3.7124 F   0  0  0  0  0  0  0  0  0  0  0  0
   -1.7404    6.8860    1.7903 C   0  0  0  0  0  0  0  0  0  0  0  0
   -1.7459    0.1996   -0.0455 C   0  0  0  0  0  0  0  0  0  0  0  0
   -1.0792   -1.0356   -0.0349 C   0  0  0  0  0  0  0  0  0  0  0  0
    0.3239   -1.1283    0.0285 C   0  0  0  0  0  0  0  0  0  0  0  0
    0.9453   -2.3665    0.1647 O   0  0  0  0  0  0  0  0  0  0  0  0
    0.3127   -3.3476    0.9302 C   0  0  0  0  0  0  0  0  0  0  0  0
   -0.4341   -3.0439    2.0693 C   0  0  0  0  0  0  0  0  0  0  0  0
   -1.0257   -4.0770    2.7616 C   0  0  0  0  0  0  0  0  0  0  0  0
   -0.9038   -5.3625    2.4077 N   0  0  0  0  0  0  0  0  0  0  0  0
   -0.1617   -5.6808    1.3302 C   0  0  0  0  0  0  0  0  0  0  0  0
   -0.0369   -7.0450    0.9920 N   0  0  0  0  0  0  0  0  0  0  0  0
   -0.6143   -8.0626    1.7327 C   0  0  0  0  0  0  0  0  0  0  0  0
   -1.3025   -7.9532    2.7483 O   0  0  0  0  0  0  0  0  0  0  0  0
   -0.3324   -9.4526    1.2445 C   0  0  0  0  0  0  0  0  0  0  0  0
   -1.1419  -10.6115    1.8030 C   0  0  0  0  0  0  0  0  0  0  0  0
    0.2963  -10.4536    2.1917 C   0  0  0  0  0  0  0  0  0  0  0  0
    0.4628   -4.6962    0.5597 C   0  0  0  0  0  0  0  0  0  0  0  0
    2.8505    1.1995   -0.4765 H   0  0  0  0  0  0  0  0  0  0  0  0
    2.9983   -0.4847   -0.9060 H   0  0  0  0  0  0  0  0  0  0  0  0
    3.0339    0.0299    0.8187 H   0  0  0  0  0  0  0  0  0  0  0  0
    0.9775    2.1777   -0.1983 H   0  0  0  0  0  0  0  0  0  0  0  0
   -2.6661    2.6510   -0.1637 H   0  0  0  0  0  0  0  0  0  0  0  0
   -2.7870    4.7612    0.6865 H   0  0  0  0  0  0  0  0  0  0  0  0
    0.2128    6.1527   -0.9145 H   0  0  0  0  0  0  0  0  0  0  0  0
    0.5895    9.3980    1.8352 H   0  0  0  0  0  0  0  0  0  0  0  0
    0.2984    8.3478    4.6782 H   0  0  0  0  0  0  0  0  0  0  0  0
   -0.9933    7.1372    4.8681 H   0  0  0  0  0  0  0  0  0  0  0  0
   -1.1403    8.7242    5.6301 H   0  0  0  0  0  0  0  0  0  0  0  0
   -2.5680    6.4975    2.3741 H   0  0  0  0  0  0  0  0  0  0  0  0
   -2.8313    0.1962   -0.0037 H   0  0  0  0  0  0  0  0  0  0  0  0
   -1.6850   -1.9408   -0.0249 H   0  0  0  0  0  0  0  0  0  0  0  0
   -0.5984   -2.0294    2.4065 H   0  0  0  0  0  0  0  0  0  0  0  0
   -1.6347   -3.9006    3.6426 H   0  0  0  0  0  0  0  0  0  0  0  0
    0.5158   -7.2848    0.1821 H   0  0  0  0  0  0  0  0  0  0  0  0
   -0.0616   -9.5334    0.1969 H   0  0  0  0  0  0  0  0  0  0  0  0
   -1.4066  -11.4314    1.1466 H   0  0  0  0  0  0  0  0  0  0  0  0
   -1.8939  -10.4048    2.5609 H   0  0  0  0  0  0  0  0  0  0  0  0
    1.0007  -11.1772    1.7997 H   0  0  0  0  0  0  0  0  0  0  0  0
    0.5078  -10.1359    3.2090 H   0  0  0  0  0  0  0  0  0  0  0  0
    1.0441   -4.9538   -0.3171 H   0  0  0  0  0  0  0  0  0  0  0  0
  1  2  1  0  0  0  0
  1 36  1  0  0  0  0
  1 37  1  0  0  0  0
  1 38  1  0  0  0  0
  2  3  1  0  0  0  0
  2 22  2  0  0  0  0
  3  4  2  0  0  0  0
  3 39  1  0  0  0  0
  4  5  1  0  0  0  0
  4 20  1  0  0  0  0
  5  6  1  0  0  0  0
  5 40  1  0  0  0  0
  6  7  2  0  0  0  0
  6  8  1  0  0  0  0
  8  9  1  0  0  0  0
  8 41  1  0  0  0  0
  9 10  1  0  0  0  0
  9 19  2  0  0  0  0
 10 11  2  0  0  0  0
 10 42  1  0  0  0  0
 11 12  1  0  0  0  0
 11 13  1  0  0  0  0
 13 14  2  0  0  0  0
 13 43  1  0  0  0  0
 14 15  1  0  0  0  0
 14 19  1  0  0  0  0
 15 16  1  0  0  0  0
 15 17  1  0  0  0  0
 15 18  1  0  0  0  0
 16 44  1  0  0  0  0
 16 45  1  0  0  0  0
 16 46  1  0  0  0  0
 19 47  1  0  0  0  0
 20 21  2  0  0  0  0
 20 48  1  0  0  0  0
 21 22  1  0  0  0  0
 21 49  1  0  0  0  0
 22 23  1  0  0  0  0
 23 24  1  0  0  0  0
 24 25  1  0  0  0  0
 24 35  2  0  0  0  0
 25 26  2  0  0  0  0
 25 50  1  0  0  0  0
 26 27  1  0  0  0  0
 26 51  1  0  0  0  0
 27 28  2  0  0  0  0
 28 29  1  0  0  0  0
 28 35  1  0  0  0  0
 29 30  1  0  0  0  0
 29 52  1  0  0  0  0
 30 31  2  0  0  0  0
 30 32  1  0  0  0  0
 32 33  1  0  0  0  0
 32 34  1  0  0  0  0
 32 53  1  0  0  0  0
 33 34  1  0  0  0  0
 33 54  1  0  0  0  0
 33 55  1  0  0  0  0
 34 56  1  0  0  0  0
 34 57  1  0  0  0  0
 35 58  1  0  0  0  0
M  END
$$$$
