CHEMBL4434973
 OpenBabel04072215383D

 45 47  0  0  0  0  0  0  0  0999 V2000
    8.5738    3.7693   -1.4960 C   0  0  0  0  0  0  0  0  0  0  0  0
    8.0364    3.5718   -2.7982 O   0  0  0  0  0  0  0  0  0  0  0  0
    7.8091    2.2794   -3.1804 C   0  0  0  0  0  0  0  0  0  0  0  0
    8.1089    1.1388   -2.4379 C   0  0  0  0  0  0  0  0  0  0  0  0
    7.8286   -0.1304   -2.9577 C   0  0  0  0  0  0  0  0  0  0  0  0
    7.2443   -0.2756   -4.2250 C   0  0  0  0  0  0  0  0  0  0  0  0
    6.9721   -1.6571   -4.7368 C   0  0  0  0  0  0  0  0  0  0  0  0
    7.3006   -2.6079   -4.0317 O   0  0  0  0  0  0  0  0  0  0  0  0
    6.3191   -1.7932   -6.1085 C   0  0  0  0  0  0  0  0  0  0  0  0
    5.9865   -3.5296   -6.5227 S   0  0  0  0  0  0  0  0  0  0  0  0
    5.4139   -3.3816   -8.1951 C   0  0  0  0  0  0  0  0  0  0  0  0
    5.1233   -4.5407   -8.8046 N   0  0  0  0  0  0  0  0  0  0  0  0
    4.7544   -4.4674  -10.0898 C   0  0  0  0  0  0  0  0  0  0  0  0
    4.6794   -3.2863  -10.7837 C   0  0  0  0  0  0  0  0  0  0  0  0
    4.9673   -2.1351  -10.0746 C   0  0  0  0  0  0  0  0  0  0  0  0
    4.8360   -0.8991  -10.7527 N   0  0  0  0  0  0  0  0  0  0  0  0
    4.6491    0.3661  -10.1671 C   0  0  0  0  0  0  0  0  0  0  0  0
    5.2375    1.5081  -10.7287 C   0  0  0  0  0  0  0  0  0  0  0  0
    5.0517    2.7726  -10.1494 C   0  0  0  0  0  0  0  0  0  0  0  0
    4.2656    2.9052   -8.9984 C   0  0  0  0  0  0  0  0  0  0  0  0
    4.0152    4.2130   -8.3383 C   0  0  0  0  0  0  0  0  0  0  0  0
    2.9862    4.4634   -7.7377 O   0  0  0  0  0  0  0  0  0  0  0  0
    5.0497    5.0748   -8.4181 O   0  0  0  0  0  0  0  0  0  0  0  0
    3.6444    1.7785   -8.4559 C   0  0  0  0  0  0  0  0  0  0  0  0
    3.8416    0.5233   -9.0339 C   0  0  0  0  0  0  0  0  0  0  0  0
    5.3308   -2.1732   -8.7762 N   0  0  0  0  0  0  0  0  0  0  0  0
    6.9430    0.8716   -4.9662 C   0  0  0  0  0  0  0  0  0  0  0  0
    7.2259    2.1374   -4.4421 C   0  0  0  0  0  0  0  0  0  0  0  0
    8.6909    4.8462   -1.3413 H   0  0  0  0  0  0  0  0  0  0  0  0
    9.5640    3.3109   -1.4037 H   0  0  0  0  0  0  0  0  0  0  0  0
    7.8901    3.3933   -0.7276 H   0  0  0  0  0  0  0  0  0  0  0  0
    8.5627    1.1968   -1.4534 H   0  0  0  0  0  0  0  0  0  0  0  0
    8.0729   -1.0093   -2.3619 H   0  0  0  0  0  0  0  0  0  0  0  0
    6.9988   -1.3654   -6.8518 H   0  0  0  0  0  0  0  0  0  0  0  0
    5.3653   -1.2572   -6.0995 H   0  0  0  0  0  0  0  0  0  0  0  0
    4.5122   -5.4167  -10.5582 H   0  0  0  0  0  0  0  0  0  0  0  0
    4.3745   -3.2657  -11.8206 H   0  0  0  0  0  0  0  0  0  0  0  0
    5.3584   -0.8912  -11.6206 H   0  0  0  0  0  0  0  0  0  0  0  0
    5.8492    1.4264  -11.6246 H   0  0  0  0  0  0  0  0  0  0  0  0
    5.4994    3.6382  -10.6308 H   0  0  0  0  0  0  0  0  0  0  0  0
    5.8791    4.7059   -8.7695 H   0  0  0  0  0  0  0  0  0  0  0  0
    2.9937    1.8704   -7.5885 H   0  0  0  0  0  0  0  0  0  0  0  0
    3.3324   -0.3374   -8.6049 H   0  0  0  0  0  0  0  0  0  0  0  0
    6.4903    0.8193   -5.9513 H   0  0  0  0  0  0  0  0  0  0  0  0
    6.9863    3.0259   -5.0224 H   0  0  0  0  0  0  0  0  0  0  0  0
  1  2  1  0  0  0  0
  1 29  1  0  0  0  0
  1 30  1  0  0  0  0
  1 31  1  0  0  0  0
  2  3  1  0  0  0  0
  3  4  1  0  0  0  0
  3 28  2  0  0  0  0
  4  5  2  0  0  0  0
  4 32  1  0  0  0  0
  5  6  1  0  0  0  0
  5 33  1  0  0  0  0
  6  7  1  0  0  0  0
  6 27  2  0  0  0  0
  7  8  2  0  0  0  0
  7  9  1  0  0  0  0
  9 10  1  0  0  0  0
  9 34  1  0  0  0  0
  9 35  1  0  0  0  0
 10 11  1  0  0  0  0
 11 12  1  0  0  0  0
 11 26  2  0  0  0  0
 12 13  2  0  0  0  0
 13 14  1  0  0  0  0
 13 36  1  0  0  0  0
 14 15  2  0  0  0  0
 14 37  1  0  0  0  0
 15 16  1  0  0  0  0
 15 26  1  0  0  0  0
 16 17  1  0  0  0  0
 16 38  1  0  0  0  0
 17 18  1  0  0  0  0
 17 25  2  0  0  0  0
 18 19  2  0  0  0  0
 18 39  1  0  0  0  0
 19 20  1  0  0  0  0
 19 40  1  0  0  0  0
 20 21  1  0  0  0  0
 20 24  2  0  0  0  0
 21 22  2  0  0  0  0
 21 23  1  0  0  0  0
 23 41  1  0  0  0  0
 24 25  1  0  0  0  0
 24 42  1  0  0  0  0
 25 43  1  0  0  0  0
 27 28  1  0  0  0  0
 27 44  1  0  0  0  0
 28 45  1  0  0  0  0
M  END
$$$$
