CHEMBL362502
 OpenBabel04072215373D

 69 71  0  0  0  0  0  0  0  0999 V2000
    1.6876    0.6562   -4.8659 C   0  0  0  0  0  0  0  0  0  0  0  0
    2.8172   -0.2073   -4.7938 O   0  0  0  0  0  0  0  0  0  0  0  0
    3.0264   -0.8255   -3.5895 C   0  0  0  0  0  0  0  0  0  0  0  0
    2.0300   -1.1283   -2.6644 C   0  0  0  0  0  0  0  0  0  0  0  0
    2.3659   -1.8020   -1.4946 C   0  0  0  0  0  0  0  0  0  0  0  0
    1.4704   -2.2115   -0.5421 O   0  0  0  0  0  0  0  0  0  0  0  0
    0.1689   -2.5322   -1.0295 C   0  0  0  0  0  0  0  0  0  0  0  0
    3.7040   -2.1139   -1.2280 C   0  0  0  0  0  0  0  0  0  0  0  0
    4.7324   -1.8746   -2.1636 C   0  0  0  0  0  0  0  0  0  0  0  0
    6.1149   -2.3876   -1.9265 C   0  0  0  0  0  0  0  0  0  0  0  0
    6.2821   -3.5970   -1.2306 C   0  0  0  0  0  0  0  0  0  0  0  0
    7.5509   -4.1349   -0.9810 C   0  0  0  0  0  0  0  0  0  0  0  0
    7.7374   -5.2900   -0.2328 C   0  0  0  0  0  0  0  0  0  0  0  0
    8.9464   -5.8013    0.0670 N   0  0  0  0  0  0  0  0  0  0  0  0
   10.0347   -5.1585   -0.3930 C   0  0  0  0  0  0  0  0  0  0  0  0
   11.3041   -5.6618   -0.0154 N   0  0  0  0  0  0  0  0  0  0  0  0
   11.5399   -7.1088    0.0542 C   0  0  0  0  0  0  0  0  0  0  0  0
   10.5664   -8.0755   -0.6203 C   0  0  0  0  0  0  0  0  0  0  0  0
   11.1024   -9.5018   -0.5739 C   0  0  0  0  0  0  0  0  0  0  0  0
   10.1688  -10.3875   -1.1790 O   0  0  0  0  0  0  0  0  0  0  0  0
   12.2835   -4.8871    0.6135 C   0  0  0  0  0  0  0  0  0  0  0  0
   12.0076   -3.4392    0.9460 C   0  0  0  0  0  0  0  0  0  0  0  0
   13.3709   -5.3667    0.9553 O   0  0  0  0  0  0  0  0  0  0  0  0
    9.9241   -4.0268   -1.2016 C   0  0  0  0  0  0  0  0  0  0  0  0
    8.6755   -3.4859   -1.4882 C   0  0  0  0  0  0  0  0  0  0  0  0
    8.5530   -2.3529   -2.2070 N   0  0  0  0  0  0  0  0  0  0  0  0
    7.3149   -1.8119   -2.3832 C   0  0  0  0  0  0  0  0  0  0  0  0
    7.3074   -0.5955   -3.0678 N   0  0  0  0  0  0  0  0  0  0  0  0
    7.4624    0.6294   -2.4738 C   0  0  0  0  0  0  0  0  0  0  0  0
    7.4987    1.6330   -3.1806 O   0  0  0  0  0  0  0  0  0  0  0  0
    7.6072    0.6413   -1.1143 N   0  0  0  0  0  0  0  0  0  0  0  0
    7.7872    1.8644   -0.3109 C   0  0  0  0  0  0  0  0  0  0  0  0
    6.5252    2.7377   -0.3912 C   0  0  0  0  0  0  0  0  0  0  0  0
    7.9987    1.4475    1.1587 C   0  0  0  0  0  0  0  0  0  0  0  0
    9.0177    2.6743   -0.7565 C   0  0  0  0  0  0  0  0  0  0  0  0
    4.3503   -1.2253   -3.3502 C   0  0  0  0  0  0  0  0  0  0  0  0
    1.7114    1.1563   -5.8389 H   0  0  0  0  0  0  0  0  0  0  0  0
    1.7307    1.4271   -4.0891 H   0  0  0  0  0  0  0  0  0  0  0  0
    0.7497    0.0948   -4.8119 H   0  0  0  0  0  0  0  0  0  0  0  0
    0.9990   -0.8609   -2.8550 H   0  0  0  0  0  0  0  0  0  0  0  0
   -0.3021   -3.2091   -0.3099 H   0  0  0  0  0  0  0  0  0  0  0  0
    0.2009   -3.0529   -1.9940 H   0  0  0  0  0  0  0  0  0  0  0  0
   -0.4425   -1.6274   -1.0966 H   0  0  0  0  0  0  0  0  0  0  0  0
    3.9209   -2.5937   -0.2756 H   0  0  0  0  0  0  0  0  0  0  0  0
    5.4114   -4.1445   -0.8727 H   0  0  0  0  0  0  0  0  0  0  0  0
    6.8975   -5.8429    0.1778 H   0  0  0  0  0  0  0  0  0  0  0  0
   11.6429   -7.3756    1.1143 H   0  0  0  0  0  0  0  0  0  0  0  0
   12.5285   -7.2702   -0.3991 H   0  0  0  0  0  0  0  0  0  0  0  0
   10.3758   -7.7861   -1.6603 H   0  0  0  0  0  0  0  0  0  0  0  0
    9.5969   -8.0747   -0.1125 H   0  0  0  0  0  0  0  0  0  0  0  0
   11.2704   -9.8302    0.4577 H   0  0  0  0  0  0  0  0  0  0  0  0
   12.0477   -9.5846   -1.1183 H   0  0  0  0  0  0  0  0  0  0  0  0
    9.3216  -10.2849   -0.7118 H   0  0  0  0  0  0  0  0  0  0  0  0
   10.9521   -3.2335    1.1286 H   0  0  0  0  0  0  0  0  0  0  0  0
   12.3965   -2.8035    0.1475 H   0  0  0  0  0  0  0  0  0  0  0  0
   12.5326   -3.1934    1.8762 H   0  0  0  0  0  0  0  0  0  0  0  0
   10.8072   -3.5542   -1.6202 H   0  0  0  0  0  0  0  0  0  0  0  0
    7.8388   -0.5923   -3.9267 H   0  0  0  0  0  0  0  0  0  0  0  0
    8.0532   -0.1904   -0.7486 H   0  0  0  0  0  0  0  0  0  0  0  0
    5.6419    2.1770   -0.0643 H   0  0  0  0  0  0  0  0  0  0  0  0
    6.3306    3.0827   -1.4120 H   0  0  0  0  0  0  0  0  0  0  0  0
    6.6162    3.6253    0.2443 H   0  0  0  0  0  0  0  0  0  0  0  0
    7.1476    0.8701    1.5330 H   0  0  0  0  0  0  0  0  0  0  0  0
    8.1260    2.3233    1.8050 H   0  0  0  0  0  0  0  0  0  0  0  0
    8.8926    0.8203    1.2638 H   0  0  0  0  0  0  0  0  0  0  0  0
    8.8985    3.0921   -1.7609 H   0  0  0  0  0  0  0  0  0  0  0  0
    9.9200    2.0525   -0.7631 H   0  0  0  0  0  0  0  0  0  0  0  0
    9.1970    3.5188   -0.0804 H   0  0  0  0  0  0  0  0  0  0  0  0
    5.0766   -1.0202   -4.1330 H   0  0  0  0  0  0  0  0  0  0  0  0
  1  2  1  0  0  0  0
  1 37  1  0  0  0  0
  1 38  1  0  0  0  0
  1 39  1  0  0  0  0
  2  3  1  0  0  0  0
  3  4  1  0  0  0  0
  3 36  2  0  0  0  0
  4  5  2  0  0  0  0
  4 40  1  0  0  0  0
  5  6  1  0  0  0  0
  5  8  1  0  0  0  0
  6  7  1  0  0  0  0
  7 41  1  0  0  0  0
  7 42  1  0  0  0  0
  7 43  1  0  0  0  0
  8  9  2  0  0  0  0
  8 44  1  0  0  0  0
  9 10  1  0  0  0  0
  9 36  1  0  0  0  0
 10 11  1  0  0  0  0
 10 27  2  0  0  0  0
 11 12  2  0  0  0  0
 11 45  1  0  0  0  0
 12 13  1  0  0  0  0
 12 25  1  0  0  0  0
 13 14  2  0  0  0  0
 13 46  1  0  0  0  0
 14 15  1  0  0  0  0
 15 16  1  0  0  0  0
 15 24  2  0  0  0  0
 16 17  1  0  0  0  0
 16 21  1  0  0  0  0
 17 18  1  0  0  0  0
 17 47  1  0  0  0  0
 17 48  1  0  0  0  0
 18 19  1  0  0  0  0
 18 49  1  0  0  0  0
 18 50  1  0  0  0  0
 19 20  1  0  0  0  0
 19 51  1  0  0  0  0
 19 52  1  0  0  0  0
 20 53  1  0  0  0  0
 21 22  1  0  0  0  0
 21 23  2  0  0  0  0
 22 54  1  0  0  0  0
 22 55  1  0  0  0  0
 22 56  1  0  0  0  0
 24 25  1  0  0  0  0
 24 57  1  0  0  0  0
 25 26  2  0  0  0  0
 26 27  1  0  0  0  0
 27 28  1  0  0  0  0
 28 29  1  0  0  0  0
 28 58  1  0  0  0  0
 29 30  2  0  0  0  0
 29 31  1  0  0  0  0
 31 32  1  0  0  0  0
 31 59  1  0  0  0  0
 32 33  1  0  0  0  0
 32 34  1  0  0  0  0
 32 35  1  0  0  0  0
 33 60  1  0  0  0  0
 33 61  1  0  0  0  0
 33 62  1  0  0  0  0
 34 63  1  0  0  0  0
 34 64  1  0  0  0  0
 34 65  1  0  0  0  0
 35 66  1  0  0  0  0
 35 67  1  0  0  0  0
 35 68  1  0  0  0  0
 36 69  1  0  0  0  0
M  END
$$$$
