CHEMBL518174
 OpenBabel04072215383D

 67 71  0  0  1  0  0  0  0  0999 V2000
    3.8327    0.3643    0.5321 C   0  0  0  0  0  0  0  0  0  0  0  0
    5.1459    0.2750   -0.0253 O   0  0  0  0  0  0  0  0  0  0  0  0
    5.3105   -0.7400   -0.9292 C   0  0  0  0  0  0  0  0  0  0  0  0
    4.2831   -1.2937   -1.6769 C   0  0  0  0  0  0  0  0  0  0  0  0
    4.5537   -2.3456   -2.5435 C   0  0  0  0  0  0  0  0  0  0  0  0
    5.8751   -2.7953   -2.7718 C   0  0  0  0  0  0  0  0  0  0  0  0
    6.2405   -3.7543   -3.7486 C   0  0  0  0  0  0  0  0  0  0  0  0
    5.3690   -4.3673   -4.6351 O   0  0  0  0  0  0  0  0  0  0  0  0
    4.4931   -3.6109   -5.3857 C   0  0  0  0  0  0  0  0  0  0  0  0
    4.6412   -2.2500   -5.6347 C   0  0  0  0  0  0  0  0  0  0  0  0
    3.6076   -1.5297   -6.2444 C   0  0  0  0  0  0  0  0  0  0  0  0
    2.4419   -2.1548   -6.7022 C   0  0  0  0  0  0  0  0  0  0  0  0
    1.3757   -1.4481   -7.3256 N   0  0  0  0  0  0  0  0  0  0  0  0
    1.2971   -0.0705   -7.4673 C   0  0  0  0  0  0  0  0  0  0  0  0
    2.0730    0.7285   -6.9527 O   0  0  0  0  0  0  0  0  0  0  0  0
    0.1914    0.4378   -8.3050 C   0  0  0  0  0  0  0  0  0  0  0  0
    0.0421    1.6864   -8.7994 C   0  0  0  0  0  0  0  0  0  0  0  0
    0.9837    2.8459   -8.6498 C   0  0  0  0  0  0  0  0  0  0  0  0
   -1.1272    1.7993   -9.5508 N   0  0  0  0  0  0  0  0  0  0  0  0
   -1.5757    2.9263  -10.3683 C   0  0  0  0  0  0  0  0  0  0  0  0
   -2.6740    3.7535   -9.6675 C   0  0  1  0  0  0  0  0  0  0  0  0
   -2.1998    4.4543   -8.3982 C   0  0  0  0  0  0  0  0  0  0  0  0
   -3.1954    4.7376  -10.5702 O   0  0  0  0  0  0  0  0  0  0  0  0
   -1.6520    0.4954   -9.7180 N   0  0  0  0  0  0  0  0  0  0  0  0
   -2.9936    0.3099  -10.1037 C   0  0  0  0  0  0  0  0  0  0  0  0
   -4.0433    0.2841   -9.1821 C   0  0  0  0  0  0  0  0  0  0  0  0
   -5.3577    0.1143   -9.6306 C   0  0  0  0  0  0  0  0  0  0  0  0
   -5.6220   -0.0536  -10.9919 C   0  0  0  0  0  0  0  0  0  0  0  0
   -4.5738   -0.0430  -11.9106 C   0  0  0  0  0  0  0  0  0  0  0  0
   -3.2637    0.1432  -11.4676 C   0  0  0  0  0  0  0  0  0  0  0  0
   -0.9928   -0.3211   -8.7854 C   0  0  0  0  0  0  0  0  0  0  0  0
   -1.2566   -1.4565   -8.4148 O   0  0  0  0  0  0  0  0  0  0  0  0
    2.3446   -3.5407   -6.5494 C   0  0  0  0  0  0  0  0  0  0  0  0
    3.3587   -4.2527   -5.8906 C   0  0  0  0  0  0  0  0  0  0  0  0
    3.2086   -5.5748   -5.7201 F   0  0  0  0  0  0  0  0  0  0  0  0
    7.5593   -4.1855   -3.8339 C   0  0  0  0  0  0  0  0  0  0  0  0
    8.4835   -3.6066   -2.9892 C   0  0  0  0  0  0  0  0  0  0  0  0
    8.1877   -2.6378   -2.1053 N   0  0  0  0  0  0  0  0  0  0  0  0
    6.9153   -2.2339   -1.9961 C   0  0  0  0  0  0  0  0  0  0  0  0
    6.6117   -1.2187   -1.0960 C   0  0  0  0  0  0  0  0  0  0  0  0
    3.8651    1.0788    1.3590 H   0  0  0  0  0  0  0  0  0  0  0  0
    3.5138   -0.6033    0.9334 H   0  0  0  0  0  0  0  0  0  0  0  0
    3.1177    0.7402   -0.2044 H   0  0  0  0  0  0  0  0  0  0  0  0
    3.2653   -0.9232   -1.6276 H   0  0  0  0  0  0  0  0  0  0  0  0
    3.7129   -2.7833   -3.0738 H   0  0  0  0  0  0  0  0  0  0  0  0
    5.5162   -1.6994   -5.2999 H   0  0  0  0  0  0  0  0  0  0  0  0
    3.7591   -0.4590   -6.3244 H   0  0  0  0  0  0  0  0  0  0  0  0
    0.5918   -1.9994   -7.6762 H   0  0  0  0  0  0  0  0  0  0  0  0
    1.9548    2.5759   -8.2342 H   0  0  0  0  0  0  0  0  0  0  0  0
    0.5538    3.6107   -7.9977 H   0  0  0  0  0  0  0  0  0  0  0  0
    1.2020    3.2983   -9.6215 H   0  0  0  0  0  0  0  0  0  0  0  0
   -1.9418    2.5833  -11.3428 H   0  0  0  0  0  0  0  0  0  0  0  0
   -0.7390    3.5876  -10.6242 H   0  0  0  0  0  0  0  0  0  0  0  0
   -3.5117    3.1019   -9.4079 H   0  0  0  0  0  0  0  0  0  0  0  0
   -1.5103    5.2739   -8.6288 H   0  0  0  0  0  0  0  0  0  0  0  0
   -1.7152    3.7655   -7.7026 H   0  0  0  0  0  0  0  0  0  0  0  0
   -3.0533    4.8997   -7.8761 H   0  0  0  0  0  0  0  0  0  0  0  0
   -2.6152    5.5181  -10.5497 H   0  0  0  0  0  0  0  0  0  0  0  0
   -3.8542    0.4258   -8.1220 H   0  0  0  0  0  0  0  0  0  0  0  0
   -6.1806    0.1206   -8.9195 H   0  0  0  0  0  0  0  0  0  0  0  0
   -6.6449   -0.1888  -11.3368 H   0  0  0  0  0  0  0  0  0  0  0  0
   -4.7731   -0.1847  -12.9703 H   0  0  0  0  0  0  0  0  0  0  0  0
   -2.4491    0.1445  -12.1884 H   0  0  0  0  0  0  0  0  0  0  0  0
    1.4811   -4.0934   -6.9093 H   0  0  0  0  0  0  0  0  0  0  0  0
    7.8571   -4.9510   -4.5444 H   0  0  0  0  0  0  0  0  0  0  0  0
    9.5283   -3.9113   -3.0149 H   0  0  0  0  0  0  0  0  0  0  0  0
    7.4167   -0.7855   -0.5063 H   0  0  0  0  0  0  0  0  0  0  0  0
  1  2  1  0  0  0  0
  1 41  1  0  0  0  0
  1 42  1  0  0  0  0
  1 43  1  0  0  0  0
  2  3  1  0  0  0  0
  3  4  1  0  0  0  0
  3 40  2  0  0  0  0
  4  5  2  0  0  0  0
  4 44  1  0  0  0  0
  5  6  1  0  0  0  0
  5 45  1  0  0  0  0
  6  7  1  0  0  0  0
  6 39  2  0  0  0  0
  7  8  1  0  0  0  0
  7 36  2  0  0  0  0
  8  9  1  0  0  0  0
  9 10  1  0  0  0  0
  9 34  2  0  0  0  0
 10 11  2  0  0  0  0
 10 46  1  0  0  0  0
 11 12  1  0  0  0  0
 11 47  1  0  0  0  0
 12 13  1  0  0  0  0
 12 33  2  0  0  0  0
 13 14  1  0  0  0  0
 13 48  1  0  0  0  0
 14 15  2  0  0  0  0
 14 16  1  0  0  0  0
 16 17  2  0  0  0  0
 16 31  1  0  0  0  0
 17 18  1  0  0  0  0
 17 19  1  0  0  0  0
 18 49  1  0  0  0  0
 18 50  1  0  0  0  0
 18 51  1  0  0  0  0
 19 20  1  0  0  0  0
 19 24  1  0  0  0  0
 20 21  1  0  0  0  0
 20 52  1  0  0  0  0
 20 53  1  0  0  0  0
 21 22  1  0  0  0  0
 21 23  1  0  0  0  0
 21 54  1  1  0  0  0
 22 55  1  0  0  0  0
 22 56  1  0  0  0  0
 22 57  1  0  0  0  0
 23 58  1  0  0  0  0
 24 25  1  0  0  0  0
 24 31  1  0  0  0  0
 25 26  1  0  0  0  0
 25 30  2  0  0  0  0
 26 27  2  0  0  0  0
 26 59  1  0  0  0  0
 27 28  1  0  0  0  0
 27 60  1  0  0  0  0
 28 29  2  0  0  0  0
 28 61  1  0  0  0  0
 29 30  1  0  0  0  0
 29 62  1  0  0  0  0
 30 63  1  0  0  0  0
 31 32  2  0  0  0  0
 33 34  1  0  0  0  0
 33 64  1  0  0  0  0
 34 35  1  0  0  0  0
 36 37  1  0  0  0  0
 36 65  1  0  0  0  0
 37 38  2  0  0  0  0
 37 66  1  0  0  0  0
 38 39  1  0  0  0  0
 39 40  1  0  0  0  0
 40 67  1  0  0  0  0
M  END
$$$$
