CHEMBL1241581
 OpenBabel04072215363D

 44 47  0  0  0  0  0  0  0  0999 V2000
    4.4525   -5.4310   -1.8842 C   0  0  0  0  0  0  0  0  0  0  0  0
    3.8779   -4.1467   -2.1061 O   0  0  0  0  0  0  0  0  0  0  0  0
    4.0057   -3.2559   -1.0645 C   0  0  0  0  0  0  0  0  0  0  0  0
    5.0144   -3.3253   -0.0969 C   0  0  0  0  0  0  0  0  0  0  0  0
    5.0738   -2.3898    0.9450 C   0  0  0  0  0  0  0  0  0  0  0  0
    6.1031   -2.5178    1.9792 C   0  0  0  0  0  0  0  0  0  0  0  0
    7.3468   -2.9135    1.6484 N   0  0  0  0  0  0  0  0  0  0  0  0
    8.0298   -2.8949    2.8137 N   0  0  0  0  0  0  0  0  0  0  0  0
    9.4392   -3.2229    2.8393 C   0  0  0  0  0  0  0  0  0  0  0  0
   10.3036   -2.3256    1.9496 C   0  0  0  0  0  0  0  0  0  0  0  0
   11.5747   -3.1296    1.6849 C   0  0  0  0  0  0  0  0  0  0  0  0
   11.2645   -4.5773    2.0627 C   0  0  0  0  0  0  0  0  0  0  0  0
    9.7666   -4.6286    2.3340 C   0  0  0  0  0  0  0  0  0  0  0  0
    7.2555   -2.5486    3.8865 C   0  0  0  0  0  0  0  0  0  0  0  0
    7.6460   -2.4648    5.1724 N   0  0  0  0  0  0  0  0  0  0  0  0
    6.6260   -2.1113    5.9697 C   0  0  0  0  0  0  0  0  0  0  0  0
    5.3466   -1.8730    5.6251 N   0  0  0  0  0  0  0  0  0  0  0  0
    4.9978   -1.9754    4.3258 C   0  0  0  0  0  0  0  0  0  0  0  0
    3.6589   -1.7514    4.0383 N   0  0  0  0  0  0  0  0  0  0  0  0
    5.9830   -2.3145    3.3878 C   0  0  0  0  0  0  0  0  0  0  0  0
    4.1473   -1.3426    0.9651 C   0  0  0  0  0  0  0  0  0  0  0  0
    3.1439   -1.2624   -0.0036 C   0  0  0  0  0  0  0  0  0  0  0  0
    3.0393   -2.2329   -1.0025 C   0  0  0  0  0  0  0  0  0  0  0  0
    2.1085   -2.0524   -2.0412 N   0  0  0  0  0  0  0  0  0  0  0  0
    4.1429   -6.0848   -2.7046 H   0  0  0  0  0  0  0  0  0  0  0  0
    4.0842   -5.8698   -0.9499 H   0  0  0  0  0  0  0  0  0  0  0  0
    5.5463   -5.3869   -1.8942 H   0  0  0  0  0  0  0  0  0  0  0  0
    5.7813   -4.0927   -0.1417 H   0  0  0  0  0  0  0  0  0  0  0  0
    9.7919   -3.1318    3.8748 H   0  0  0  0  0  0  0  0  0  0  0  0
   10.5208   -1.3658    2.4295 H   0  0  0  0  0  0  0  0  0  0  0  0
    9.8099   -2.1049    0.9955 H   0  0  0  0  0  0  0  0  0  0  0  0
   12.4090   -2.7519    2.2865 H   0  0  0  0  0  0  0  0  0  0  0  0
   11.8699   -3.0476    0.6330 H   0  0  0  0  0  0  0  0  0  0  0  0
   11.8222   -4.8490    2.9666 H   0  0  0  0  0  0  0  0  0  0  0  0
   11.5589   -5.2775    1.2741 H   0  0  0  0  0  0  0  0  0  0  0  0
    9.5108   -5.4021    3.0666 H   0  0  0  0  0  0  0  0  0  0  0  0
    9.2300   -4.8625    1.4068 H   0  0  0  0  0  0  0  0  0  0  0  0
    6.8585   -2.0081    7.0258 H   0  0  0  0  0  0  0  0  0  0  0  0
    3.1078   -1.7583    4.8887 H   0  0  0  0  0  0  0  0  0  0  0  0
    3.2876   -2.3012    3.2738 H   0  0  0  0  0  0  0  0  0  0  0  0
    4.2018   -0.5636    1.7227 H   0  0  0  0  0  0  0  0  0  0  0  0
    2.4455   -0.4303    0.0257 H   0  0  0  0  0  0  0  0  0  0  0  0
    1.2513   -1.5896   -1.7629 H   0  0  0  0  0  0  0  0  0  0  0  0
    1.9597   -2.9155   -2.5600 H   0  0  0  0  0  0  0  0  0  0  0  0
  1  2  1  0  0  0  0
  1 25  1  0  0  0  0
  1 26  1  0  0  0  0
  1 27  1  0  0  0  0
  2  3  1  0  0  0  0
  3  4  1  0  0  0  0
  3 23  2  0  0  0  0
  4  5  2  0  0  0  0
  4 28  1  0  0  0  0
  5  6  1  0  0  0  0
  5 21  1  0  0  0  0
  6  7  2  0  0  0  0
  6 20  1  0  0  0  0
  7  8  1  0  0  0  0
  8  9  1  0  0  0  0
  8 14  1  0  0  0  0
  9 10  1  0  0  0  0
  9 13  1  0  0  0  0
  9 29  1  0  0  0  0
 10 11  1  0  0  0  0
 10 30  1  0  0  0  0
 10 31  1  0  0  0  0
 11 12  1  0  0  0  0
 11 32  1  0  0  0  0
 11 33  1  0  0  0  0
 12 13  1  0  0  0  0
 12 34  1  0  0  0  0
 12 35  1  0  0  0  0
 13 36  1  0  0  0  0
 13 37  1  0  0  0  0
 14 15  1  0  0  0  0
 14 20  2  0  0  0  0
 15 16  2  0  0  0  0
 16 17  1  0  0  0  0
 16 38  1  0  0  0  0
 17 18  2  0  0  0  0
 18 19  1  0  0  0  0
 18 20  1  0  0  0  0
 19 39  1  0  0  0  0
 19 40  1  0  0  0  0
 21 22  2  0  0  0  0
 21 41  1  0  0  0  0
 22 23  1  0  0  0  0
 22 42  1  0  0  0  0
 23 24  1  0  0  0  0
 24 43  1  0  0  0  0
 24 44  1  0  0  0  0
M  END
$$$$
