CHEMBL478611
 OpenBabel04072215383D

 39 41  0  0  1  0  0  0  0  0999 V2000
    0.2803   -1.8985   -2.5091 O   0  0  0  0  0  0  0  0  0  0  0  0
   -0.5775   -1.0429   -1.8779 C   0  0  0  0  0  0  0  0  0  0  0  0
   -1.7153   -1.5240   -1.2332 C   0  0  0  0  0  0  0  0  0  0  0  0
   -2.5796   -0.6399   -0.5680 C   0  0  0  0  0  0  0  0  0  0  0  0
   -2.3298    0.7344   -0.5614 C   0  0  0  0  0  0  0  0  0  0  0  0
   -3.1438    1.7926    0.1542 C   0  0  0  0  0  0  0  0  0  0  0  0
   -4.5769    1.6208    0.7523 C   0  0  1  0  0  0  0  0  0  0  0  0
   -4.5113    0.7629    1.9051 O   0  0  0  0  0  0  0  0  0  0  0  0
   -5.0572    3.0199    1.2178 C   0  0  0  0  0  0  0  0  0  0  0  0
   -5.3102    3.9623    0.1639 O   0  0  0  0  0  0  0  0  0  0  0  0
   -5.6111    3.4720   -1.0817 C   0  0  0  0  0  0  0  0  0  0  0  0
   -5.7913    2.1037   -1.3426 C   0  0  0  0  0  0  0  0  0  0  0  0
   -5.9926    1.6671   -2.6628 C   0  0  0  0  0  0  0  0  0  0  0  0
   -6.0002    2.5782   -3.7200 C   0  0  0  0  0  0  0  0  0  0  0  0
   -5.8255    3.9290   -3.4513 C   0  0  0  0  0  0  0  0  0  0  0  0
   -5.7976    4.8604   -4.4538 O   0  0  0  0  0  0  0  0  0  0  0  0
   -5.6411    4.3773   -2.1434 C   0  0  0  0  0  0  0  0  0  0  0  0
   -5.4446    5.7156   -1.9272 O   0  0  0  0  0  0  0  0  0  0  0  0
   -5.7148    1.1597   -0.1803 C   0  0  1  0  0  0  0  0  0  0  0  0
   -5.5853   -0.2093   -0.5504 O   0  0  0  0  0  0  0  0  0  0  0  0
   -1.1666    1.1970   -1.2211 C   0  0  0  0  0  0  0  0  0  0  0  0
   -0.3036    0.3186   -1.8722 C   0  0  0  0  0  0  0  0  0  0  0  0
    0.8193    0.7878   -2.4944 O   0  0  0  0  0  0  0  0  0  0  0  0
   -0.0093   -2.8091   -2.3499 H   0  0  0  0  0  0  0  0  0  0  0  0
   -1.9462   -2.5843   -1.2298 H   0  0  0  0  0  0  0  0  0  0  0  0
   -3.4434   -1.0622   -0.0697 H   0  0  0  0  0  0  0  0  0  0  0  0
   -3.1648    2.6470   -0.5340 H   0  0  0  0  0  0  0  0  0  0  0  0
   -2.5039    2.1064    0.9942 H   0  0  0  0  0  0  0  0  0  0  0  0
   -4.4827   -0.1477    1.5574 H   0  0  0  0  0  0  0  0  0  0  0  0
   -4.3104    3.4681    1.8851 H   0  0  0  0  0  0  0  0  0  0  0  0
   -5.9683    2.9370    1.8250 H   0  0  0  0  0  0  0  0  0  0  0  0
   -6.1022    0.6083   -2.8849 H   0  0  0  0  0  0  0  0  0  0  0  0
   -6.1221    2.2122   -4.7345 H   0  0  0  0  0  0  0  0  0  0  0  0
   -5.8644    4.3919   -5.3039 H   0  0  0  0  0  0  0  0  0  0  0  0
   -5.4914    6.1191   -2.8155 H   0  0  0  0  0  0  0  0  0  0  0  0
   -6.6666    1.2146    0.3690 H   0  0  0  0  0  0  0  0  0  0  0  0
   -6.4722   -0.4990   -0.8303 H   0  0  0  0  0  0  0  0  0  0  0  0
   -0.9396    2.2608   -1.2077 H   0  0  0  0  0  0  0  0  0  0  0  0
    0.8610    1.7494   -2.3807 H   0  0  0  0  0  0  0  0  0  0  0  0
  1  2  1  0  0  0  0
  1 24  1  0  0  0  0
  2  3  1  0  0  0  0
  2 22  2  0  0  0  0
  3  4  2  0  0  0  0
  3 25  1  0  0  0  0
  4  5  1  0  0  0  0
  4 26  1  0  0  0  0
  5  6  1  0  0  0  0
  5 21  2  0  0  0  0
  6  7  1  0  0  0  0
  6 27  1  0  0  0  0
  6 28  1  0  0  0  0
  7  8  1  1  0  0  0
  7  9  1  0  0  0  0
  7 19  1  0  0  0  0
  8 29  1  0  0  0  0
  9 10  1  0  0  0  0
  9 30  1  0  0  0  0
  9 31  1  0  0  0  0
 10 11  1  0  0  0  0
 11 12  1  0  0  0  0
 11 17  2  0  0  0  0
 12 13  2  0  0  0  0
 12 19  1  0  0  0  0
 13 14  1  0  0  0  0
 13 32  1  0  0  0  0
 14 15  2  0  0  0  0
 14 33  1  0  0  0  0
 15 16  1  0  0  0  0
 15 17  1  0  0  0  0
 16 34  1  0  0  0  0
 17 18  1  0  0  0  0
 18 35  1  0  0  0  0
 19 20  1  0  0  0  0
 19 36  1  1  0  0  0
 20 37  1  0  0  0  0
 21 22  1  0  0  0  0
 21 38  1  0  0  0  0
 22 23  1  0  0  0  0
 23 39  1  0  0  0  0
M  END
$$$$
