CHEMBL3890891
 OpenBabel04072215373D

 65 68  0  0  0  0  0  0  0  0999 V2000
    6.2063   -5.7496   -7.3903 C   0  0  0  0  0  0  0  0  0  0  0  0
    5.8172   -4.3768   -7.3330 O   0  0  0  0  0  0  0  0  0  0  0  0
    6.7619   -3.5548   -6.7900 C   0  0  0  0  0  0  0  0  0  0  0  0
    7.8763   -3.9104   -6.4234 O   0  0  0  0  0  0  0  0  0  0  0  0
    6.2500   -2.1151   -6.7634 C   0  0  0  0  0  0  0  0  0  0  0  0
    6.8632   -1.3828   -5.6409 N   0  0  0  0  0  0  0  0  0  0  0  0
    6.4290    0.0190   -5.6155 C   0  0  0  0  0  0  0  0  0  0  0  0
    7.0559    0.7574   -4.4241 C   0  0  0  0  0  0  0  0  0  0  0  0
    8.5068    0.7871   -4.4958 N   0  0  0  0  0  0  0  0  0  0  0  0
    9.2080    1.7707   -5.1562 C   0  0  0  0  0  0  0  0  0  0  0  0
    8.6227    2.7041   -5.7174 O   0  0  0  0  0  0  0  0  0  0  0  0
   10.6532    1.6409   -5.1398 C   0  0  0  0  0  0  0  0  0  0  0  0
   11.5675    2.5379   -5.6475 C   0  0  0  0  0  0  0  0  0  0  0  0
   12.9164    2.1253   -5.4586 C   0  0  0  0  0  0  0  0  0  0  0  0
   14.0040    2.8353   -5.8585 N   0  0  0  0  0  0  0  0  0  0  0  0
   15.1983    2.2898   -5.5687 C   0  0  0  0  0  0  0  0  0  0  0  0
   15.3840    1.0833   -4.9230 C   0  0  0  0  0  0  0  0  0  0  0  0
   14.2667    0.3167   -4.5797 C   0  0  0  0  0  0  0  0  0  0  0  0
   14.3714   -0.9411   -4.0013 O   0  0  0  0  0  0  0  0  0  0  0  0
   15.3040   -1.8226   -4.5203 C   0  0  0  0  0  0  0  0  0  0  0  0
   15.7368   -1.7766   -5.8435 C   0  0  0  0  0  0  0  0  0  0  0  0
   16.7812   -2.5948   -6.2666 C   0  0  0  0  0  0  0  0  0  0  0  0
   17.3751   -3.5131   -5.4036 C   0  0  0  0  0  0  0  0  0  0  0  0
   18.4885   -4.2958   -5.8107 N   0  0  0  0  0  0  0  0  0  0  0  0
   19.3742   -3.8656   -6.7816 C   0  0  0  0  0  0  0  0  0  0  0  0
   19.3480   -2.7429   -7.2807 O   0  0  0  0  0  0  0  0  0  0  0  0
   20.2856   -4.8406   -7.1647 N   0  0  0  0  0  0  0  0  0  0  0  0
   21.1771   -4.5131   -8.2249 C   0  0  0  0  0  0  0  0  0  0  0  0
   21.9265   -3.3293   -8.1940 C   0  0  0  0  0  0  0  0  0  0  0  0
   22.6276   -2.8951   -9.3261 C   0  0  0  0  0  0  0  0  0  0  0  0
   23.3597   -1.5849   -9.3099 C   0  0  0  0  0  0  0  0  0  0  0  0
   22.5774   -3.6674  -10.4936 C   0  0  0  0  0  0  0  0  0  0  0  0
   21.8818   -4.8802  -10.5098 C   0  0  0  0  0  0  0  0  0  0  0  0
   21.2059   -5.3067   -9.3698 C   0  0  0  0  0  0  0  0  0  0  0  0
   20.4924   -6.4425   -9.4141 F   0  0  0  0  0  0  0  0  0  0  0  0
   16.8375   -3.6480   -4.1177 C   0  0  0  0  0  0  0  0  0  0  0  0
   17.3464   -4.5644   -3.2802 F   0  0  0  0  0  0  0  0  0  0  0  0
   15.8156   -2.8039   -3.6675 C   0  0  0  0  0  0  0  0  0  0  0  0
   13.0057    0.8876   -4.8210 C   0  0  0  0  0  0  0  0  0  0  0  0
   11.4402    0.2773   -4.4572 S   0  0  0  0  0  0  0  0  0  0  0  0
    5.4071   -6.3077   -7.8857 H   0  0  0  0  0  0  0  0  0  0  0  0
    6.3345   -6.1510   -6.3800 H   0  0  0  0  0  0  0  0  0  0  0  0
    7.1238   -5.8682   -7.9751 H   0  0  0  0  0  0  0  0  0  0  0  0
    5.1620   -2.1289   -6.6387 H   0  0  0  0  0  0  0  0  0  0  0  0
    6.5053   -1.6547   -7.7240 H   0  0  0  0  0  0  0  0  0  0  0  0
    7.8794   -1.4282   -5.7443 H   0  0  0  0  0  0  0  0  0  0  0  0
    5.3390    0.0665   -5.5133 H   0  0  0  0  0  0  0  0  0  0  0  0
    6.7080    0.5177   -6.5514 H   0  0  0  0  0  0  0  0  0  0  0  0
    6.7938    0.2655   -3.4830 H   0  0  0  0  0  0  0  0  0  0  0  0
    6.6796    1.7854   -4.3859 H   0  0  0  0  0  0  0  0  0  0  0  0
    9.0215    0.0035   -4.1076 H   0  0  0  0  0  0  0  0  0  0  0  0
   11.2853    3.4665   -6.1284 H   0  0  0  0  0  0  0  0  0  0  0  0
   16.0557    2.8729   -5.8986 H   0  0  0  0  0  0  0  0  0  0  0  0
   16.3937    0.7299   -4.7369 H   0  0  0  0  0  0  0  0  0  0  0  0
   15.3081   -1.0811   -6.5608 H   0  0  0  0  0  0  0  0  0  0  0  0
   17.1141   -2.4731   -7.2972 H   0  0  0  0  0  0  0  0  0  0  0  0
   18.8307   -4.9865   -5.1513 H   0  0  0  0  0  0  0  0  0  0  0  0
   19.8820   -5.7687   -7.2209 H   0  0  0  0  0  0  0  0  0  0  0  0
   21.9181   -2.7118   -7.2976 H   0  0  0  0  0  0  0  0  0  0  0  0
   23.3977   -1.1593   -8.3010 H   0  0  0  0  0  0  0  0  0  0  0  0
   22.8578   -0.8627   -9.9618 H   0  0  0  0  0  0  0  0  0  0  0  0
   24.3911   -1.7229   -9.6487 H   0  0  0  0  0  0  0  0  0  0  0  0
   23.0666   -3.3173  -11.4002 H   0  0  0  0  0  0  0  0  0  0  0  0
   21.8291   -5.4713  -11.4183 H   0  0  0  0  0  0  0  0  0  0  0  0
   15.4481   -2.9044   -2.6538 H   0  0  0  0  0  0  0  0  0  0  0  0
  1  2  1  0  0  0  0
  1 41  1  0  0  0  0
  1 42  1  0  0  0  0
  1 43  1  0  0  0  0
  2  3  1  0  0  0  0
  3  4  2  0  0  0  0
  3  5  1  0  0  0  0
  5  6  1  0  0  0  0
  5 44  1  0  0  0  0
  5 45  1  0  0  0  0
  6  7  1  0  0  0  0
  6 46  1  0  0  0  0
  7  8  1  0  0  0  0
  7 47  1  0  0  0  0
  7 48  1  0  0  0  0
  8  9  1  0  0  0  0
  8 49  1  0  0  0  0
  8 50  1  0  0  0  0
  9 10  1  0  0  0  0
  9 51  1  0  0  0  0
 10 11  2  0  0  0  0
 10 12  1  0  0  0  0
 12 13  2  0  0  0  0
 12 40  1  0  0  0  0
 13 14  1  0  0  0  0
 13 52  1  0  0  0  0
 14 15  1  0  0  0  0
 14 39  2  0  0  0  0
 15 16  2  0  0  0  0
 16 17  1  0  0  0  0
 16 53  1  0  0  0  0
 17 18  2  0  0  0  0
 17 54  1  0  0  0  0
 18 19  1  0  0  0  0
 18 39  1  0  0  0  0
 19 20  1  0  0  0  0
 20 21  1  0  0  0  0
 20 38  2  0  0  0  0
 21 22  2  0  0  0  0
 21 55  1  0  0  0  0
 22 23  1  0  0  0  0
 22 56  1  0  0  0  0
 23 24  1  0  0  0  0
 23 36  2  0  0  0  0
 24 25  1  0  0  0  0
 24 57  1  0  0  0  0
 25 26  2  0  0  0  0
 25 27  1  0  0  0  0
 27 28  1  0  0  0  0
 27 58  1  0  0  0  0
 28 29  1  0  0  0  0
 28 34  2  0  0  0  0
 29 30  2  0  0  0  0
 29 59  1  0  0  0  0
 30 31  1  0  0  0  0
 30 32  1  0  0  0  0
 31 60  1  0  0  0  0
 31 61  1  0  0  0  0
 31 62  1  0  0  0  0
 32 33  2  0  0  0  0
 32 63  1  0  0  0  0
 33 34  1  0  0  0  0
 33 64  1  0  0  0  0
 34 35  1  0  0  0  0
 36 37  1  0  0  0  0
 36 38  1  0  0  0  0
 38 65  1  0  0  0  0
 39 40  1  0  0  0  0
M  END
$$$$
