CHEMBL189305
 OpenBabel04072215363D

 63 66  0  0  0  0  0  0  0  0999 V2000
    1.1988   -0.1246   -0.1422 C   0  0  0  0  0  0  0  0  0  0  0  0
    2.6455    0.0786    0.0114 N   0  0  0  0  0  0  0  0  0  0  0  0
    3.3301   -0.8437    0.8225 C   0  0  0  0  0  0  0  0  0  0  0  0
    2.9358   -2.1797    0.9168 C   0  0  0  0  0  0  0  0  0  0  0  0
    3.6591   -3.0936    1.6818 C   0  0  0  0  0  0  0  0  0  0  0  0
    4.7984   -2.6994    2.3792 C   0  0  0  0  0  0  0  0  0  0  0  0
    5.5666   -3.5833    3.1629 N   0  0  0  0  0  0  0  0  0  0  0  0
    5.3322   -4.9381    3.3471 C   0  0  0  0  0  0  0  0  0  0  0  0
    4.4484   -5.6079    2.8184 O   0  0  0  0  0  0  0  0  0  0  0  0
    6.2900   -5.5852    4.3312 C   0  0  0  0  0  0  0  0  0  0  0  0
    5.8143   -5.4447    5.7555 C   0  0  0  0  0  0  0  0  0  0  0  0
    4.5828   -5.9890    6.1491 C   0  0  0  0  0  0  0  0  0  0  0  0
    4.1254   -5.8364    7.4567 C   0  0  0  0  0  0  0  0  0  0  0  0
    4.8996   -5.1479    8.3870 C   0  0  0  0  0  0  0  0  0  0  0  0
    6.1330   -4.6158    8.0136 C   0  0  0  0  0  0  0  0  0  0  0  0
    6.5915   -4.7651    6.6997 C   0  0  0  0  0  0  0  0  0  0  0  0
    5.1992   -1.3625    2.3091 C   0  0  0  0  0  0  0  0  0  0  0  0
    4.4670   -0.4457    1.5452 C   0  0  0  0  0  0  0  0  0  0  0  0
    3.2097    0.8125   -1.0642 C   0  0  0  0  0  0  0  0  0  0  0  0
    4.5026    0.5842   -1.4934 C   0  0  0  0  0  0  0  0  0  0  0  0
    4.9614    1.3562   -2.5365 C   0  0  0  0  0  0  0  0  0  0  0  0
    4.2286    2.3066   -3.1366 N   0  0  0  0  0  0  0  0  0  0  0  0
    2.9872    2.4728   -2.6678 C   0  0  0  0  0  0  0  0  0  0  0  0
    2.2251    3.4873   -3.2593 N   0  0  0  0  0  0  0  0  0  0  0  0
    1.2806    4.2897   -2.5922 C   0  0  0  0  0  0  0  0  0  0  0  0
    0.2550    4.8876   -3.3234 C   0  0  0  0  0  0  0  0  0  0  0  0
   -0.6995    5.6805   -2.6839 C   0  0  0  0  0  0  0  0  0  0  0  0
   -0.6219    5.9036   -1.3083 C   0  0  0  0  0  0  0  0  0  0  0  0
    0.4232    5.3535   -0.5579 C   0  0  0  0  0  0  0  0  0  0  0  0
    0.5720    5.6355    0.9129 C   0  0  0  0  0  0  0  0  0  0  0  0
   -0.3296    4.4737    1.9300 S   0  0  0  0  0  0  0  0  0  0  0  0
    0.3436    2.8853    1.5246 C   0  0  0  0  0  0  0  0  0  0  0  0
    0.0427    4.7413    3.3093 O   0  0  0  0  0  0  0  0  0  0  0  0
   -1.7295    4.4792    1.5471 O   0  0  0  0  0  0  0  0  0  0  0  0
    1.3711    4.5600   -1.2192 C   0  0  0  0  0  0  0  0  0  0  0  0
    2.4604    1.7527   -1.6650 N   0  0  0  0  0  0  0  0  0  0  0  0
    0.7573   -0.6262    0.7288 H   0  0  0  0  0  0  0  0  0  0  0  0
    0.9700   -0.7153   -1.0362 H   0  0  0  0  0  0  0  0  0  0  0  0
    0.6662    0.8234   -0.2241 H   0  0  0  0  0  0  0  0  0  0  0  0
    2.0729   -2.5507    0.3708 H   0  0  0  0  0  0  0  0  0  0  0  0
    3.2949   -4.1142    1.6993 H   0  0  0  0  0  0  0  0  0  0  0  0
    6.3419   -3.1753    3.6685 H   0  0  0  0  0  0  0  0  0  0  0  0
    7.2906   -5.1568    4.1996 H   0  0  0  0  0  0  0  0  0  0  0  0
    6.3785   -6.6484    4.0765 H   0  0  0  0  0  0  0  0  0  0  0  0
    3.9629   -6.5270    5.4302 H   0  0  0  0  0  0  0  0  0  0  0  0
    3.1641   -6.2526    7.7477 H   0  0  0  0  0  0  0  0  0  0  0  0
    4.5406   -5.0233    9.4055 H   0  0  0  0  0  0  0  0  0  0  0  0
    6.7354   -4.0837    8.7413 H   0  0  0  0  0  0  0  0  0  0  0  0
    7.5558   -4.3456    6.4299 H   0  0  0  0  0  0  0  0  0  0  0  0
    6.0826   -1.0102    2.8365 H   0  0  0  0  0  0  0  0  0  0  0  0
    4.7904    0.5935    1.5151 H   0  0  0  0  0  0  0  0  0  0  0  0
    5.1407   -0.1814   -1.0711 H   0  0  0  0  0  0  0  0  0  0  0  0
    5.9657    1.2235   -2.9237 H   0  0  0  0  0  0  0  0  0  0  0  0
    2.8397    4.0088   -3.8703 H   0  0  0  0  0  0  0  0  0  0  0  0
    0.1716    4.7094   -4.3939 H   0  0  0  0  0  0  0  0  0  0  0  0
   -1.5095    6.1211   -3.2608 H   0  0  0  0  0  0  0  0  0  0  0  0
   -1.3813    6.5207   -0.8285 H   0  0  0  0  0  0  0  0  0  0  0  0
    0.2009    6.6356    1.1568 H   0  0  0  0  0  0  0  0  0  0  0  0
    1.6234    5.5882    1.2166 H   0  0  0  0  0  0  0  0  0  0  0  0
    1.4297    2.9114    1.6314 H   0  0  0  0  0  0  0  0  0  0  0  0
    0.0472    2.6515    0.5043 H   0  0  0  0  0  0  0  0  0  0  0  0
   -0.0761    2.1445    2.2092 H   0  0  0  0  0  0  0  0  0  0  0  0
    2.2005    4.1421   -0.6518 H   0  0  0  0  0  0  0  0  0  0  0  0
  1  2  1  0  0  0  0
  1 37  1  0  0  0  0
  1 38  1  0  0  0  0
  1 39  1  0  0  0  0
  2  3  1  0  0  0  0
  2 19  1  0  0  0  0
  3  4  1  0  0  0  0
  3 18  2  0  0  0  0
  4  5  2  0  0  0  0
  4 40  1  0  0  0  0
  5  6  1  0  0  0  0
  5 41  1  0  0  0  0
  6  7  1  0  0  0  0
  6 17  2  0  0  0  0
  7  8  1  0  0  0  0
  7 42  1  0  0  0  0
  8  9  2  0  0  0  0
  8 10  1  0  0  0  0
 10 11  1  0  0  0  0
 10 43  1  0  0  0  0
 10 44  1  0  0  0  0
 11 12  1  0  0  0  0
 11 16  2  0  0  0  0
 12 13  2  0  0  0  0
 12 45  1  0  0  0  0
 13 14  1  0  0  0  0
 13 46  1  0  0  0  0
 14 15  2  0  0  0  0
 14 47  1  0  0  0  0
 15 16  1  0  0  0  0
 15 48  1  0  0  0  0
 16 49  1  0  0  0  0
 17 18  1  0  0  0  0
 17 50  1  0  0  0  0
 18 51  1  0  0  0  0
 19 20  1  0  0  0  0
 19 36  2  0  0  0  0
 20 21  2  0  0  0  0
 20 52  1  0  0  0  0
 21 22  1  0  0  0  0
 21 53  1  0  0  0  0
 22 23  2  0  0  0  0
 23 24  1  0  0  0  0
 23 36  1  0  0  0  0
 24 25  1  0  0  0  0
 24 54  1  0  0  0  0
 25 26  1  0  0  0  0
 25 35  2  0  0  0  0
 26 27  2  0  0  0  0
 26 55  1  0  0  0  0
 27 28  1  0  0  0  0
 27 56  1  0  0  0  0
 28 29  2  0  0  0  0
 28 57  1  0  0  0  0
 29 30  1  0  0  0  0
 29 35  1  0  0  0  0
 30 31  1  0  0  0  0
 30 58  1  0  0  0  0
 30 59  1  0  0  0  0
 31 32  1  0  0  0  0
 31 33  2  0  0  0  0
 31 34  2  0  0  0  0
 32 60  1  0  0  0  0
 32 61  1  0  0  0  0
 32 62  1  0  0  0  0
 35 63  1  0  0  0  0
M  END
$$$$
