CHEMBL3952636
 OpenBabel04072215373D

 51 54  0  0  0  0  0  0  0  0999 V2000
    1.1242    0.9724    0.1636 O   0  0  0  0  0  0  0  0  0  0  0  0
    2.1991    0.4012    0.0317 C   0  0  0  0  0  0  0  0  0  0  0  0
    2.7516    0.0539   -1.1922 N   0  0  0  0  0  0  0  0  0  0  0  0
    2.1621    0.2545   -2.4646 C   0  0  0  0  0  0  0  0  0  0  0  0
    1.0317    1.0490   -2.6903 C   0  0  0  0  0  0  0  0  0  0  0  0
    0.4549    1.1377   -3.9649 C   0  0  0  0  0  0  0  0  0  0  0  0
    1.0108    0.4388   -5.0346 C   0  0  0  0  0  0  0  0  0  0  0  0
    0.3966    0.5786   -6.2579 O   0  0  0  0  0  0  0  0  0  0  0  0
    0.2306   -0.5660   -7.0346 C   0  0  0  0  0  0  0  0  0  0  0  0
    0.0211   -0.3659   -8.3828 C   0  0  0  0  0  0  0  0  0  0  0  0
   -0.1038   -1.5064   -9.1469 C   0  0  0  0  0  0  0  0  0  0  0  0
   -0.3457   -1.3597  -10.5236 N   0  0  0  0  0  0  0  0  0  0  0  0
   -0.3700   -2.4037  -11.4261 C   0  0  0  0  0  0  0  0  0  0  0  0
   -0.0938   -3.5746  -11.2073 O   0  0  0  0  0  0  0  0  0  0  0  0
   -0.7593   -2.0532  -12.8279 C   0  0  0  0  0  0  0  0  0  0  0  0
   -0.6063   -0.6876  -13.4495 C   0  0  0  0  0  0  0  0  0  0  0  0
   -1.9769   -1.2071  -13.1178 C   0  0  0  0  0  0  0  0  0  0  0  0
   -0.0268   -2.7292   -8.6093 N   0  0  0  0  0  0  0  0  0  0  0  0
    0.1453   -2.8097   -7.2873 C   0  0  0  0  0  0  0  0  0  0  0  0
    0.2475   -1.7760   -6.4509 N   0  0  0  0  0  0  0  0  0  0  0  0
    2.1849   -0.2860   -4.8258 C   0  0  0  0  0  0  0  0  0  0  0  0
    2.8128   -0.8878   -5.8470 F   0  0  0  0  0  0  0  0  0  0  0  0
    2.7489   -0.3944   -3.5542 C   0  0  0  0  0  0  0  0  0  0  0  0
    3.0057   -0.0084    1.0866 N   0  0  0  0  0  0  0  0  0  0  0  0
    2.6821    0.0542    2.4633 C   0  0  0  0  0  0  0  0  0  0  0  0
    1.4417    0.4608    2.9455 C   0  0  0  0  0  0  0  0  0  0  0  0
    1.1905    0.5078    4.3179 C   0  0  0  0  0  0  0  0  0  0  0  0
    2.1717    0.1343    5.2377 C   0  0  0  0  0  0  0  0  0  0  0  0
    1.7399    0.2457    6.9027 Cl  0  0  0  0  0  0  0  0  0  0  0  0
    3.4209   -0.3009    4.7873 C   0  0  0  0  0  0  0  0  0  0  0  0
    4.5352   -0.7585    5.6920 C   0  0  0  0  0  0  0  0  0  0  0  0
    4.3290   -0.6372    7.0279 F   0  0  0  0  0  0  0  0  0  0  0  0
    4.8391   -2.0732    5.4868 F   0  0  0  0  0  0  0  0  0  0  0  0
    5.6941   -0.0809    5.4429 F   0  0  0  0  0  0  0  0  0  0  0  0
    3.6594   -0.3347    3.3887 C   0  0  0  0  0  0  0  0  0  0  0  0
    3.5610   -0.5464   -1.1705 H   0  0  0  0  0  0  0  0  0  0  0  0
    0.5654    1.6189   -1.8916 H   0  0  0  0  0  0  0  0  0  0  0  0
   -0.4329    1.7478   -4.1079 H   0  0  0  0  0  0  0  0  0  0  0  0
   -0.0162    0.6306   -8.7975 H   0  0  0  0  0  0  0  0  0  0  0  0
   -0.5247   -0.4308  -10.8657 H   0  0  0  0  0  0  0  0  0  0  0  0
   -0.6021   -2.8920  -13.5053 H   0  0  0  0  0  0  0  0  0  0  0  0
   -0.3166   -0.6527  -14.4956 H   0  0  0  0  0  0  0  0  0  0  0  0
   -0.2081    0.1360  -12.8731 H   0  0  0  0  0  0  0  0  0  0  0  0
   -2.6165   -1.5219  -13.9364 H   0  0  0  0  0  0  0  0  0  0  0  0
   -2.5187   -0.7657  -12.2902 H   0  0  0  0  0  0  0  0  0  0  0  0
    0.2097   -3.8045   -6.8617 H   0  0  0  0  0  0  0  0  0  0  0  0
    3.6381   -1.0057   -3.4437 H   0  0  0  0  0  0  0  0  0  0  0  0
    3.9404   -0.3043    0.8554 H   0  0  0  0  0  0  0  0  0  0  0  0
    0.6300    0.7513    2.2860 H   0  0  0  0  0  0  0  0  0  0  0  0
    0.2114    0.8407    4.6572 H   0  0  0  0  0  0  0  0  0  0  0  0
    4.6329   -0.6781    3.0379 H   0  0  0  0  0  0  0  0  0  0  0  0
  1  2  2  0  0  0  0
  2  3  1  0  0  0  0
  2 24  1  0  0  0  0
  3  4  1  0  0  0  0
  3 36  1  0  0  0  0
  4  5  1  0  0  0  0
  4 23  2  0  0  0  0
  5  6  2  0  0  0  0
  5 37  1  0  0  0  0
  6  7  1  0  0  0  0
  6 38  1  0  0  0  0
  7  8  1  0  0  0  0
  7 21  2  0  0  0  0
  8  9  1  0  0  0  0
  9 10  1  0  0  0  0
  9 20  2  0  0  0  0
 10 11  2  0  0  0  0
 10 39  1  0  0  0  0
 11 12  1  0  0  0  0
 11 18  1  0  0  0  0
 12 13  1  0  0  0  0
 12 40  1  0  0  0  0
 13 14  2  0  0  0  0
 13 15  1  0  0  0  0
 15 16  1  0  0  0  0
 15 17  1  0  0  0  0
 15 41  1  0  0  0  0
 16 17  1  0  0  0  0
 16 42  1  0  0  0  0
 16 43  1  0  0  0  0
 17 44  1  0  0  0  0
 17 45  1  0  0  0  0
 18 19  2  0  0  0  0
 19 20  1  0  0  0  0
 19 46  1  0  0  0  0
 21 22  1  0  0  0  0
 21 23  1  0  0  0  0
 23 47  1  0  0  0  0
 24 25  1  0  0  0  0
 24 48  1  0  0  0  0
 25 26  1  0  0  0  0
 25 35  2  0  0  0  0
 26 27  2  0  0  0  0
 26 49  1  0  0  0  0
 27 28  1  0  0  0  0
 27 50  1  0  0  0  0
 28 29  1  0  0  0  0
 28 30  2  0  0  0  0
 30 31  1  0  0  0  0
 30 35  1  0  0  0  0
 31 32  1  0  0  0  0
 31 33  1  0  0  0  0
 31 34  1  0  0  0  0
 35 51  1  0  0  0  0
M  END
$$$$
