CHEMBL3813791
 OpenBabel04072215373D

 62 65  0  0  0  0  0  0  0  0999 V2000
   -2.6448   -1.9505   -2.1145 N   0  0  0  0  0  0  0  0  0  0  0  0
   -2.5810   -0.5644   -2.0049 C   0  0  0  0  0  0  0  0  0  0  0  0
   -3.1185    0.0895   -3.0472 N   0  0  0  0  0  0  0  0  0  0  0  0
   -3.2190    1.4198   -2.9391 C   0  0  0  0  0  0  0  0  0  0  0  0
   -2.8377    2.1468   -1.8876 N   0  0  0  0  0  0  0  0  0  0  0  0
   -2.2408    1.4688   -0.8803 C   0  0  0  0  0  0  0  0  0  0  0  0
   -1.7360    2.2178    0.1793 O   0  0  0  0  0  0  0  0  0  0  0  0
   -1.3735    3.5339   -0.0643 C   0  0  0  0  0  0  0  0  0  0  0  0
   -1.6358    4.4597    0.9504 C   0  0  0  0  0  0  0  0  0  0  0  0
   -1.1856    5.7861    0.8364 C   0  0  0  0  0  0  0  0  0  0  0  0
   -0.5365    6.2202   -0.3204 C   0  0  0  0  0  0  0  0  0  0  0  0
   -0.0279    7.5319   -0.3689 N   0  0  0  0  0  0  0  0  0  0  0  0
   -0.2294    8.4112   -1.4144 C   0  0  0  0  0  0  0  0  0  0  0  0
   -0.9590    8.2275   -2.3807 O   0  0  0  0  0  0  0  0  0  0  0  0
    0.5289    9.7054   -1.3052 C   0  0  0  0  0  0  0  0  0  0  0  0
    1.9440    9.6293   -1.7887 C   0  0  0  0  0  0  0  0  0  0  0  0
    2.7745    9.1783   -1.0183 O   0  0  0  0  0  0  0  0  0  0  0  0
    2.1426   10.0812   -3.0766 N   0  0  0  0  0  0  0  0  0  0  0  0
    3.3615   10.0615   -3.7888 C   0  0  0  0  0  0  0  0  0  0  0  0
    4.5467    9.5317   -3.2665 C   0  0  0  0  0  0  0  0  0  0  0  0
    5.7071    9.4783   -4.0397 C   0  0  0  0  0  0  0  0  0  0  0  0
    5.6853    9.9733   -5.3378 C   0  0  0  0  0  0  0  0  0  0  0  0
    6.7947    9.9008   -6.0854 F   0  0  0  0  0  0  0  0  0  0  0  0
    4.5317   10.5298   -5.8653 C   0  0  0  0  0  0  0  0  0  0  0  0
    3.3661   10.5751   -5.0931 C   0  0  0  0  0  0  0  0  0  0  0  0
    0.3088   10.6251   -0.0979 C   0  0  0  0  0  0  0  0  0  0  0  0
   -0.2576   11.0115   -1.4259 C   0  0  0  0  0  0  0  0  0  0  0  0
   -0.3002    5.3110   -1.3545 C   0  0  0  0  0  0  0  0  0  0  0  0
   -0.6732    3.9703   -1.1970 C   0  0  0  0  0  0  0  0  0  0  0  0
   -0.2835    3.0964   -2.1380 F   0  0  0  0  0  0  0  0  0  0  0  0
   -2.1222    0.0871   -0.8616 C   0  0  0  0  0  0  0  0  0  0  0  0
   -1.5474   -0.6648    0.2741 C   0  0  0  0  0  0  0  0  0  0  0  0
   -1.0178   -1.8391    0.1006 N   0  0  0  0  0  0  0  0  0  0  0  0
   -0.5960   -2.3931    1.3225 O   0  0  0  0  0  0  0  0  0  0  0  0
   -0.0399   -3.6848    1.0401 C   0  0  0  0  0  0  0  0  0  0  0  0
    0.3517   -4.4197    2.3151 C   0  0  0  0  0  0  0  0  0  0  0  0
    1.3779   -3.6670    3.1480 C   0  0  0  0  0  0  0  0  0  0  0  0
    1.7542   -4.4592    4.2710 O   0  0  0  0  0  0  0  0  0  0  0  0
   -2.8707   -2.2046   -3.0720 H   0  0  0  0  0  0  0  0  0  0  0  0
   -1.8104   -2.3953   -1.7379 H   0  0  0  0  0  0  0  0  0  0  0  0
   -3.6403    1.9564   -3.7834 H   0  0  0  0  0  0  0  0  0  0  0  0
   -2.1828    4.1554    1.8390 H   0  0  0  0  0  0  0  0  0  0  0  0
   -1.3931    6.4879    1.6418 H   0  0  0  0  0  0  0  0  0  0  0  0
    0.4580    7.8743    0.4523 H   0  0  0  0  0  0  0  0  0  0  0  0
    1.3268   10.4189   -3.5769 H   0  0  0  0  0  0  0  0  0  0  0  0
    4.6045    9.1313   -2.2591 H   0  0  0  0  0  0  0  0  0  0  0  0
    6.6154    9.0455   -3.6364 H   0  0  0  0  0  0  0  0  0  0  0  0
    4.5424   10.9185   -6.8790 H   0  0  0  0  0  0  0  0  0  0  0  0
    2.4699   11.0094   -5.5279 H   0  0  0  0  0  0  0  0  0  0  0  0
    1.1603   11.1978    0.2655 H   0  0  0  0  0  0  0  0  0  0  0  0
   -0.3749   10.3239    0.6835 H   0  0  0  0  0  0  0  0  0  0  0  0
    0.1920   11.8557   -1.9383 H   0  0  0  0  0  0  0  0  0  0  0  0
   -1.3366   10.9637   -1.5337 H   0  0  0  0  0  0  0  0  0  0  0  0
    0.2485    5.6004   -2.2448 H   0  0  0  0  0  0  0  0  0  0  0  0
   -1.5915   -0.1996    1.2736 H   0  0  0  0  0  0  0  0  0  0  0  0
    0.8359   -3.5616    0.3925 H   0  0  0  0  0  0  0  0  0  0  0  0
   -0.7845   -4.2871    0.5042 H   0  0  0  0  0  0  0  0  0  0  0  0
    0.7516   -5.4098    2.0601 H   0  0  0  0  0  0  0  0  0  0  0  0
   -0.5373   -4.6013    2.9312 H   0  0  0  0  0  0  0  0  0  0  0  0
    0.9818   -2.7152    3.5139 H   0  0  0  0  0  0  0  0  0  0  0  0
    2.2839   -3.4660    2.5681 H   0  0  0  0  0  0  0  0  0  0  0  0
    0.9403   -4.7553    4.7136 H   0  0  0  0  0  0  0  0  0  0  0  0
  1  2  1  0  0  0  0
  1 39  1  0  0  0  0
  1 40  1  0  0  0  0
  2  3  1  0  0  0  0
  2 31  2  0  0  0  0
  3  4  2  0  0  0  0
  4  5  1  0  0  0  0
  4 41  1  0  0  0  0
  5  6  2  0  0  0  0
  6  7  1  0  0  0  0
  6 31  1  0  0  0  0
  7  8  1  0  0  0  0
  8  9  1  0  0  0  0
  8 29  2  0  0  0  0
  9 10  2  0  0  0  0
  9 42  1  0  0  0  0
 10 11  1  0  0  0  0
 10 43  1  0  0  0  0
 11 12  1  0  0  0  0
 11 28  2  0  0  0  0
 12 13  1  0  0  0  0
 12 44  1  0  0  0  0
 13 14  2  0  0  0  0
 13 15  1  0  0  0  0
 15 16  1  0  0  0  0
 15 26  1  0  0  0  0
 15 27  1  0  0  0  0
 16 17  2  0  0  0  0
 16 18  1  0  0  0  0
 18 19  1  0  0  0  0
 18 45  1  0  0  0  0
 19 20  1  0  0  0  0
 19 25  2  0  0  0  0
 20 21  2  0  0  0  0
 20 46  1  0  0  0  0
 21 22  1  0  0  0  0
 21 47  1  0  0  0  0
 22 23  1  0  0  0  0
 22 24  2  0  0  0  0
 24 25  1  0  0  0  0
 24 48  1  0  0  0  0
 25 49  1  0  0  0  0
 26 27  1  0  0  0  0
 26 50  1  0  0  0  0
 26 51  1  0  0  0  0
 27 52  1  0  0  0  0
 27 53  1  0  0  0  0
 28 29  1  0  0  0  0
 28 54  1  0  0  0  0
 29 30  1  0  0  0  0
 31 32  1  0  0  0  0
 32 33  2  0  0  0  0
 32 55  1  0  0  0  0
 33 34  1  0  0  0  0
 34 35  1  0  0  0  0
 35 36  1  0  0  0  0
 35 56  1  0  0  0  0
 35 57  1  0  0  0  0
 36 37  1  0  0  0  0
 36 58  1  0  0  0  0
 36 59  1  0  0  0  0
 37 38  1  0  0  0  0
 37 60  1  0  0  0  0
 37 61  1  0  0  0  0
 38 62  1  0  0  0  0
M  END
$$$$
