CHEMBL238522
 OpenBabel04072215363D

 49 51  0  0  0  0  0  0  0  0999 V2000
    0.4608    0.8197   -0.5629 C   0  0  0  0  0  0  0  0  0  0  0  0
    1.9125    1.1267   -0.9432 C   0  0  0  0  0  0  0  0  0  0  0  0
    2.8154    1.1080    0.2928 C   0  0  0  0  0  0  0  0  0  0  0  0
    2.4243    0.1795   -2.0159 C   0  0  0  0  0  0  0  0  0  0  0  0
    2.8544    0.6814   -3.2549 C   0  0  0  0  0  0  0  0  0  0  0  0
    3.3052   -0.1840   -4.2634 C   0  0  0  0  0  0  0  0  0  0  0  0
    3.3575   -1.5574   -4.0186 C   0  0  0  0  0  0  0  0  0  0  0  0
    3.6674   -2.4729   -5.0438 N   0  0  0  0  0  0  0  0  0  0  0  0
    4.9874   -2.7882   -5.3452 C   0  0  0  0  0  0  0  0  0  0  0  0
    5.9384   -2.3721   -4.6912 O   0  0  0  0  0  0  0  0  0  0  0  0
    5.1678   -3.6366   -6.5200 C   0  0  0  0  0  0  0  0  0  0  0  0
    6.3311   -3.8067   -7.2609 C   0  0  0  0  0  0  0  0  0  0  0  0
    7.4796   -3.1235   -7.1221 N   0  0  0  0  0  0  0  0  0  0  0  0
    8.7628   -3.7517   -7.3812 C   0  0  0  0  0  0  0  0  0  0  0  0
    9.8291   -3.2471   -6.4231 C   0  0  0  0  0  0  0  0  0  0  0  0
    9.5471   -2.9838   -5.0770 C   0  0  0  0  0  0  0  0  0  0  0  0
   10.5653   -2.5432   -4.2502 C   0  0  0  0  0  0  0  0  0  0  0  0
   11.8452   -2.3802   -4.6538 N   0  0  0  0  0  0  0  0  0  0  0  0
   12.1071   -2.6682   -5.9489 C   0  0  0  0  0  0  0  0  0  0  0  0
   11.1491   -3.1023   -6.8546 C   0  0  0  0  0  0  0  0  0  0  0  0
    6.2003   -4.7590   -8.2258 N   0  0  0  0  0  0  0  0  0  0  0  0
    4.9581   -5.1620   -8.1313 C   0  0  0  0  0  0  0  0  0  0  0  0
    4.2950   -4.5317   -7.1131 N   0  0  0  0  0  0  0  0  0  0  0  0
    2.9441   -4.8770   -6.7350 C   0  0  0  0  0  0  0  0  0  0  0  0
    2.9531   -2.0663   -2.7909 C   0  0  0  0  0  0  0  0  0  0  0  0
    2.4843   -1.2057   -1.7934 C   0  0  0  0  0  0  0  0  0  0  0  0
    0.0902    1.5491    0.1655 H   0  0  0  0  0  0  0  0  0  0  0  0
    0.3518   -0.1755   -0.1181 H   0  0  0  0  0  0  0  0  0  0  0  0
   -0.1915    0.8646   -1.4424 H   0  0  0  0  0  0  0  0  0  0  0  0
    1.9293    2.1498   -1.3418 H   0  0  0  0  0  0  0  0  0  0  0  0
    2.8381    0.1221    0.7701 H   0  0  0  0  0  0  0  0  0  0  0  0
    2.4652    1.8300    1.0382 H   0  0  0  0  0  0  0  0  0  0  0  0
    3.8448    1.3731    0.0270 H   0  0  0  0  0  0  0  0  0  0  0  0
    2.8384    1.7516   -3.4480 H   0  0  0  0  0  0  0  0  0  0  0  0
    3.6274    0.2292   -5.2123 H   0  0  0  0  0  0  0  0  0  0  0  0
    3.0963   -2.3611   -5.8692 H   0  0  0  0  0  0  0  0  0  0  0  0
    7.5079   -2.3198   -6.4973 H   0  0  0  0  0  0  0  0  0  0  0  0
    9.0545   -3.5138   -8.4113 H   0  0  0  0  0  0  0  0  0  0  0  0
    8.7190   -4.8439   -7.2864 H   0  0  0  0  0  0  0  0  0  0  0  0
    8.5500   -3.1088   -4.6667 H   0  0  0  0  0  0  0  0  0  0  0  0
   10.3789   -2.3046   -3.2069 H   0  0  0  0  0  0  0  0  0  0  0  0
   13.1446   -2.5386   -6.2445 H   0  0  0  0  0  0  0  0  0  0  0  0
   11.4418   -3.3247   -7.8746 H   0  0  0  0  0  0  0  0  0  0  0  0
    4.4913   -5.8980   -8.7754 H   0  0  0  0  0  0  0  0  0  0  0  0
    2.5611   -5.6477   -7.4104 H   0  0  0  0  0  0  0  0  0  0  0  0
    2.3064   -3.9962   -6.8302 H   0  0  0  0  0  0  0  0  0  0  0  0
    2.9514   -5.2604   -5.7120 H   0  0  0  0  0  0  0  0  0  0  0  0
    2.9720   -3.1394   -2.6070 H   0  0  0  0  0  0  0  0  0  0  0  0
    2.1541   -1.6306   -0.8533 H   0  0  0  0  0  0  0  0  0  0  0  0
  1  2  1  0  0  0  0
  1 27  1  0  0  0  0
  1 28  1  0  0  0  0
  1 29  1  0  0  0  0
  2  3  1  0  0  0  0
  2  4  1  0  0  0  0
  2 30  1  0  0  0  0
  3 31  1  0  0  0  0
  3 32  1  0  0  0  0
  3 33  1  0  0  0  0
  4  5  1  0  0  0  0
  4 26  2  0  0  0  0
  5  6  2  0  0  0  0
  5 34  1  0  0  0  0
  6  7  1  0  0  0  0
  6 35  1  0  0  0  0
  7  8  1  0  0  0  0
  7 25  2  0  0  0  0
  8  9  1  0  0  0  0
  8 36  1  0  0  0  0
  9 10  2  0  0  0  0
  9 11  1  0  0  0  0
 11 12  2  0  0  0  0
 11 23  1  0  0  0  0
 12 13  1  0  0  0  0
 12 21  1  0  0  0  0
 13 14  1  0  0  0  0
 13 37  1  0  0  0  0
 14 15  1  0  0  0  0
 14 38  1  0  0  0  0
 14 39  1  0  0  0  0
 15 16  1  0  0  0  0
 15 20  2  0  0  0  0
 16 17  2  0  0  0  0
 16 40  1  0  0  0  0
 17 18  1  0  0  0  0
 17 41  1  0  0  0  0
 18 19  2  0  0  0  0
 19 20  1  0  0  0  0
 19 42  1  0  0  0  0
 20 43  1  0  0  0  0
 21 22  2  0  0  0  0
 22 23  1  0  0  0  0
 22 44  1  0  0  0  0
 23 24  1  0  0  0  0
 24 45  1  0  0  0  0
 24 46  1  0  0  0  0
 24 47  1  0  0  0  0
 25 26  1  0  0  0  0
 25 48  1  0  0  0  0
 26 49  1  0  0  0  0
M  END
$$$$
