CHEMBL3925481
 OpenBabel04072215373D

 65 69  0  0  0  0  0  0  0  0999 V2000
    3.5406    4.0804   -2.3149 C   0  0  0  0  0  0  0  0  0  0  0  0
    3.5611    2.7135   -1.9212 O   0  0  0  0  0  0  0  0  0  0  0  0
    3.7879    2.4327   -0.5978 C   0  0  0  0  0  0  0  0  0  0  0  0
    3.4871    3.3479    0.4300 C   0  0  0  0  0  0  0  0  0  0  0  0
    3.6664    3.0301    1.7872 C   0  0  0  0  0  0  0  0  0  0  0  0
    3.4344    4.0183    2.8546 C   0  0  0  0  0  0  0  0  0  0  0  0
    2.9594    3.8468    4.1052 C   0  0  0  0  0  0  0  0  0  0  0  0
    2.3515    2.7571    4.7931 C   0  0  0  0  0  0  0  0  0  0  0  0
    0.9769    2.6367    4.7536 C   0  0  0  0  0  0  0  0  0  0  0  0
    0.5885    2.3958    6.0525 N   0  0  0  0  0  0  0  0  0  0  0  0
   -0.6507    2.8788    6.6494 C   0  0  0  0  0  0  0  0  0  0  0  0
   -1.8709    2.9069    5.7230 C   0  0  0  0  0  0  0  0  0  0  0  0
   -3.0811    3.4648    6.3650 N   0  0  0  0  0  0  0  0  0  0  0  0
   -4.2299    3.4193    5.4294 C   0  0  0  0  0  0  0  0  0  0  0  0
   -4.1429    4.4421    4.2784 C   0  0  0  0  0  0  0  0  0  0  0  0
   -3.9349    5.7780    4.7557 O   0  0  0  0  0  0  0  0  0  0  0  0
   -2.7873    5.8565    5.6100 C   0  0  0  0  0  0  0  0  0  0  0  0
   -2.9188    4.8781    6.7876 C   0  0  0  0  0  0  0  0  0  0  0  0
    1.6855    2.0149    6.8063 C   0  0  0  0  0  0  0  0  0  0  0  0
    1.7950    1.7303    8.1775 C   0  0  0  0  0  0  0  0  0  0  0  0
    3.0441    1.3668    8.6769 C   0  0  0  0  0  0  0  0  0  0  0  0
    4.1493    1.2947    7.8361 C   0  0  0  0  0  0  0  0  0  0  0  0
    4.0550    1.6916    6.4936 C   0  0  0  0  0  0  0  0  0  0  0  0
    2.8058    2.0844    5.9679 C   0  0  0  0  0  0  0  0  0  0  0  0
    2.8342    5.1966    4.7204 C   0  0  0  0  0  0  0  0  0  0  0  0
    2.2719    5.4783    5.7674 O   0  0  0  0  0  0  0  0  0  0  0  0
    3.3416    6.0864    3.8499 N   0  0  0  0  0  0  0  0  0  0  0  0
    3.5798    5.4894    2.6742 C   0  0  0  0  0  0  0  0  0  0  0  0
    3.7825    6.0804    1.6290 O   0  0  0  0  0  0  0  0  0  0  0  0
    4.1369    1.7531    2.1011 C   0  0  0  0  0  0  0  0  0  0  0  0
    4.3963    0.8161    1.0962 C   0  0  0  0  0  0  0  0  0  0  0  0
    4.8568   -0.4499    1.3866 O   0  0  0  0  0  0  0  0  0  0  0  0
    4.3749   -1.0058    2.6111 C   0  0  0  0  0  0  0  0  0  0  0  0
    4.2562    1.1548   -0.2600 C   0  0  0  0  0  0  0  0  0  0  0  0
    4.5428    0.1442   -1.1493 O   0  0  0  0  0  0  0  0  0  0  0  0
    5.1260    0.5200   -2.3915 C   0  0  0  0  0  0  0  0  0  0  0  0
    3.4664    4.1107   -3.4080 H   0  0  0  0  0  0  0  0  0  0  0  0
    4.4667    4.5921   -2.0305 H   0  0  0  0  0  0  0  0  0  0  0  0
    2.6618    4.5973   -1.9201 H   0  0  0  0  0  0  0  0  0  0  0  0
    3.0876    4.3237    0.1715 H   0  0  0  0  0  0  0  0  0  0  0  0
    0.2767    3.0211    4.0247 H   0  0  0  0  0  0  0  0  0  0  0  0
   -0.3968    3.8871    6.9967 H   0  0  0  0  0  0  0  0  0  0  0  0
   -0.8710    2.2554    7.5208 H   0  0  0  0  0  0  0  0  0  0  0  0
   -2.0752    1.8738    5.4125 H   0  0  0  0  0  0  0  0  0  0  0  0
   -1.6357    3.4586    4.8091 H   0  0  0  0  0  0  0  0  0  0  0  0
   -5.1340    3.6296    6.0151 H   0  0  0  0  0  0  0  0  0  0  0  0
   -4.3567    2.4070    5.0278 H   0  0  0  0  0  0  0  0  0  0  0  0
   -5.0838    4.4394    3.7195 H   0  0  0  0  0  0  0  0  0  0  0  0
   -3.3455    4.1881    3.5714 H   0  0  0  0  0  0  0  0  0  0  0  0
   -2.7249    6.8817    5.9883 H   0  0  0  0  0  0  0  0  0  0  0  0
   -1.8798    5.6748    5.0221 H   0  0  0  0  0  0  0  0  0  0  0  0
   -3.8118    5.1495    7.3660 H   0  0  0  0  0  0  0  0  0  0  0  0
   -2.0822    4.9990    7.4819 H   0  0  0  0  0  0  0  0  0  0  0  0
    0.9433    1.8125    8.8459 H   0  0  0  0  0  0  0  0  0  0  0  0
    3.1490    1.1454    9.7368 H   0  0  0  0  0  0  0  0  0  0  0  0
    5.1042    0.9672    8.2394 H   0  0  0  0  0  0  0  0  0  0  0  0
    4.9426    1.6816    5.8687 H   0  0  0  0  0  0  0  0  0  0  0  0
    3.2227    7.0811    3.9637 H   0  0  0  0  0  0  0  0  0  0  0  0
    4.3268    1.4998    3.1383 H   0  0  0  0  0  0  0  0  0  0  0  0
    4.5509   -2.0845    2.5821 H   0  0  0  0  0  0  0  0  0  0  0  0
    3.2979   -0.8438    2.7313 H   0  0  0  0  0  0  0  0  0  0  0  0
    4.9298   -0.6015    3.4642 H   0  0  0  0  0  0  0  0  0  0  0  0
    5.6425   -0.3584   -2.7940 H   0  0  0  0  0  0  0  0  0  0  0  0
    5.8697    1.3170   -2.2826 H   0  0  0  0  0  0  0  0  0  0  0  0
    4.3523    0.7895   -3.1158 H   0  0  0  0  0  0  0  0  0  0  0  0
  1  2  1  0  0  0  0
  1 37  1  0  0  0  0
  1 38  1  0  0  0  0
  1 39  1  0  0  0  0
  2  3  1  0  0  0  0
  3  4  1  0  0  0  0
  3 34  2  0  0  0  0
  4  5  2  0  0  0  0
  4 40  1  0  0  0  0
  5  6  1  0  0  0  0
  5 30  1  0  0  0  0
  6  7  2  0  0  0  0
  6 28  1  0  0  0  0
  7  8  1  0  0  0  0
  7 25  1  0  0  0  0
  8  9  2  0  0  0  0
  8 24  1  0  0  0  0
  9 10  1  0  0  0  0
  9 41  1  0  0  0  0
 10 11  1  0  0  0  0
 10 19  1  0  0  0  0
 11 12  1  0  0  0  0
 11 42  1  0  0  0  0
 11 43  1  0  0  0  0
 12 13  1  0  0  0  0
 12 44  1  0  0  0  0
 12 45  1  0  0  0  0
 13 14  1  0  0  0  0
 13 18  1  0  0  0  0
 14 15  1  0  0  0  0
 14 46  1  0  0  0  0
 14 47  1  0  0  0  0
 15 16  1  0  0  0  0
 15 48  1  0  0  0  0
 15 49  1  0  0  0  0
 16 17  1  0  0  0  0
 17 18  1  0  0  0  0
 17 50  1  0  0  0  0
 17 51  1  0  0  0  0
 18 52  1  0  0  0  0
 18 53  1  0  0  0  0
 19 20  1  0  0  0  0
 19 24  2  0  0  0  0
 20 21  2  0  0  0  0
 20 54  1  0  0  0  0
 21 22  1  0  0  0  0
 21 55  1  0  0  0  0
 22 23  2  0  0  0  0
 22 56  1  0  0  0  0
 23 24  1  0  0  0  0
 23 57  1  0  0  0  0
 25 26  2  0  0  0  0
 25 27  1  0  0  0  0
 27 28  1  0  0  0  0
 27 58  1  0  0  0  0
 28 29  2  0  0  0  0
 30 31  2  0  0  0  0
 30 59  1  0  0  0  0
 31 32  1  0  0  0  0
 31 34  1  0  0  0  0
 32 33  1  0  0  0  0
 33 60  1  0  0  0  0
 33 61  1  0  0  0  0
 33 62  1  0  0  0  0
 34 35  1  0  0  0  0
 35 36  1  0  0  0  0
 36 63  1  0  0  0  0
 36 64  1  0  0  0  0
 36 65  1  0  0  0  0
M  END
$$$$
