CHEMBL4243470
 OpenBabel04072215383D

 47 50  0  0  0  0  0  0  0  0999 V2000
    2.3842   -0.4162    1.5697 C   0  0  0  0  0  0  0  0  0  0  0  0
    0.8876   -0.3120    1.5322 C   0  0  0  0  0  0  0  0  0  0  0  0
    0.2730    0.8696    1.9569 C   0  0  0  0  0  0  0  0  0  0  0  0
   -1.1126    0.9831    1.9289 C   0  0  0  0  0  0  0  0  0  0  0  0
   -1.8924   -0.0862    1.4764 C   0  0  0  0  0  0  0  0  0  0  0  0
   -1.3053   -1.2772    1.0363 C   0  0  0  0  0  0  0  0  0  0  0  0
   -2.0674   -2.3811    0.5651 N   0  0  0  0  0  0  0  0  0  0  0  0
   -3.4438   -2.4003    0.4059 C   0  0  0  0  0  0  0  0  0  0  0  0
   -4.1919   -1.4502    0.6058 O   0  0  0  0  0  0  0  0  0  0  0  0
   -3.9169   -3.6546    0.0286 N   0  0  0  0  0  0  0  0  0  0  0  0
   -5.3113   -3.8286   -0.1594 C   0  0  0  0  0  0  0  0  0  0  0  0
   -6.0518   -2.9306   -0.9281 C   0  0  0  0  0  0  0  0  0  0  0  0
   -7.4481   -3.0022   -0.9536 C   0  0  0  0  0  0  0  0  0  0  0  0
   -8.1480   -3.9880   -0.2352 C   0  0  0  0  0  0  0  0  0  0  0  0
   -9.6184   -3.9728   -0.1896 C   0  0  0  0  0  0  0  0  0  0  0  0
  -10.4219   -3.5869   -1.2925 C   0  0  0  0  0  0  0  0  0  0  0  0
  -11.8406   -3.5363   -1.2553 C   0  0  0  0  0  0  0  0  0  0  0  0
  -12.5916   -3.0892   -2.4814 C   0  0  0  0  0  0  0  0  0  0  0  0
  -12.6176   -3.8591   -0.1876 N   0  0  0  0  0  0  0  0  0  0  0  0
  -11.8979   -4.2324    0.9020 C   0  0  0  0  0  0  0  0  0  0  0  0
  -12.4052   -4.5920    2.0825 N   0  0  0  0  0  0  0  0  0  0  0  0
  -11.3117   -4.8532    2.8849 O   0  0  0  0  0  0  0  0  0  0  0  0
  -10.1526   -4.6328    2.1987 C   0  0  0  0  0  0  0  0  0  0  0  0
   -9.0269   -4.7971    2.9217 N   0  0  0  0  0  0  0  0  0  0  0  0
  -10.4579   -4.2749    0.9032 C   0  0  0  0  0  0  0  0  0  0  0  0
   -7.3694   -4.9606    0.4143 C   0  0  0  0  0  0  0  0  0  0  0  0
   -5.9698   -4.8725    0.4803 C   0  0  0  0  0  0  0  0  0  0  0  0
    0.0879   -1.3842    1.0678 C   0  0  0  0  0  0  0  0  0  0  0  0
    2.8355    0.4982    1.9703 H   0  0  0  0  0  0  0  0  0  0  0  0
    2.7811   -0.5656    0.5604 H   0  0  0  0  0  0  0  0  0  0  0  0
    2.6935   -1.2448    2.2130 H   0  0  0  0  0  0  0  0  0  0  0  0
    0.8621    1.7092    2.3162 H   0  0  0  0  0  0  0  0  0  0  0  0
   -1.5954    1.8966    2.2587 H   0  0  0  0  0  0  0  0  0  0  0  0
   -2.9623    0.0682    1.4857 H   0  0  0  0  0  0  0  0  0  0  0  0
   -1.5544   -3.1785    0.2142 H   0  0  0  0  0  0  0  0  0  0  0  0
   -3.4228   -4.4277    0.4496 H   0  0  0  0  0  0  0  0  0  0  0  0
   -5.5546   -2.1350   -1.4793 H   0  0  0  0  0  0  0  0  0  0  0  0
   -7.9777   -2.2382   -1.5193 H   0  0  0  0  0  0  0  0  0  0  0  0
   -9.9333   -3.3130   -2.2273 H   0  0  0  0  0  0  0  0  0  0  0  0
  -11.9164   -2.8251   -3.3013 H   0  0  0  0  0  0  0  0  0  0  0  0
  -13.1977   -2.2085   -2.2454 H   0  0  0  0  0  0  0  0  0  0  0  0
  -13.2498   -3.8927   -2.8259 H   0  0  0  0  0  0  0  0  0  0  0  0
   -9.1278   -4.9188    3.9256 H   0  0  0  0  0  0  0  0  0  0  0  0
   -8.2003   -4.2595    2.6739 H   0  0  0  0  0  0  0  0  0  0  0  0
   -7.8495   -5.7901    0.9305 H   0  0  0  0  0  0  0  0  0  0  0  0
   -5.4287   -5.5790    1.1028 H   0  0  0  0  0  0  0  0  0  0  0  0
    0.5866   -2.2936    0.7359 H   0  0  0  0  0  0  0  0  0  0  0  0
  1  2  1  0  0  0  0
  1 29  1  0  0  0  0
  1 30  1  0  0  0  0
  1 31  1  0  0  0  0
  2  3  1  0  0  0  0
  2 28  2  0  0  0  0
  3  4  2  0  0  0  0
  3 32  1  0  0  0  0
  4  5  1  0  0  0  0
  4 33  1  0  0  0  0
  5  6  2  0  0  0  0
  5 34  1  0  0  0  0
  6  7  1  0  0  0  0
  6 28  1  0  0  0  0
  7  8  1  0  0  0  0
  7 35  1  0  0  0  0
  8  9  2  0  0  0  0
  8 10  1  0  0  0  0
 10 11  1  0  0  0  0
 10 36  1  0  0  0  0
 11 12  1  0  0  0  0
 11 27  2  0  0  0  0
 12 13  2  0  0  0  0
 12 37  1  0  0  0  0
 13 14  1  0  0  0  0
 13 38  1  0  0  0  0
 14 15  1  0  0  0  0
 14 26  2  0  0  0  0
 15 16  2  0  0  0  0
 15 25  1  0  0  0  0
 16 17  1  0  0  0  0
 16 39  1  0  0  0  0
 17 18  1  0  0  0  0
 17 19  2  0  0  0  0
 18 40  1  0  0  0  0
 18 41  1  0  0  0  0
 18 42  1  0  0  0  0
 19 20  1  0  0  0  0
 20 21  2  0  0  0  0
 20 25  1  0  0  0  0
 21 22  1  0  0  0  0
 22 23  1  0  0  0  0
 23 24  1  0  0  0  0
 23 25  2  0  0  0  0
 24 43  1  0  0  0  0
 24 44  1  0  0  0  0
 26 27  1  0  0  0  0
 26 45  1  0  0  0  0
 27 46  1  0  0  0  0
 28 47  1  0  0  0  0
M  END
$$$$
