CHEMBL3746141
 OpenBabel04072215373D

 56 60  0  0  1  0  0  0  0  0999 V2000
    4.1235   -2.2130    1.1647 C   0  0  0  0  0  0  0  0  0  0  0  0
    3.3193   -0.9455    0.8940 C   0  0  2  0  0  0  0  0  0  0  0  0
    3.4309   -0.0298    2.0658 N   0  0  0  0  0  0  0  0  0  0  0  0
    2.0543    0.1607    2.6036 C   0  0  0  0  0  0  0  0  0  0  0  0
    1.1334   -0.5974    1.6934 C   0  0  0  0  0  0  0  0  0  0  0  0
   -0.1979   -0.6850    1.8154 N   0  0  0  0  0  0  0  0  0  0  0  0
   -0.7850   -1.4352    0.8682 C   0  0  0  0  0  0  0  0  0  0  0  0
   -0.1688   -2.0684   -0.1473 N   0  0  0  0  0  0  0  0  0  0  0  0
    1.1774   -1.9602   -0.1832 C   0  0  0  0  0  0  0  0  0  0  0  0
    1.8954   -2.5979   -1.1810 O   0  0  0  0  0  0  0  0  0  0  0  0
    1.4471   -3.8281   -1.6079 C   0  0  0  0  0  0  0  0  0  0  0  0
    0.8293   -4.7586   -0.7730 C   0  0  0  0  0  0  0  0  0  0  0  0
    0.3708   -5.9819   -1.2659 C   0  0  0  0  0  0  0  0  0  0  0  0
    0.5882   -6.2719   -2.6239 C   0  0  0  0  0  0  0  0  0  0  0  0
    1.3004   -5.3952   -3.4516 C   0  0  0  0  0  0  0  0  0  0  0  0
    1.4696   -6.0343   -4.7058 C   0  0  0  0  0  0  0  0  0  0  0  0
    0.8893   -7.2758   -4.6130 C   0  0  0  0  0  0  0  0  0  0  0  0
    0.2840   -7.4089   -3.3739 N   0  0  0  0  0  0  0  0  0  0  0  0
   -0.4325   -8.5529   -2.9667 C   0  0  0  0  0  0  0  0  0  0  0  0
   -0.0270   -9.6451   -3.3328 O   0  0  0  0  0  0  0  0  0  0  0  0
   -1.6123   -8.2094   -2.3370 N   0  0  0  0  0  0  0  0  0  0  0  0
   -2.4634   -9.1791   -1.8261 C   0  0  0  0  0  0  0  0  0  0  0  0
   -3.8514   -9.0131   -1.5751 C   0  0  0  0  0  0  0  0  0  0  0  0
   -4.2749  -10.2333   -1.0838 C   0  0  0  0  0  0  0  0  0  0  0  0
   -5.6105  -10.8033   -0.6687 C   0  0  0  0  0  0  0  0  0  0  0  0
   -6.5248  -10.9199   -1.9007 C   0  0  0  0  0  0  0  0  0  0  0  0
   -5.4681  -12.2065   -0.0416 C   0  0  0  0  0  0  0  0  0  0  0  0
   -6.2717   -9.8830    0.3710 C   0  0  0  0  0  0  0  0  0  0  0  0
   -3.1986  -11.0595   -1.0141 O   0  0  0  0  0  0  0  0  0  0  0  0
   -2.0792  -10.4097   -1.4770 N   0  0  0  0  0  0  0  0  0  0  0  0
    1.7263   -4.1528   -2.9389 C   0  0  0  0  0  0  0  0  0  0  0  0
    1.8727   -1.2143    0.7205 C   0  0  0  0  0  0  0  0  0  0  0  0
    5.1828   -1.9806    1.3154 H   0  0  0  0  0  0  0  0  0  0  0  0
    4.0578   -2.9116    0.3235 H   0  0  0  0  0  0  0  0  0  0  0  0
    3.7601   -2.7416    2.0540 H   0  0  0  0  0  0  0  0  0  0  0  0
    3.7106   -0.4355    0.0056 H   0  0  0  0  0  0  0  0  0  0  0  0
    3.7577    0.8755    1.7287 H   0  0  0  0  0  0  0  0  0  0  0  0
    1.7921    1.2234    2.6084 H   0  0  0  0  0  0  0  0  0  0  0  0
    1.9969   -0.2366    3.6212 H   0  0  0  0  0  0  0  0  0  0  0  0
   -1.8615   -1.5531    0.9311 H   0  0  0  0  0  0  0  0  0  0  0  0
    0.6902   -4.5441    0.2845 H   0  0  0  0  0  0  0  0  0  0  0  0
   -0.1010   -6.6922   -0.5943 H   0  0  0  0  0  0  0  0  0  0  0  0
    1.9909   -5.6437   -5.5686 H   0  0  0  0  0  0  0  0  0  0  0  0
    0.8114   -8.0803   -5.3339 H   0  0  0  0  0  0  0  0  0  0  0  0
   -1.9748   -7.2703   -2.4284 H   0  0  0  0  0  0  0  0  0  0  0  0
   -4.4703   -8.1514   -1.7704 H   0  0  0  0  0  0  0  0  0  0  0  0
   -6.1064  -11.6119   -2.6420 H   0  0  0  0  0  0  0  0  0  0  0  0
   -6.6609   -9.9517   -2.3962 H   0  0  0  0  0  0  0  0  0  0  0  0
   -7.5177  -11.2929   -1.6238 H   0  0  0  0  0  0  0  0  0  0  0  0
   -5.0368  -12.9219   -0.7523 H   0  0  0  0  0  0  0  0  0  0  0  0
   -6.4402  -12.5951    0.2694 H   0  0  0  0  0  0  0  0  0  0  0  0
   -4.8187  -12.1884    0.8416 H   0  0  0  0  0  0  0  0  0  0  0  0
   -6.4196   -8.8704   -0.0208 H   0  0  0  0  0  0  0  0  0  0  0  0
   -5.6578   -9.8016    1.2757 H   0  0  0  0  0  0  0  0  0  0  0  0
   -7.2542  -10.2671    0.6702 H   0  0  0  0  0  0  0  0  0  0  0  0
    2.2819   -3.4614   -3.5665 H   0  0  0  0  0  0  0  0  0  0  0  0
  1 33  1  0  0  0  0
  1 34  1  0  0  0  0
  1 35  1  0  0  0  0
  2  3  1  0  0  0  0
  2 32  1  0  0  0  0
  2  1  1  0  0  0  0
  2 36  1  6  0  0  0
  3  4  1  0  0  0  0
  3 37  1  0  0  0  0
  4  5  1  0  0  0  0
  4 38  1  0  0  0  0
  4 39  1  0  0  0  0
  5  6  1  0  0  0  0
  5 32  2  0  0  0  0
  6  7  2  0  0  0  0
  7  8  1  0  0  0  0
  7 40  1  0  0  0  0
  8  9  2  0  0  0  0
  9 10  1  0  0  0  0
  9 32  1  0  0  0  0
 10 11  1  0  0  0  0
 11 12  1  0  0  0  0
 11 31  2  0  0  0  0
 12 13  2  0  0  0  0
 12 41  1  0  0  0  0
 13 14  1  0  0  0  0
 13 42  1  0  0  0  0
 14 15  2  0  0  0  0
 14 18  1  0  0  0  0
 15 16  1  0  0  0  0
 15 31  1  0  0  0  0
 16 17  2  0  0  0  0
 16 43  1  0  0  0  0
 17 18  1  0  0  0  0
 17 44  1  0  0  0  0
 18 19  1  0  0  0  0
 19 20  2  0  0  0  0
 19 21  1  0  0  0  0
 21 22  1  0  0  0  0
 21 45  1  0  0  0  0
 22 23  1  0  0  0  0
 22 30  2  0  0  0  0
 23 24  2  0  0  0  0
 23 46  1  0  0  0  0
 24 25  1  0  0  0  0
 24 29  1  0  0  0  0
 25 26  1  0  0  0  0
 25 27  1  0  0  0  0
 25 28  1  0  0  0  0
 26 47  1  0  0  0  0
 26 48  1  0  0  0  0
 26 49  1  0  0  0  0
 27 50  1  0  0  0  0
 27 51  1  0  0  0  0
 27 52  1  0  0  0  0
 28 53  1  0  0  0  0
 28 54  1  0  0  0  0
 28 55  1  0  0  0  0
 29 30  1  0  0  0  0
 31 56  1  0  0  0  0
M  END
$$$$
