CHEMBL271941
 OpenBabel04072215363D

 60 64  0  0  0  0  0  0  0  0999 V2000
    1.0999    0.3843    0.5657 C   0  0  0  0  0  0  0  0  0  0  0  0
    2.4490   -0.0418   -0.0217 C   0  0  0  0  0  0  0  0  0  0  0  0
    3.3611    1.1631   -0.1901 C   0  0  0  0  0  0  0  0  0  0  0  0
    2.9817   -1.2687    0.7061 C   0  0  0  0  0  0  0  0  0  0  0  0
    2.6208   -2.6187    0.3070 C   0  0  0  0  0  0  0  0  0  0  0  0
    1.8168   -3.0764   -0.8746 C   0  0  0  0  0  0  0  0  0  0  0  0
    1.3360   -2.2659   -1.7983 N   0  0  0  0  0  0  0  0  0  0  0  0
    0.7159   -3.0427   -2.7424 N   0  0  0  0  0  0  0  0  0  0  0  0
    0.8352   -4.2825   -2.3343 C   0  0  0  0  0  0  0  0  0  0  0  0
    0.4515   -5.4261   -2.9235 N   0  0  0  0  0  0  0  0  0  0  0  0
    0.2410   -5.4262   -4.3683 C   0  0  0  0  0  0  0  0  0  0  0  0
    1.5618   -5.2516   -5.1312 C   0  0  0  0  0  0  0  0  0  0  0  0
    2.4829   -6.2806   -4.7682 O   0  0  0  0  0  0  0  0  0  0  0  0
    1.5207   -4.3935   -1.1587 O   0  0  0  0  0  0  0  0  0  0  0  0
    3.1425   -3.4896    1.2300 C   0  0  0  0  0  0  0  0  0  0  0  0
    3.8650   -2.7666    2.1292 N   0  0  0  0  0  0  0  0  0  0  0  0
    4.5382   -3.3201    3.1477 N   0  0  0  0  0  0  0  0  0  0  0  0
    5.1834   -2.4704    3.8743 C   0  0  0  0  0  0  0  0  0  0  0  0
    5.2214   -1.1189    3.6988 N   0  0  0  0  0  0  0  0  0  0  0  0
    4.5507   -0.5601    2.7300 C   0  0  0  0  0  0  0  0  0  0  0  0
    4.5754    0.8122    2.6238 N   0  0  0  0  0  0  0  0  0  0  0  0
    5.6358    1.6522    3.0530 C   0  0  0  0  0  0  0  0  0  0  0  0
    6.9838    1.2707    3.0088 C   0  0  0  0  0  0  0  0  0  0  0  0
    8.0145    2.1603    3.3795 C   0  0  0  0  0  0  0  0  0  0  0  0
    9.4332    1.6860    3.2966 C   0  0  0  0  0  0  0  0  0  0  0  0
    9.6616    0.5405    2.9040 O   0  0  0  0  0  0  0  0  0  0  0  0
   10.4279    2.5687    3.6730 N   0  0  0  0  0  0  0  0  0  0  0  0
   11.8133    2.2063    3.6891 C   0  0  0  0  0  0  0  0  0  0  0  0
   12.8581    3.2203    4.0780 C   0  0  0  0  0  0  0  0  0  0  0  0
   12.7776    2.7339    2.6612 C   0  0  0  0  0  0  0  0  0  0  0  0
    7.6694    3.4495    3.7916 C   0  0  0  0  0  0  0  0  0  0  0  0
    8.6069    4.3348    4.1637 F   0  0  0  0  0  0  0  0  0  0  0  0
    6.3397    3.8640    3.8200 C   0  0  0  0  0  0  0  0  0  0  0  0
    5.3451    2.9710    3.4381 C   0  0  0  0  0  0  0  0  0  0  0  0
    4.0679    3.3812    3.4566 F   0  0  0  0  0  0  0  0  0  0  0  0
    3.7940   -1.4236    1.8437 C   0  0  0  0  0  0  0  0  0  0  0  0
    0.7012    1.2584    0.0399 H   0  0  0  0  0  0  0  0  0  0  0  0
    1.1909    0.6334    1.6276 H   0  0  0  0  0  0  0  0  0  0  0  0
    0.3600   -0.4197    0.4734 H   0  0  0  0  0  0  0  0  0  0  0  0
    2.2607   -0.3368   -1.0575 H   0  0  0  0  0  0  0  0  0  0  0  0
    3.4574    1.7468    0.7229 H   0  0  0  0  0  0  0  0  0  0  0  0
    2.9210    1.8491   -0.9263 H   0  0  0  0  0  0  0  0  0  0  0  0
    4.3514    0.8794   -0.5565 H   0  0  0  0  0  0  0  0  0  0  0  0
    0.7807   -6.2998   -2.5298 H   0  0  0  0  0  0  0  0  0  0  0  0
   -0.4745   -4.6479   -4.6647 H   0  0  0  0  0  0  0  0  0  0  0  0
   -0.2008   -6.3925   -4.6379 H   0  0  0  0  0  0  0  0  0  0  0  0
    2.0301   -4.2835   -4.9234 H   0  0  0  0  0  0  0  0  0  0  0  0
    1.3895   -5.3166   -6.2095 H   0  0  0  0  0  0  0  0  0  0  0  0
    2.7250   -6.1106   -3.8405 H   0  0  0  0  0  0  0  0  0  0  0  0
    3.0807   -4.5651    1.3240 H   0  0  0  0  0  0  0  0  0  0  0  0
    5.7586   -2.8559    4.7341 H   0  0  0  0  0  0  0  0  0  0  0  0
    3.6677    1.2364    2.7964 H   0  0  0  0  0  0  0  0  0  0  0  0
    7.2515    0.2708    2.6682 H   0  0  0  0  0  0  0  0  0  0  0  0
   10.1745    3.4795    4.0408 H   0  0  0  0  0  0  0  0  0  0  0  0
   11.9821    1.1841    4.0233 H   0  0  0  0  0  0  0  0  0  0  0  0
   13.6880    2.8801    4.6871 H   0  0  0  0  0  0  0  0  0  0  0  0
   12.5546    4.2415    4.2736 H   0  0  0  0  0  0  0  0  0  0  0  0
   13.5548    2.0631    2.3108 H   0  0  0  0  0  0  0  0  0  0  0  0
   12.4162    3.4212    1.9064 H   0  0  0  0  0  0  0  0  0  0  0  0
    6.0833    4.8719    4.1264 H   0  0  0  0  0  0  0  0  0  0  0  0
  1  2  1  0  0  0  0
  1 37  1  0  0  0  0
  1 38  1  0  0  0  0
  1 39  1  0  0  0  0
  2  3  1  0  0  0  0
  2  4  1  0  0  0  0
  2 40  1  0  0  0  0
  3 41  1  0  0  0  0
  3 42  1  0  0  0  0
  3 43  1  0  0  0  0
  4  5  1  0  0  0  0
  4 36  2  0  0  0  0
  5  6  1  0  0  0  0
  5 15  2  0  0  0  0
  6  7  2  0  0  0  0
  6 14  1  0  0  0  0
  7  8  1  0  0  0  0
  8  9  2  0  0  0  0
  9 10  1  0  0  0  0
  9 14  1  0  0  0  0
 10 11  1  0  0  0  0
 10 44  1  0  0  0  0
 11 12  1  0  0  0  0
 11 45  1  0  0  0  0
 11 46  1  0  0  0  0
 12 13  1  0  0  0  0
 12 47  1  0  0  0  0
 12 48  1  0  0  0  0
 13 49  1  0  0  0  0
 15 16  1  0  0  0  0
 15 50  1  0  0  0  0
 16 17  1  0  0  0  0
 16 36  1  0  0  0  0
 17 18  2  0  0  0  0
 18 19  1  0  0  0  0
 18 51  1  0  0  0  0
 19 20  2  0  0  0  0
 20 21  1  0  0  0  0
 20 36  1  0  0  0  0
 21 22  1  0  0  0  0
 21 52  1  0  0  0  0
 22 23  1  0  0  0  0
 22 34  2  0  0  0  0
 23 24  2  0  0  0  0
 23 53  1  0  0  0  0
 24 25  1  0  0  0  0
 24 31  1  0  0  0  0
 25 26  2  0  0  0  0
 25 27  1  0  0  0  0
 27 28  1  0  0  0  0
 27 54  1  0  0  0  0
 28 29  1  0  0  0  0
 28 30  1  0  0  0  0
 28 55  1  0  0  0  0
 29 30  1  0  0  0  0
 29 56  1  0  0  0  0
 29 57  1  0  0  0  0
 30 58  1  0  0  0  0
 30 59  1  0  0  0  0
 31 32  1  0  0  0  0
 31 33  2  0  0  0  0
 33 34  1  0  0  0  0
 33 60  1  0  0  0  0
 34 35  1  0  0  0  0
M  END
$$$$
