CHEMBL3403510
 OpenBabel04072215363D

 42 44  0  0  0  0  0  0  0  0999 V2000
    1.0060    0.1551    0.3482 C   0  0  0  0  0  0  0  0  0  0  0  0
    2.3834    0.0009    0.0270 O   0  0  0  0  0  0  0  0  0  0  0  0
    3.1567   -0.6883    0.9222 C   0  0  0  0  0  0  0  0  0  0  0  0
    2.6357   -1.6299    1.8098 C   0  0  0  0  0  0  0  0  0  0  0  0
    3.4844   -2.3800    2.6332 C   0  0  0  0  0  0  0  0  0  0  0  0
    4.8821   -2.2599    2.5718 C   0  0  0  0  0  0  0  0  0  0  0  0
    5.7080   -3.1148    3.3232 N   0  0  0  0  0  0  0  0  0  0  0  0
    6.9761   -2.6282    3.8631 C   0  0  0  0  0  0  0  0  0  0  0  0
    5.4399   -4.4547    3.6908 C   0  0  0  0  0  0  0  0  0  0  0  0
    5.8980   -4.9459    4.8775 N   0  0  0  0  0  0  0  0  0  0  0  0
    5.6177   -6.2158    5.2470 C   0  0  0  0  0  0  0  0  0  0  0  0
    6.1492   -6.6678    6.5745 C   0  0  0  0  0  0  0  0  0  0  0  0
    4.9199   -7.1162    4.5401 N   0  0  0  0  0  0  0  0  0  0  0  0
    4.5262   -6.6265    3.3580 C   0  0  0  0  0  0  0  0  0  0  0  0
    3.8246   -7.3641    2.4457 O   0  0  0  0  0  0  0  0  0  0  0  0
    3.6210   -6.5775    1.3566 C   0  0  0  0  0  0  0  0  0  0  0  0
    2.8751   -7.1529    0.2228 C   0  0  0  0  0  0  0  0  0  0  0  0
    4.1920   -5.3392    1.5563 C   0  0  0  0  0  0  0  0  0  0  0  0
    4.7476   -5.3533    2.8618 C   0  0  0  0  0  0  0  0  0  0  0  0
    5.3873   -1.2955    1.6910 C   0  0  0  0  0  0  0  0  0  0  0  0
    4.5467   -0.5010    0.8880 C   0  0  0  0  0  0  0  0  0  0  0  0
    5.2312    0.3748    0.0800 O   0  0  0  0  0  0  0  0  0  0  0  0
    4.5858    1.6172   -0.1785 C   0  0  0  0  0  0  0  0  0  0  0  0
    0.5629    0.8204   -0.3990 H   0  0  0  0  0  0  0  0  0  0  0  0
    0.8835    0.6233    1.3306 H   0  0  0  0  0  0  0  0  0  0  0  0
    0.4712   -0.7979    0.2927 H   0  0  0  0  0  0  0  0  0  0  0  0
    1.5729   -1.8394    1.8666 H   0  0  0  0  0  0  0  0  0  0  0  0
    3.0268   -3.0949    3.3153 H   0  0  0  0  0  0  0  0  0  0  0  0
    7.2627   -1.6373    3.4988 H   0  0  0  0  0  0  0  0  0  0  0  0
    7.7931   -3.3097    3.5919 H   0  0  0  0  0  0  0  0  0  0  0  0
    6.9341   -2.5524    4.9561 H   0  0  0  0  0  0  0  0  0  0  0  0
    6.6635   -5.8515    7.0917 H   0  0  0  0  0  0  0  0  0  0  0  0
    6.8595   -7.4870    6.4302 H   0  0  0  0  0  0  0  0  0  0  0  0
    5.3294   -7.0158    7.2095 H   0  0  0  0  0  0  0  0  0  0  0  0
    2.6279   -8.2043    0.3960 H   0  0  0  0  0  0  0  0  0  0  0  0
    3.4663   -7.0844   -0.6935 H   0  0  0  0  0  0  0  0  0  0  0  0
    1.9417   -6.6018    0.0678 H   0  0  0  0  0  0  0  0  0  0  0  0
    4.1975   -4.5229    0.8442 H   0  0  0  0  0  0  0  0  0  0  0  0
    6.4591   -1.1625    1.5732 H   0  0  0  0  0  0  0  0  0  0  0  0
    5.3604    2.3450   -0.4410 H   0  0  0  0  0  0  0  0  0  0  0  0
    4.0564    2.0039    0.7000 H   0  0  0  0  0  0  0  0  0  0  0  0
    3.9193    1.5320   -1.0417 H   0  0  0  0  0  0  0  0  0  0  0  0
  1  2  1  0  0  0  0
  1 24  1  0  0  0  0
  1 25  1  0  0  0  0
  1 26  1  0  0  0  0
  2  3  1  0  0  0  0
  3  4  1  0  0  0  0
  3 21  2  0  0  0  0
  4  5  2  0  0  0  0
  4 27  1  0  0  0  0
  5  6  1  0  0  0  0
  5 28  1  0  0  0  0
  6  7  1  0  0  0  0
  6 20  2  0  0  0  0
  7  8  1  0  0  0  0
  7  9  1  0  0  0  0
  8 29  1  0  0  0  0
  8 30  1  0  0  0  0
  8 31  1  0  0  0  0
  9 10  1  0  0  0  0
  9 19  2  0  0  0  0
 10 11  2  0  0  0  0
 11 12  1  0  0  0  0
 11 13  1  0  0  0  0
 12 32  1  0  0  0  0
 12 33  1  0  0  0  0
 12 34  1  0  0  0  0
 13 14  2  0  0  0  0
 14 15  1  0  0  0  0
 14 19  1  0  0  0  0
 15 16  1  0  0  0  0
 16 17  1  0  0  0  0
 16 18  2  0  0  0  0
 17 35  1  0  0  0  0
 17 36  1  0  0  0  0
 17 37  1  0  0  0  0
 18 19  1  0  0  0  0
 18 38  1  0  0  0  0
 20 21  1  0  0  0  0
 20 39  1  0  0  0  0
 21 22  1  0  0  0  0
 22 23  1  0  0  0  0
 23 40  1  0  0  0  0
 23 41  1  0  0  0  0
 23 42  1  0  0  0  0
M  END
$$$$
