CHEMBL194062
 OpenBabel04072215363D

 35 37  0  0  0  0  0  0  0  0999 V2000
    1.1575    0.1243    0.0862 N   0  0  0  0  0  0  0  0  0  0  0  0
    2.8298   -0.0372    0.1287 S   0  0  0  0  0  0  0  0  0  0  0  0
    3.2325    0.1955    1.4913 O   0  0  0  0  0  0  0  0  0  0  0  0
    3.1131   -1.2689   -0.5711 O   0  0  0  0  0  0  0  0  0  0  0  0
    3.3413    1.3283   -0.8651 C   0  0  0  0  0  0  0  0  0  0  0  0
    3.0250    2.6136   -0.4442 C   0  0  0  0  0  0  0  0  0  0  0  0
    3.3373    3.6949   -1.2674 C   0  0  0  0  0  0  0  0  0  0  0  0
    3.9726    3.5245   -2.5081 C   0  0  0  0  0  0  0  0  0  0  0  0
    4.2025    4.5936   -3.3952 N   0  0  0  0  0  0  0  0  0  0  0  0
    3.6954    5.8351   -3.2796 C   0  0  0  0  0  0  0  0  0  0  0  0
    2.7091    6.2781   -2.5290 N   0  0  0  0  0  0  0  0  0  0  0  0
    2.6540    7.6135   -2.7898 C   0  0  0  0  0  0  0  0  0  0  0  0
    3.6103    7.9557   -3.7170 C   0  0  0  0  0  0  0  0  0  0  0  0
    3.9915    9.1963   -4.3713 C   0  0  0  0  0  0  0  0  0  0  0  0
    3.2946   10.3803   -4.0779 C   0  0  0  0  0  0  0  0  0  0  0  0
    3.5973   11.5737   -4.7348 C   0  0  0  0  0  0  0  0  0  0  0  0
    4.6092   11.6015   -5.6892 C   0  0  0  0  0  0  0  0  0  0  0  0
    5.3283   10.4420   -5.9735 C   0  0  0  0  0  0  0  0  0  0  0  0
    5.0242    9.2466   -5.3157 C   0  0  0  0  0  0  0  0  0  0  0  0
    4.2801    6.8039   -4.0526 O   0  0  0  0  0  0  0  0  0  0  0  0
    4.3015    2.2166   -2.8989 C   0  0  0  0  0  0  0  0  0  0  0  0
    3.9946    1.1204   -2.0808 C   0  0  0  0  0  0  0  0  0  0  0  0
    0.7827    0.1327    1.0346 H   0  0  0  0  0  0  0  0  0  0  0  0
    0.7445   -0.5781   -0.5251 H   0  0  0  0  0  0  0  0  0  0  0  0
    2.5153    2.7884    0.4992 H   0  0  0  0  0  0  0  0  0  0  0  0
    3.0642    4.6834   -0.9080 H   0  0  0  0  0  0  0  0  0  0  0  0
    4.8974    4.4365   -4.1116 H   0  0  0  0  0  0  0  0  0  0  0  0
    1.9301    8.2503   -2.3032 H   0  0  0  0  0  0  0  0  0  0  0  0
    2.4953   10.3893   -3.3404 H   0  0  0  0  0  0  0  0  0  0  0  0
    3.0356   12.4755   -4.5056 H   0  0  0  0  0  0  0  0  0  0  0  0
    4.8364   12.5266   -6.2121 H   0  0  0  0  0  0  0  0  0  0  0  0
    6.1221   10.4644   -6.7156 H   0  0  0  0  0  0  0  0  0  0  0  0
    5.5957    8.3534   -5.5576 H   0  0  0  0  0  0  0  0  0  0  0  0
    4.7767    2.0338   -3.8595 H   0  0  0  0  0  0  0  0  0  0  0  0
    4.2421    0.1140   -2.4141 H   0  0  0  0  0  0  0  0  0  0  0  0
  1  2  1  0  0  0  0
  1 23  1  0  0  0  0
  1 24  1  0  0  0  0
  2  3  2  0  0  0  0
  2  4  2  0  0  0  0
  2  5  1  0  0  0  0
  5  6  1  0  0  0  0
  5 22  2  0  0  0  0
  6  7  2  0  0  0  0
  6 25  1  0  0  0  0
  7  8  1  0  0  0  0
  7 26  1  0  0  0  0
  8  9  1  0  0  0  0
  8 21  2  0  0  0  0
  9 10  1  0  0  0  0
  9 27  1  0  0  0  0
 10 11  2  0  0  0  0
 10 20  1  0  0  0  0
 11 12  1  0  0  0  0
 12 13  2  0  0  0  0
 12 28  1  0  0  0  0
 13 14  1  0  0  0  0
 13 20  1  0  0  0  0
 14 15  1  0  0  0  0
 14 19  2  0  0  0  0
 15 16  2  0  0  0  0
 15 29  1  0  0  0  0
 16 17  1  0  0  0  0
 16 30  1  0  0  0  0
 17 18  2  0  0  0  0
 17 31  1  0  0  0  0
 18 19  1  0  0  0  0
 18 32  1  0  0  0  0
 19 33  1  0  0  0  0
 21 22  1  0  0  0  0
 21 34  1  0  0  0  0
 22 35  1  0  0  0  0
M  END
$$$$
