CHEMBL258396
 OpenBabel04072215363D

 55 59  0  0  0  0  0  0  0  0999 V2000
    0.4260   -0.0726    1.8364 C   0  0  0  0  0  0  0  0  0  0  0  0
   -0.5057    0.0484    2.9281 N   0  0  0  0  0  0  0  0  0  0  0  0
   -0.8466    1.2745    3.3765 N   0  0  0  0  0  0  0  0  0  0  0  0
   -1.7714    0.9769    4.2837 C   0  0  0  0  0  0  0  0  0  0  0  0
   -2.0458   -0.3512    4.4294 N   0  0  0  0  0  0  0  0  0  0  0  0
   -1.2063   -0.9316    3.5923 C   0  0  0  0  0  0  0  0  0  0  0  0
   -1.0765   -2.3506    3.4452 C   0  0  0  0  0  0  0  0  0  0  0  0
   -2.0709   -3.3041    3.6124 C   0  0  0  0  0  0  0  0  0  0  0  0
   -1.6028   -4.6313    3.3868 C   0  0  0  0  0  0  0  0  0  0  0  0
   -2.3663   -5.7601    3.4502 N   0  0  0  0  0  0  0  0  0  0  0  0
   -1.7324   -6.9109    3.1530 C   0  0  0  0  0  0  0  0  0  0  0  0
   -0.3970   -7.0220    2.8147 C   0  0  0  0  0  0  0  0  0  0  0  0
    0.3984   -5.8781    2.8371 C   0  0  0  0  0  0  0  0  0  0  0  0
    1.7537   -5.8746    2.5832 O   0  0  0  0  0  0  0  0  0  0  0  0
    2.5063   -6.9268    3.0458 C   0  0  0  0  0  0  0  0  0  0  0  0
    2.2229   -7.6137    4.2256 C   0  0  0  0  0  0  0  0  0  0  0  0
    2.9380   -8.7657    4.5391 C   0  0  0  0  0  0  0  0  0  0  0  0
    4.0151   -9.1787    3.7433 C   0  0  0  0  0  0  0  0  0  0  0  0
    4.6480  -10.3670    4.1402 N   0  0  0  0  0  0  0  0  0  0  0  0
    5.9137  -10.8579    3.9285 C   0  0  0  0  0  0  0  0  0  0  0  0
    7.2262  -10.1104    3.2176 S   0  0  0  0  0  0  0  0  0  0  0  0
    6.1317  -12.1230    4.4563 N   0  0  0  0  0  0  0  0  0  0  0  0
    5.2582  -12.8922    5.2124 C   0  0  0  0  0  0  0  0  0  0  0  0
    4.0756  -12.5962    5.3881 O   0  0  0  0  0  0  0  0  0  0  0  0
    5.8792  -14.1185    5.8431 C   0  0  0  0  0  0  0  0  0  0  0  0
    5.8826  -15.3287    4.9473 C   0  0  0  0  0  0  0  0  0  0  0  0
    7.0753  -16.0211    4.6964 C   0  0  0  0  0  0  0  0  0  0  0  0
    7.0691  -17.1810    3.9200 C   0  0  0  0  0  0  0  0  0  0  0  0
    5.8737  -17.6605    3.3883 C   0  0  0  0  0  0  0  0  0  0  0  0
    4.6823  -16.9811    3.6315 C   0  0  0  0  0  0  0  0  0  0  0  0
    4.6849  -15.8231    4.4099 C   0  0  0  0  0  0  0  0  0  0  0  0
    4.3548   -8.4356    2.6151 C   0  0  0  0  0  0  0  0  0  0  0  0
    3.6012   -7.3142    2.2763 C   0  0  0  0  0  0  0  0  0  0  0  0
    3.9215   -6.6303    1.1677 F   0  0  0  0  0  0  0  0  0  0  0  0
   -0.2448   -4.6622    3.0944 C   0  0  0  0  0  0  0  0  0  0  0  0
    0.4263   -3.0923    3.1291 S   0  0  0  0  0  0  0  0  0  0  0  0
    0.6947    0.9232    1.4720 H   0  0  0  0  0  0  0  0  0  0  0  0
   -0.0490   -0.6393    1.0312 H   0  0  0  0  0  0  0  0  0  0  0  0
    1.3305   -0.5687    2.1927 H   0  0  0  0  0  0  0  0  0  0  0  0
   -2.2635    1.7507    4.8608 H   0  0  0  0  0  0  0  0  0  0  0  0
   -3.0937   -3.0618    3.8716 H   0  0  0  0  0  0  0  0  0  0  0  0
   -2.3548   -7.8017    3.2027 H   0  0  0  0  0  0  0  0  0  0  0  0
    0.0157   -7.9965    2.5755 H   0  0  0  0  0  0  0  0  0  0  0  0
    1.4242   -7.2920    4.8887 H   0  0  0  0  0  0  0  0  0  0  0  0
    2.6532   -9.3279    5.4267 H   0  0  0  0  0  0  0  0  0  0  0  0
    4.0897  -10.9465    4.7702 H   0  0  0  0  0  0  0  0  0  0  0  0
    7.0734  -12.4654    4.3155 H   0  0  0  0  0  0  0  0  0  0  0  0
    5.3114  -14.3515    6.7527 H   0  0  0  0  0  0  0  0  0  0  0  0
    6.8936  -13.8675    6.1755 H   0  0  0  0  0  0  0  0  0  0  0  0
    8.0178  -15.6768    5.1164 H   0  0  0  0  0  0  0  0  0  0  0  0
    7.9962  -17.7193    3.7391 H   0  0  0  0  0  0  0  0  0  0  0  0
    5.8690  -18.5688    2.7913 H   0  0  0  0  0  0  0  0  0  0  0  0
    3.7477  -17.3588    3.2243 H   0  0  0  0  0  0  0  0  0  0  0  0
    3.7398  -15.3177    4.6045 H   0  0  0  0  0  0  0  0  0  0  0  0
    5.1443   -8.7300    1.9370 H   0  0  0  0  0  0  0  0  0  0  0  0
  1  2  1  0  0  0  0
  1 37  1  0  0  0  0
  1 38  1  0  0  0  0
  1 39  1  0  0  0  0
  2  3  1  0  0  0  0
  2  6  1  0  0  0  0
  3  4  2  0  0  0  0
  4  5  1  0  0  0  0
  4 40  1  0  0  0  0
  5  6  2  0  0  0  0
  6  7  1  0  0  0  0
  7  8  2  0  0  0  0
  7 36  1  0  0  0  0
  8  9  1  0  0  0  0
  8 41  1  0  0  0  0
  9 10  1  0  0  0  0
  9 35  2  0  0  0  0
 10 11  2  0  0  0  0
 11 12  1  0  0  0  0
 11 42  1  0  0  0  0
 12 13  2  0  0  0  0
 12 43  1  0  0  0  0
 13 14  1  0  0  0  0
 13 35  1  0  0  0  0
 14 15  1  0  0  0  0
 15 16  1  0  0  0  0
 15 33  2  0  0  0  0
 16 17  2  0  0  0  0
 16 44  1  0  0  0  0
 17 18  1  0  0  0  0
 17 45  1  0  0  0  0
 18 19  1  0  0  0  0
 18 32  2  0  0  0  0
 19 20  1  0  0  0  0
 19 46  1  0  0  0  0
 20 21  2  0  0  0  0
 20 22  1  0  0  0  0
 22 23  1  0  0  0  0
 22 47  1  0  0  0  0
 23 24  2  0  0  0  0
 23 25  1  0  0  0  0
 25 26  1  0  0  0  0
 25 48  1  0  0  0  0
 25 49  1  0  0  0  0
 26 27  1  0  0  0  0
 26 31  2  0  0  0  0
 27 28  2  0  0  0  0
 27 50  1  0  0  0  0
 28 29  1  0  0  0  0
 28 51  1  0  0  0  0
 29 30  2  0  0  0  0
 29 52  1  0  0  0  0
 30 31  1  0  0  0  0
 30 53  1  0  0  0  0
 31 54  1  0  0  0  0
 32 33  1  0  0  0  0
 32 55  1  0  0  0  0
 33 34  1  0  0  0  0
 35 36  1  0  0  0  0
M  END
$$$$
