CHEMBL374627
 OpenBabel04072215373D

 62 66  0  0  0  0  0  0  0  0999 V2000
    1.8889    0.0238   -1.1186 C   0  0  0  0  0  0  0  0  0  0  0  0
    0.4425    0.2140   -1.1119 N   0  0  0  0  0  0  0  0  0  0  0  0
   -0.2550   -1.0266   -0.7391 C   0  0  0  0  0  0  0  0  0  0  0  0
   -1.7854   -0.8133   -0.7290 C   0  0  0  0  0  0  0  0  0  0  0  0
   -2.2450    0.2217    0.2236 N   0  0  0  0  0  0  0  0  0  0  0  0
   -2.0547   -0.1389    1.6419 C   0  0  0  0  0  0  0  0  0  0  0  0
   -2.7732   -1.4046    2.0841 C   0  0  0  0  0  0  0  0  0  0  0  0
   -2.1134   -2.6611    1.9743 C   0  0  0  0  0  0  0  0  0  0  0  0
   -2.7413   -3.8606    2.3120 C   0  0  0  0  0  0  0  0  0  0  0  0
   -4.0150   -3.7733    2.8114 C   0  0  0  0  0  0  0  0  0  0  0  0
   -4.6891   -2.5332    2.9878 C   0  0  0  0  0  0  0  0  0  0  0  0
   -4.0777   -1.3478    2.6028 C   0  0  0  0  0  0  0  0  0  0  0  0
   -6.0792   -2.6936    3.6320 C   0  0  0  0  0  0  0  0  0  0  0  0
   -6.0740   -4.1818    3.7297 C   0  0  0  0  0  0  0  0  0  0  0  0
   -6.8513   -5.2542    4.1718 C   0  0  0  0  0  0  0  0  0  0  0  0
   -8.1811   -5.1283    4.7662 C   0  0  0  0  0  0  0  0  0  0  0  0
   -9.0955   -4.1416    4.4643 C   0  0  0  0  0  0  0  0  0  0  0  0
  -10.5261   -4.2845    5.3833 S   0  0  0  0  0  0  0  0  0  0  0  0
   -9.9357   -5.6702    6.1880 C   0  0  0  0  0  0  0  0  0  0  0  0
  -10.6885   -6.3454    7.1856 C   0  0  0  0  0  0  0  0  0  0  0  0
  -11.4210   -6.9357    8.0883 C   0  0  0  0  0  0  0  0  0  0  0  0
  -12.2750   -7.6238    9.1407 C   0  0  0  0  0  0  0  0  0  0  0  0
  -12.9440   -8.8786    8.5209 C   0  0  0  0  0  0  0  0  0  0  0  0
  -11.9126   -9.8985    8.0198 C   0  0  0  0  0  0  0  0  0  0  0  0
  -13.8714   -9.5437    9.5391 C   0  0  0  0  0  0  0  0  0  0  0  0
  -13.7767   -8.4972    7.4163 O   0  0  0  0  0  0  0  0  0  0  0  0
   -8.6803   -6.0304    5.7546 C   0  0  0  0  0  0  0  0  0  0  0  0
   -6.2141   -6.4311    4.0000 N   0  0  0  0  0  0  0  0  0  0  0  0
   -5.0362   -6.0905    3.4122 N   0  0  0  0  0  0  0  0  0  0  0  0
   -4.9243   -4.7571    3.2758 C   0  0  0  0  0  0  0  0  0  0  0  0
   -1.5038    1.4676   -0.1022 C   0  0  0  0  0  0  0  0  0  0  0  0
    0.0402    1.3123   -0.2124 C   0  0  0  0  0  0  0  0  0  0  0  0
    2.1653   -0.7922   -1.7964 H   0  0  0  0  0  0  0  0  0  0  0  0
    2.2845   -0.2098   -0.1238 H   0  0  0  0  0  0  0  0  0  0  0  0
    2.3904    0.9234   -1.4903 H   0  0  0  0  0  0  0  0  0  0  0  0
    0.0918   -1.3766    0.2404 H   0  0  0  0  0  0  0  0  0  0  0  0
   -0.0213   -1.8183   -1.4602 H   0  0  0  0  0  0  0  0  0  0  0  0
   -2.3046   -1.7629   -0.5678 H   0  0  0  0  0  0  0  0  0  0  0  0
   -2.0954   -0.5059   -1.7385 H   0  0  0  0  0  0  0  0  0  0  0  0
   -2.4413    0.6835    2.2598 H   0  0  0  0  0  0  0  0  0  0  0  0
   -0.9963   -0.2285    1.9126 H   0  0  0  0  0  0  0  0  0  0  0  0
   -1.0937   -2.7033    1.6103 H   0  0  0  0  0  0  0  0  0  0  0  0
   -2.2338   -4.8096    2.1931 H   0  0  0  0  0  0  0  0  0  0  0  0
   -4.5935   -0.3982    2.7100 H   0  0  0  0  0  0  0  0  0  0  0  0
   -6.8655   -2.3178    2.9739 H   0  0  0  0  0  0  0  0  0  0  0  0
   -6.1050   -2.2234    4.6192 H   0  0  0  0  0  0  0  0  0  0  0  0
   -9.0020   -3.3433    3.7427 H   0  0  0  0  0  0  0  0  0  0  0  0
  -13.0376   -6.9110    9.4753 H   0  0  0  0  0  0  0  0  0  0  0  0
  -11.6502   -7.8959    9.9983 H   0  0  0  0  0  0  0  0  0  0  0  0
  -11.2816  -10.2650    8.8358 H   0  0  0  0  0  0  0  0  0  0  0  0
  -11.2631   -9.4724    7.2473 H   0  0  0  0  0  0  0  0  0  0  0  0
  -12.4091  -10.7547    7.5492 H   0  0  0  0  0  0  0  0  0  0  0  0
  -13.3233   -9.8988   10.4175 H   0  0  0  0  0  0  0  0  0  0  0  0
  -14.3936  -10.3957    9.0876 H   0  0  0  0  0  0  0  0  0  0  0  0
  -14.6504   -8.8475    9.8694 H   0  0  0  0  0  0  0  0  0  0  0  0
  -13.2031   -8.1020    6.7315 H   0  0  0  0  0  0  0  0  0  0  0  0
   -8.1283   -6.8830    6.1377 H   0  0  0  0  0  0  0  0  0  0  0  0
   -4.3908   -6.8248    3.1464 H   0  0  0  0  0  0  0  0  0  0  0  0
   -1.7440    2.2538    0.6242 H   0  0  0  0  0  0  0  0  0  0  0  0
   -1.8795    1.8371   -1.0664 H   0  0  0  0  0  0  0  0  0  0  0  0
    0.4579    1.1586    0.7909 H   0  0  0  0  0  0  0  0  0  0  0  0
    0.4525    2.2552   -0.5912 H   0  0  0  0  0  0  0  0  0  0  0  0
  1  2  1  0  0  0  0
  1 33  1  0  0  0  0
  1 34  1  0  0  0  0
  1 35  1  0  0  0  0
  2  3  1  0  0  0  0
  2 32  1  0  0  0  0
  3  4  1  0  0  0  0
  3 36  1  0  0  0  0
  3 37  1  0  0  0  0
  4  5  1  0  0  0  0
  4 38  1  0  0  0  0
  4 39  1  0  0  0  0
  5  6  1  0  0  0  0
  5 31  1  0  0  0  0
  6  7  1  0  0  0  0
  6 40  1  0  0  0  0
  6 41  1  0  0  0  0
  7  8  1  0  0  0  0
  7 12  2  0  0  0  0
  8  9  2  0  0  0  0
  8 42  1  0  0  0  0
  9 10  1  0  0  0  0
  9 43  1  0  0  0  0
 10 11  2  0  0  0  0
 10 30  1  0  0  0  0
 11 12  1  0  0  0  0
 11 13  1  0  0  0  0
 12 44  1  0  0  0  0
 13 14  1  0  0  0  0
 13 45  1  0  0  0  0
 13 46  1  0  0  0  0
 14 15  1  0  0  0  0
 14 30  2  0  0  0  0
 15 16  1  0  0  0  0
 15 28  2  0  0  0  0
 16 17  2  0  0  0  0
 16 27  1  0  0  0  0
 17 18  1  0  0  0  0
 17 47  1  0  0  0  0
 18 19  1  0  0  0  0
 19 20  1  0  0  0  0
 19 27  2  0  0  0  0
 20 21  3  0  0  0  0
 21 22  1  0  0  0  0
 22 23  1  0  0  0  0
 22 48  1  0  0  0  0
 22 49  1  0  0  0  0
 23 24  1  0  0  0  0
 23 25  1  0  0  0  0
 23 26  1  0  0  0  0
 24 50  1  0  0  0  0
 24 51  1  0  0  0  0
 24 52  1  0  0  0  0
 25 53  1  0  0  0  0
 25 54  1  0  0  0  0
 25 55  1  0  0  0  0
 26 56  1  0  0  0  0
 27 57  1  0  0  0  0
 28 29  1  0  0  0  0
 29 30  1  0  0  0  0
 29 58  1  0  0  0  0
 31 32  1  0  0  0  0
 31 59  1  0  0  0  0
 31 60  1  0  0  0  0
 32 61  1  0  0  0  0
 32 62  1  0  0  0  0
M  END
$$$$
