CHEMBL3915533
 OpenBabel04072215373D

 70 73  0  0  1  0  0  0  0  0999 V2000
    0.5658    0.0264   -1.0303 C   0  0  0  0  0  0  0  0  0  0  0  0
    1.9244   -0.0355   -1.3188 O   0  0  0  0  0  0  0  0  0  0  0  0
    2.7905    1.0210   -1.3730 C   0  0  0  0  0  0  0  0  0  0  0  0
    2.4682    2.2631   -0.8356 C   0  0  0  0  0  0  0  0  0  0  0  0
    3.3626    3.3436   -0.9148 C   0  0  0  0  0  0  0  0  0  0  0  0
    3.1093    4.5432   -0.3573 O   0  0  0  0  0  0  0  0  0  0  0  0
    2.0587    4.8031    0.5037 C   0  0  0  0  0  0  0  0  0  0  0  0
    4.5979    3.1765   -1.5718 C   0  0  0  0  0  0  0  0  0  0  0  0
    5.0033    1.9390   -2.0982 C   0  0  0  0  0  0  0  0  0  0  0  0
    6.3003    1.7512   -2.7510 N   0  0  0  0  0  0  0  0  0  0  0  0
    6.7993    0.3457   -2.9355 C   0  0  0  0  0  0  0  0  0  0  0  0
    8.2919    0.0376   -2.5082 C   0  0  3  0  0  0  0  0  0  0  0  0
    9.2525    0.6940   -3.2935 O   0  0  0  0  0  0  0  0  0  0  0  0
    8.6349    0.2060   -1.0062 C   0  0  0  0  0  0  0  0  0  0  0  0
   10.0973    0.0795   -0.7958 N   0  0  0  0  0  0  0  0  0  0  0  0
   10.7724   -1.1431   -1.2797 C   0  0  0  0  0  0  0  0  0  0  0  0
   11.8123   -1.5089   -0.2175 C   0  0  0  0  0  0  0  0  0  0  0  0
   11.9969   -0.2069    0.5310 C   0  0  0  0  0  0  0  0  0  0  0  0
   12.5427   -0.3865    1.7901 F   0  0  0  0  0  0  0  0  0  0  0  0
   12.7845    0.6632   -0.2073 F   0  0  0  0  0  0  0  0  0  0  0  0
   10.5636    0.2969    0.5711 C   0  0  0  0  0  0  0  0  0  0  0  0
    7.1858    2.7965   -3.3010 C   0  0  0  0  0  0  0  0  0  0  0  0
    7.7855    2.4322   -4.5228 C   0  0  0  0  0  0  0  0  0  0  0  0
    8.9660    2.9745   -4.9137 C   0  0  0  0  0  0  0  0  0  0  0  0
    9.5275    3.9773   -4.1855 C   0  0  0  0  0  0  0  0  0  0  0  0
   10.8180    4.2453   -4.4473 N   0  0  0  0  0  0  0  0  0  0  0  0
   11.4406    5.2789   -3.8900 C   0  0  0  0  0  0  0  0  0  0  0  0
   10.6531    6.2614   -3.2939 C   0  0  0  0  0  0  0  0  0  0  0  0
   11.0697    7.6387   -3.7821 C   0  0  0  0  0  0  0  0  0  0  0  0
   12.0591    7.8215   -4.7732 C   0  0  0  0  0  0  0  0  0  0  0  0
   12.0269    9.0600   -5.2425 N   0  0  0  0  0  0  0  0  0  0  0  0
   11.0786    9.7036   -4.6020 N   0  0  0  0  0  0  0  0  0  0  0  0
   10.7060   11.0468   -5.0117 C   0  0  0  0  0  0  0  0  0  0  0  0
   10.4853    8.8991   -3.6747 C   0  0  0  0  0  0  0  0  0  0  0  0
    9.3860    5.9031   -2.8225 N   0  0  0  0  0  0  0  0  0  0  0  0
    8.8378    4.6736   -3.1970 C   0  0  0  0  0  0  0  0  0  0  0  0
    7.6459    4.0374   -2.6795 C   0  0  0  0  0  0  0  0  0  0  0  0
    4.0474    0.8622   -1.9832 C   0  0  0  0  0  0  0  0  0  0  0  0
    2.0159    0.3285    2.8313 Cl  0  0  0  0  0  0  0  0  0  0  0  0
    0.1466   -0.9998   -0.9677 H   0  0  0  0  0  0  0  0  0  0  0  0
    0.0301    0.5696   -1.8390 H   0  0  0  0  0  0  0  0  0  0  0  0
    0.3645    0.5194   -0.0570 H   0  0  0  0  0  0  0  0  0  0  0  0
    1.5207    2.4001   -0.3340 H   0  0  0  0  0  0  0  0  0  0  0  0
    2.1449    5.8467    0.8688 H   0  0  0  0  0  0  0  0  0  0  0  0
    2.1160    4.1207    1.3827 H   0  0  0  0  0  0  0  0  0  0  0  0
    1.0849    4.6762   -0.0117 H   0  0  0  0  0  0  0  0  0  0  0  0
    5.2192    4.0374   -1.6243 H   0  0  0  0  0  0  0  0  0  0  0  0
    6.6897    0.0414   -3.9968 H   0  0  0  0  0  0  0  0  0  0  0  0
    6.2144   -0.3961   -2.3776 H   0  0  0  0  0  0  0  0  0  0  0  0
    8.4468   -1.0371   -2.7332 H   0  0  0  0  0  0  0  0  0  0  0  0
    9.5414    1.5205   -2.8222 H   0  0  0  0  0  0  0  0  0  0  0  0
    8.0691   -0.5272   -0.3952 H   0  0  0  0  0  0  0  0  0  0  0  0
    8.3402    1.2341   -0.7010 H   0  0  0  0  0  0  0  0  0  0  0  0
   11.2849   -0.8792   -2.2307 H   0  0  0  0  0  0  0  0  0  0  0  0
   10.0904   -2.0036   -1.4516 H   0  0  0  0  0  0  0  0  0  0  0  0
   12.7429   -1.9746   -0.6124 H   0  0  0  0  0  0  0  0  0  0  0  0
   11.3352   -2.2222    0.4895 H   0  0  0  0  0  0  0  0  0  0  0  0
   10.5012    1.3636    0.8744 H   0  0  0  0  0  0  0  0  0  0  0  0
    9.9630   -0.3293    1.2697 H   0  0  0  0  0  0  0  0  0  0  0  0
    7.4622    1.5943   -5.1106 H   0  0  0  0  0  0  0  0  0  0  0  0
    9.4995    2.5398   -5.7524 H   0  0  0  0  0  0  0  0  0  0  0  0
   12.4592    5.4178   -4.1902 H   0  0  0  0  0  0  0  0  0  0  0  0
   12.7021    7.0965   -5.2477 H   0  0  0  0  0  0  0  0  0  0  0  0
   11.2798   11.3228   -5.9313 H   0  0  0  0  0  0  0  0  0  0  0  0
   10.9317   11.7760   -4.2156 H   0  0  0  0  0  0  0  0  0  0  0  0
    9.6325   11.0578   -5.2892 H   0  0  0  0  0  0  0  0  0  0  0  0
    9.6389    9.1879   -3.0701 H   0  0  0  0  0  0  0  0  0  0  0  0
    7.2207    4.4549   -1.7779 H   0  0  0  0  0  0  0  0  0  0  0  0
    4.2185   -0.1208   -2.3902 H   0  0  0  0  0  0  0  0  0  0  0  0
    1.7492    1.1594    1.7723 H   0  0  0  0  0  0  0  0  0  0  0  0
  1  2  1  0  0  0  0
  1 40  1  0  0  0  0
  1 41  1  0  0  0  0
  1 42  1  0  0  0  0
  2  3  1  0  0  0  0
  3  4  1  0  0  0  0
  3 38  2  0  0  0  0
  4  5  2  0  0  0  0
  4 43  1  0  0  0  0
  5  6  1  0  0  0  0
  5  8  1  0  0  0  0
  6  7  1  0  0  0  0
  7 44  1  0  0  0  0
  7 45  1  0  0  0  0
  7 46  1  0  0  0  0
  8  9  2  0  0  0  0
  8 47  1  0  0  0  0
  9 10  1  0  0  0  0
  9 38  1  0  0  0  0
 10 11  1  0  0  0  0
 10 22  1  0  0  0  0
 11 12  1  0  0  0  0
 11 48  1  0  0  0  0
 11 49  1  0  0  0  0
 12 13  1  0  0  0  0
 12 14  1  0  0  0  0
 12 50  1  0  0  0  0
 13 51  1  0  0  0  0
 14 15  1  0  0  0  0
 14 52  1  0  0  0  0
 14 53  1  0  0  0  0
 15 16  1  0  0  0  0
 15 21  1  0  0  0  0
 16 17  1  0  0  0  0
 16 54  1  0  0  0  0
 16 55  1  0  0  0  0
 17 18  1  0  0  0  0
 17 56  1  0  0  0  0
 17 57  1  0  0  0  0
 18 19  1  0  0  0  0
 18 20  1  0  0  0  0
 18 21  1  0  0  0  0
 21 58  1  0  0  0  0
 21 59  1  0  0  0  0
 22 23  1  0  0  0  0
 22 37  2  0  0  0  0
 23 24  2  0  0  0  0
 23 60  1  0  0  0  0
 24 25  1  0  0  0  0
 24 61  1  0  0  0  0
 25 26  1  0  0  0  0
 25 36  2  0  0  0  0
 26 27  2  0  0  0  0
 27 28  1  0  0  0  0
 27 62  1  0  0  0  0
 28 29  1  0  0  0  0
 28 35  2  0  0  0  0
 29 30  1  0  0  0  0
 29 34  2  0  0  0  0
 30 31  2  0  0  0  0
 30 63  1  0  0  0  0
 31 32  1  0  0  0  0
 32 33  1  0  0  0  0
 32 34  1  0  0  0  0
 33 64  1  0  0  0  0
 33 65  1  0  0  0  0
 33 66  1  0  0  0  0
 34 67  1  0  0  0  0
 35 36  1  0  0  0  0
 36 37  1  0  0  0  0
 37 68  1  0  0  0  0
 38 69  1  0  0  0  0
 39 70  1  0  0  0  0
M  END
$$$$
