CHEMBL4225317
 OpenBabel04072215383D

 60 63  0  0  0  0  0  0  0  0999 V2000
    3.1605    1.2394   -0.0274 O   0  0  0  0  0  0  0  0  0  0  0  0
    2.5228    0.1961    0.0573 C   0  0  0  0  0  0  0  0  0  0  0  0
    1.0671    0.1203   -0.2256 C   0  0  0  0  0  0  0  0  0  0  0  0
    0.4927    1.1217   -0.8993 C   0  0  0  0  0  0  0  0  0  0  0  0
   -0.8301    1.2353   -1.2294 N   0  0  0  0  0  0  0  0  0  0  0  0
   -1.4277    2.1947   -2.0712 C   0  0  0  0  0  0  0  0  0  0  0  0
   -0.6752    2.9368   -2.9980 C   0  0  0  0  0  0  0  0  0  0  0  0
   -1.2720    3.9104   -3.8000 C   0  0  0  0  0  0  0  0  0  0  0  0
   -2.6336    4.1754   -3.6852 C   0  0  0  0  0  0  0  0  0  0  0  0
   -3.3988    3.4614   -2.7652 C   0  0  0  0  0  0  0  0  0  0  0  0
   -2.8018    2.4844   -1.9665 C   0  0  0  0  0  0  0  0  0  0  0  0
   -3.7958    1.6453   -0.8224 Cl  0  0  0  0  0  0  0  0  0  0  0  0
    3.1868   -1.0479    0.5029 C   0  0  0  0  0  0  0  0  0  0  0  0
    4.2305   -0.9477    1.4212 C   0  0  0  0  0  0  0  0  0  0  0  0
    4.8695   -2.1051    1.8611 C   0  0  0  0  0  0  0  0  0  0  0  0
    4.4683   -3.3732    1.4031 C   0  0  0  0  0  0  0  0  0  0  0  0
    5.1223   -4.4592    2.0033 N   0  0  0  0  0  0  0  0  0  0  0  0
    4.8301   -5.8028    2.1321 C   0  0  0  0  0  0  0  0  0  0  0  0
    3.9376   -6.7970    1.1396 S   0  0  0  0  0  0  0  0  0  0  0  0
    5.4442   -6.3704    3.2444 N   0  0  0  0  0  0  0  0  0  0  0  0
    5.7502   -5.7016    4.4515 C   0  0  0  0  0  0  0  0  0  0  0  0
    5.0248   -4.5719    4.8589 C   0  0  0  0  0  0  0  0  0  0  0  0
    5.4471   -3.8005    5.9376 C   0  0  0  0  0  0  0  0  0  0  0  0
    6.5785   -4.1973    6.6488 C   0  0  0  0  0  0  0  0  0  0  0  0
    7.2330   -3.1009    7.8923 S   0  0  0  0  0  0  0  0  0  0  0  0
    8.6391   -3.4128    8.0576 O   0  0  0  0  0  0  0  0  0  0  0  0
    6.8128   -1.7631    7.5301 O   0  0  0  0  0  0  0  0  0  0  0  0
    6.3955   -3.5077    9.2887 N   0  0  0  0  0  0  0  0  0  0  0  0
    6.5761   -4.8243    9.7445 C   0  0  0  0  0  0  0  0  0  0  0  0
    7.6880   -5.2078   10.4723 C   0  0  0  0  0  0  0  0  0  0  0  0
    7.7664   -6.5351   10.8796 C   0  0  0  0  0  0  0  0  0  0  0  0
    6.7526   -7.4176   10.5182 C   0  0  0  0  0  0  0  0  0  0  0  0
    5.6957   -6.9322    9.7625 C   0  0  0  0  0  0  0  0  0  0  0  0
    5.5811   -5.6447    9.3700 N   0  0  0  0  0  0  0  0  0  0  0  0
    7.2550   -5.3766    6.3138 C   0  0  0  0  0  0  0  0  0  0  0  0
    6.8219   -6.1461    5.2248 C   0  0  0  0  0  0  0  0  0  0  0  0
    3.4426   -3.4615    0.4705 C   0  0  0  0  0  0  0  0  0  0  0  0
    2.8099   -2.3022    0.0099 C   0  0  0  0  0  0  0  0  0  0  0  0
    0.5051   -0.7398    0.1119 H   0  0  0  0  0  0  0  0  0  0  0  0
    1.1062    1.9639   -1.2143 H   0  0  0  0  0  0  0  0  0  0  0  0
   -1.4804    0.5790   -0.8052 H   0  0  0  0  0  0  0  0  0  0  0  0
    0.3871    2.7471   -3.1280 H   0  0  0  0  0  0  0  0  0  0  0  0
   -0.6652    4.4626   -4.5162 H   0  0  0  0  0  0  0  0  0  0  0  0
   -3.0943    4.9368   -4.3087 H   0  0  0  0  0  0  0  0  0  0  0  0
   -4.4613    3.6778   -2.6699 H   0  0  0  0  0  0  0  0  0  0  0  0
    4.5363    0.0227    1.8084 H   0  0  0  0  0  0  0  0  0  0  0  0
    5.6563   -2.0018    2.6067 H   0  0  0  0  0  0  0  0  0  0  0  0
    5.9138   -4.1903    2.5763 H   0  0  0  0  0  0  0  0  0  0  0  0
    5.6368   -7.3648    3.1830 H   0  0  0  0  0  0  0  0  0  0  0  0
    4.1286   -4.2596    4.3237 H   0  0  0  0  0  0  0  0  0  0  0  0
    4.9101   -2.8887    6.1843 H   0  0  0  0  0  0  0  0  0  0  0  0
    5.4053   -3.3040    9.1787 H   0  0  0  0  0  0  0  0  0  0  0  0
    8.4619   -4.4937   10.7322 H   0  0  0  0  0  0  0  0  0  0  0  0
    8.6075   -6.8765   11.4769 H   0  0  0  0  0  0  0  0  0  0  0  0
    6.7838   -8.4589   10.8206 H   0  0  0  0  0  0  0  0  0  0  0  0
    4.8881   -7.5865    9.4460 H   0  0  0  0  0  0  0  0  0  0  0  0
    8.1382   -5.6847    6.8701 H   0  0  0  0  0  0  0  0  0  0  0  0
    7.3821   -7.0343    4.9458 H   0  0  0  0  0  0  0  0  0  0  0  0
    3.1185   -4.4078    0.0571 H   0  0  0  0  0  0  0  0  0  0  0  0
    2.0388   -2.4000   -0.7489 H   0  0  0  0  0  0  0  0  0  0  0  0
  1  2  2  0  0  0  0
  2  3  1  0  0  0  0
  2 13  1  0  0  0  0
  3  4  2  0  0  0  0
  3 39  1  0  0  0  0
  4  5  1  0  0  0  0
  4 40  1  0  0  0  0
  5  6  1  0  0  0  0
  5 41  1  0  0  0  0
  6  7  1  0  0  0  0
  6 11  2  0  0  0  0
  7  8  2  0  0  0  0
  7 42  1  0  0  0  0
  8  9  1  0  0  0  0
  8 43  1  0  0  0  0
  9 10  2  0  0  0  0
  9 44  1  0  0  0  0
 10 11  1  0  0  0  0
 10 45  1  0  0  0  0
 11 12  1  0  0  0  0
 13 14  1  0  0  0  0
 13 38  2  0  0  0  0
 14 15  2  0  0  0  0
 14 46  1  0  0  0  0
 15 16  1  0  0  0  0
 15 47  1  0  0  0  0
 16 17  1  0  0  0  0
 16 37  2  0  0  0  0
 17 18  1  0  0  0  0
 17 48  1  0  0  0  0
 18 19  2  0  0  0  0
 18 20  1  0  0  0  0
 20 21  1  0  0  0  0
 20 49  1  0  0  0  0
 21 22  1  0  0  0  0
 21 36  2  0  0  0  0
 22 23  2  0  0  0  0
 22 50  1  0  0  0  0
 23 24  1  0  0  0  0
 23 51  1  0  0  0  0
 24 25  1  0  0  0  0
 24 35  2  0  0  0  0
 25 26  2  0  0  0  0
 25 27  2  0  0  0  0
 25 28  1  0  0  0  0
 28 29  1  0  0  0  0
 28 52  1  0  0  0  0
 29 30  1  0  0  0  0
 29 34  2  0  0  0  0
 30 31  2  0  0  0  0
 30 53  1  0  0  0  0
 31 32  1  0  0  0  0
 31 54  1  0  0  0  0
 32 33  2  0  0  0  0
 32 55  1  0  0  0  0
 33 34  1  0  0  0  0
 33 56  1  0  0  0  0
 35 36  1  0  0  0  0
 35 57  1  0  0  0  0
 36 58  1  0  0  0  0
 37 38  1  0  0  0  0
 37 59  1  0  0  0  0
 38 60  1  0  0  0  0
M  END
$$$$
