CHEMBL172517
 OpenBabel04072215363D

 35 37  0  0  0  0  0  0  0  0999 V2000
    0.9440    0.7251   -0.4390 C   0  0  0  0  0  0  0  0  0  0  0  0
    2.4481    0.8148   -0.6084 C   0  0  0  0  0  0  0  0  0  0  0  0
    3.0298    1.3380    0.5884 O   0  0  0  0  0  0  0  0  0  0  0  0
    4.3902    1.5089    0.5750 C   0  0  0  0  0  0  0  0  0  0  0  0
    5.2320    1.1742   -0.4878 C   0  0  0  0  0  0  0  0  0  0  0  0
    6.6076    1.4044   -0.4006 C   0  0  0  0  0  0  0  0  0  0  0  0
    7.3951    1.0684   -1.4644 O   0  0  0  0  0  0  0  0  0  0  0  0
    7.1591    1.9723    0.7516 C   0  0  0  0  0  0  0  0  0  0  0  0
    8.6028    2.2555    0.8939 C   0  0  0  0  0  0  0  0  0  0  0  0
    9.4521    1.9988    0.0512 O   0  0  0  0  0  0  0  0  0  0  0  0
    9.0229    2.8946    2.1506 C   0  0  0  0  0  0  0  0  0  0  0  0
    8.1221    3.1462    3.1091 C   0  0  0  0  0  0  0  0  0  0  0  0
    8.5048    3.7775    4.3928 C   0  0  0  0  0  0  0  0  0  0  0  0
    7.5881    4.5891    5.0794 C   0  0  0  0  0  0  0  0  0  0  0  0
    7.9218    5.1751    6.3038 C   0  0  0  0  0  0  0  0  0  0  0  0
    9.1787    4.9585    6.8628 C   0  0  0  0  0  0  0  0  0  0  0  0
   10.1020    4.1573    6.1984 C   0  0  0  0  0  0  0  0  0  0  0  0
    9.7665    3.5678    4.9761 C   0  0  0  0  0  0  0  0  0  0  0  0
    6.7707    2.8591    2.9876 O   0  0  0  0  0  0  0  0  0  0  0  0
    6.3183    2.2986    1.8164 C   0  0  0  0  0  0  0  0  0  0  0  0
    4.9402    2.0660    1.7313 C   0  0  0  0  0  0  0  0  0  0  0  0
    0.4829    0.3128   -1.3419 H   0  0  0  0  0  0  0  0  0  0  0  0
    0.5166    1.7139   -0.2458 H   0  0  0  0  0  0  0  0  0  0  0  0
    0.6865    0.0871    0.4119 H   0  0  0  0  0  0  0  0  0  0  0  0
    2.6656    1.4776   -1.4546 H   0  0  0  0  0  0  0  0  0  0  0  0
    2.8392   -0.1902   -0.8063 H   0  0  0  0  0  0  0  0  0  0  0  0
    4.8375    0.7339   -1.3976 H   0  0  0  0  0  0  0  0  0  0  0  0
    6.8641    0.6848   -2.1790 H   0  0  0  0  0  0  0  0  0  0  0  0
   10.0760    3.1319    2.2239 H   0  0  0  0  0  0  0  0  0  0  0  0
    6.6003    4.7788    4.6640 H   0  0  0  0  0  0  0  0  0  0  0  0
    7.1973    5.7996    6.8204 H   0  0  0  0  0  0  0  0  0  0  0  0
    9.4363    5.4103    7.8168 H   0  0  0  0  0  0  0  0  0  0  0  0
   11.0837    3.9832    6.6322 H   0  0  0  0  0  0  0  0  0  0  0  0
   10.5067    2.9313    4.4971 H   0  0  0  0  0  0  0  0  0  0  0  0
    4.2924    2.3251    2.5631 H   0  0  0  0  0  0  0  0  0  0  0  0
  1  2  1  0  0  0  0
  1 22  1  0  0  0  0
  1 23  1  0  0  0  0
  1 24  1  0  0  0  0
  2  3  1  0  0  0  0
  2 25  1  0  0  0  0
  2 26  1  0  0  0  0
  3  4  1  0  0  0  0
  4  5  1  0  0  0  0
  4 21  2  0  0  0  0
  5  6  2  0  0  0  0
  5 27  1  0  0  0  0
  6  7  1  0  0  0  0
  6  8  1  0  0  0  0
  7 28  1  0  0  0  0
  8  9  1  0  0  0  0
  8 20  2  0  0  0  0
  9 10  2  0  0  0  0
  9 11  1  0  0  0  0
 11 12  2  0  0  0  0
 11 29  1  0  0  0  0
 12 13  1  0  0  0  0
 12 19  1  0  0  0  0
 13 14  1  0  0  0  0
 13 18  2  0  0  0  0
 14 15  2  0  0  0  0
 14 30  1  0  0  0  0
 15 16  1  0  0  0  0
 15 31  1  0  0  0  0
 16 17  2  0  0  0  0
 16 32  1  0  0  0  0
 17 18  1  0  0  0  0
 17 33  1  0  0  0  0
 18 34  1  0  0  0  0
 19 20  1  0  0  0  0
 20 21  1  0  0  0  0
 21 35  1  0  0  0  0
M  END
$$$$
