CHEMBL4099682
 OpenBabel04072215383D

 51 53  0  0  0  0  0  0  0  0999 V2000
    3.3782    0.6402   -2.4147 C   0  0  0  0  0  0  0  0  0  0  0  0
    4.1466    0.3368   -1.3111 O   0  0  0  0  0  0  0  0  0  0  0  0
    4.4071   -0.9113   -0.8442 C   0  0  0  0  0  0  0  0  0  0  0  0
    3.9692   -2.0768   -1.5017 C   0  0  0  0  0  0  0  0  0  0  0  0
    4.2622   -3.3408   -0.9771 C   0  0  0  0  0  0  0  0  0  0  0  0
    5.0038   -3.4663    0.2173 C   0  0  0  0  0  0  0  0  0  0  0  0
    5.2947   -4.7200    0.8472 N   0  0  0  0  0  0  0  0  0  0  0  0
    4.9922   -6.0248    0.3521 C   0  0  0  0  0  0  0  0  0  0  0  0
    4.8571   -6.2505   -0.9891 N   0  0  0  0  0  0  0  0  0  0  0  0
    4.5657   -7.4855   -1.5041 C   0  0  0  0  0  0  0  0  0  0  0  0
    4.4383   -7.6732   -2.9792 C   0  0  0  0  0  0  0  0  0  0  0  0
    4.3853   -8.5494   -0.6723 N   0  0  0  0  0  0  0  0  0  0  0  0
    4.5071   -8.3519    0.6604 C   0  0  0  0  0  0  0  0  0  0  0  0
    4.3289   -9.2544    1.6835 C   0  0  0  0  0  0  0  0  0  0  0  0
    3.9574  -10.7041    1.5811 C   0  0  0  0  0  0  0  0  0  0  0  0
    2.4631  -10.8916    1.6701 C   0  0  0  0  0  0  0  0  0  0  0  0
    1.6212  -10.3385    0.6866 C   0  0  0  0  0  0  0  0  0  0  0  0
    0.2370  -10.5201    0.7578 C   0  0  0  0  0  0  0  0  0  0  0  0
   -0.3202  -11.2559    1.8056 C   0  0  0  0  0  0  0  0  0  0  0  0
    0.5066  -11.8117    2.7863 C   0  0  0  0  0  0  0  0  0  0  0  0
    1.8943  -11.6336    2.7203 C   0  0  0  0  0  0  0  0  0  0  0  0
    4.5416   -8.5379    2.8510 C   0  0  0  0  0  0  0  0  0  0  0  0
    4.8454   -7.2488    2.5631 N   0  0  0  0  0  0  0  0  0  0  0  0
    5.1191   -6.2361    3.5830 C   0  0  0  0  0  0  0  0  0  0  0  0
    4.8139   -7.1349    1.2079 C   0  0  0  0  0  0  0  0  0  0  0  0
    5.4303   -2.2920    0.8639 C   0  0  0  0  0  0  0  0  0  0  0  0
    5.1380   -1.0339    0.3383 C   0  0  0  0  0  0  0  0  0  0  0  0
   -0.6426   -1.5442    0.6864 Cl  0  0  0  0  0  0  0  0  0  0  0  0
    3.3840    1.7384   -2.5672 H   0  0  0  0  0  0  0  0  0  0  0  0
    2.3302    0.3079   -2.2529 H   0  0  0  0  0  0  0  0  0  0  0  0
    3.7981    0.1567   -3.3222 H   0  0  0  0  0  0  0  0  0  0  0  0
    3.3944   -2.0201   -2.4154 H   0  0  0  0  0  0  0  0  0  0  0  0
    3.8791   -4.1891   -1.5155 H   0  0  0  0  0  0  0  0  0  0  0  0
    5.7237   -4.6501    1.7717 H   0  0  0  0  0  0  0  0  0  0  0  0
    4.6232   -6.7169   -3.5141 H   0  0  0  0  0  0  0  0  0  0  0  0
    3.4156   -8.0292   -3.2251 H   0  0  0  0  0  0  0  0  0  0  0  0
    5.1784   -8.4254   -3.3252 H   0  0  0  0  0  0  0  0  0  0  0  0
    4.4876  -11.2578    2.3872 H   0  0  0  0  0  0  0  0  0  0  0  0
    4.3144  -11.1183    0.6143 H   0  0  0  0  0  0  0  0  0  0  0  0
    2.0340   -9.7714   -0.1346 H   0  0  0  0  0  0  0  0  0  0  0  0
   -0.4026  -10.0929   -0.0038 H   0  0  0  0  0  0  0  0  0  0  0  0
   -1.3921  -11.3963    1.8573 H   0  0  0  0  0  0  0  0  0  0  0  0
    0.0719  -12.3826    3.5960 H   0  0  0  0  0  0  0  0  0  0  0  0
    2.5186  -12.0727    3.4867 H   0  0  0  0  0  0  0  0  0  0  0  0
    4.4763   -8.9413    3.8539 H   0  0  0  0  0  0  0  0  0  0  0  0
    5.0158   -6.6662    4.6011 H   0  0  0  0  0  0  0  0  0  0  0  0
    4.3973   -5.3975    3.4888 H   0  0  0  0  0  0  0  0  0  0  0  0
    6.1644   -5.8754    3.4880 H   0  0  0  0  0  0  0  0  0  0  0  0
    5.9883   -2.3500    1.7906 H   0  0  0  0  0  0  0  0  0  0  0  0
    5.4751   -0.1474    0.8610 H   0  0  0  0  0  0  0  0  0  0  0  0
    0.6892   -1.6617    1.0095 H   0  0  0  0  0  0  0  0  0  0  0  0
  1  2  1  0  0  0  0
  1 29  1  0  0  0  0
  1 30  1  0  0  0  0
  1 31  1  0  0  0  0
  2  3  1  0  0  0  0
  3  4  1  0  0  0  0
  3 27  2  0  0  0  0
  4  5  2  0  0  0  0
  4 32  1  0  0  0  0
  5  6  1  0  0  0  0
  5 33  1  0  0  0  0
  6  7  1  0  0  0  0
  6 26  2  0  0  0  0
  7  8  1  0  0  0  0
  7 34  1  0  0  0  0
  8  9  1  0  0  0  0
  8 25  2  0  0  0  0
  9 10  2  0  0  0  0
 10 11  1  0  0  0  0
 10 12  1  0  0  0  0
 11 35  1  0  0  0  0
 11 36  1  0  0  0  0
 11 37  1  0  0  0  0
 12 13  2  0  0  0  0
 13 14  1  0  0  0  0
 13 25  1  0  0  0  0
 14 15  1  0  0  0  0
 14 22  2  0  0  0  0
 15 16  1  0  0  0  0
 15 38  1  0  0  0  0
 15 39  1  0  0  0  0
 16 17  1  0  0  0  0
 16 21  2  0  0  0  0
 17 18  2  0  0  0  0
 17 40  1  0  0  0  0
 18 19  1  0  0  0  0
 18 41  1  0  0  0  0
 19 20  2  0  0  0  0
 19 42  1  0  0  0  0
 20 21  1  0  0  0  0
 20 43  1  0  0  0  0
 21 44  1  0  0  0  0
 22 23  1  0  0  0  0
 22 45  1  0  0  0  0
 23 24  1  0  0  0  0
 23 25  1  0  0  0  0
 24 46  1  0  0  0  0
 24 47  1  0  0  0  0
 24 48  1  0  0  0  0
 26 27  1  0  0  0  0
 26 49  1  0  0  0  0
 27 50  1  0  0  0  0
 28 51  1  0  0  0  0
M  END
$$$$
