CHEMBL1242476
 OpenBabel04072215363D

 39 42  0  0  0  0  0  0  0  0999 V2000
    2.7100   -0.0791    1.3945 C   0  0  0  0  0  0  0  0  0  0  0  0
    2.4898    0.1081   -0.1072 C   0  0  0  0  0  0  0  0  0  0  0  0
    1.0340   -0.1770   -0.4839 C   0  0  0  0  0  0  0  0  0  0  0  0
    2.9068    1.4340   -0.5479 N   0  0  0  0  0  0  0  0  0  0  0  0
    2.2830    2.5286   -0.0649 N   0  0  0  0  0  0  0  0  0  0  0  0
    2.8580    3.5610   -0.7111 C   0  0  0  0  0  0  0  0  0  0  0  0
    2.3544    4.9220   -0.4856 C   0  0  0  0  0  0  0  0  0  0  0  0
    2.3270    5.8578   -1.5284 C   0  0  0  0  0  0  0  0  0  0  0  0
    1.8511    7.1620   -1.3376 C   0  0  0  0  0  0  0  0  0  0  0  0
    1.3222    7.5124   -0.0850 C   0  0  0  0  0  0  0  0  0  0  0  0
    0.7025    8.6555    0.4828 C   0  0  0  0  0  0  0  0  0  0  0  0
    0.4840    9.8012   -0.1750 N   0  0  0  0  0  0  0  0  0  0  0  0
    0.3473    8.4601    1.7489 N   0  0  0  0  0  0  0  0  0  0  0  0
    0.7145    7.1895    1.9911 N   0  0  0  0  0  0  0  0  0  0  0  0
    1.3216    6.5674    0.9331 C   0  0  0  0  0  0  0  0  0  0  0  0
    1.8401    5.2751    0.7775 C   0  0  0  0  0  0  0  0  0  0  0  0
    3.9191    3.1084   -1.5599 C   0  0  0  0  0  0  0  0  0  0  0  0
    4.8865    3.6435   -2.4244 C   0  0  0  0  0  0  0  0  0  0  0  0
    5.1034    4.9934   -2.6617 N   0  0  0  0  0  0  0  0  0  0  0  0
    5.7037    2.7980   -3.0889 N   0  0  0  0  0  0  0  0  0  0  0  0
    5.5690    1.4748   -2.8830 C   0  0  0  0  0  0  0  0  0  0  0  0
    4.7051    0.8503   -2.0718 N   0  0  0  0  0  0  0  0  0  0  0  0
    3.9022    1.7272   -1.4381 C   0  0  0  0  0  0  0  0  0  0  0  0
    2.4141   -1.0861    1.7084 H   0  0  0  0  0  0  0  0  0  0  0  0
    2.1278    0.6391    1.9827 H   0  0  0  0  0  0  0  0  0  0  0  0
    3.7660    0.0571    1.6537 H   0  0  0  0  0  0  0  0  0  0  0  0
    3.1206   -0.6197   -0.6323 H   0  0  0  0  0  0  0  0  0  0  0  0
    0.3484    0.5453   -0.0273 H   0  0  0  0  0  0  0  0  0  0  0  0
    0.7358   -1.1773   -0.1519 H   0  0  0  0  0  0  0  0  0  0  0  0
    0.8966   -0.1269   -1.5690 H   0  0  0  0  0  0  0  0  0  0  0  0
    2.6520    5.5827   -2.5294 H   0  0  0  0  0  0  0  0  0  0  0  0
    1.8553    7.8715   -2.1585 H   0  0  0  0  0  0  0  0  0  0  0  0
    0.9841   10.0281   -1.0239 H   0  0  0  0  0  0  0  0  0  0  0  0
    0.1746   10.5985    0.3673 H   0  0  0  0  0  0  0  0  0  0  0  0
    0.5093    6.7974    2.9026 H   0  0  0  0  0  0  0  0  0  0  0  0
    1.8177    4.5585    1.5942 H   0  0  0  0  0  0  0  0  0  0  0  0
    4.9558    5.5915   -1.8589 H   0  0  0  0  0  0  0  0  0  0  0  0
    5.9825    5.1294   -3.1495 H   0  0  0  0  0  0  0  0  0  0  0  0
    6.2469    0.8365   -3.4427 H   0  0  0  0  0  0  0  0  0  0  0  0
  1  2  1  0  0  0  0
  1 24  1  0  0  0  0
  1 25  1  0  0  0  0
  1 26  1  0  0  0  0
  2  3  1  0  0  0  0
  2  4  1  0  0  0  0
  2 27  1  0  0  0  0
  3 28  1  0  0  0  0
  3 29  1  0  0  0  0
  3 30  1  0  0  0  0
  4  5  1  0  0  0  0
  4 23  1  0  0  0  0
  5  6  2  0  0  0  0
  6  7  1  0  0  0  0
  6 17  1  0  0  0  0
  7  8  1  0  0  0  0
  7 16  2  0  0  0  0
  8  9  2  0  0  0  0
  8 31  1  0  0  0  0
  9 10  1  0  0  0  0
  9 32  1  0  0  0  0
 10 11  1  0  0  0  0
 10 15  2  0  0  0  0
 11 12  1  0  0  0  0
 11 13  2  0  0  0  0
 12 33  1  0  0  0  0
 12 34  1  0  0  0  0
 13 14  1  0  0  0  0
 14 15  1  0  0  0  0
 14 35  1  0  0  0  0
 15 16  1  0  0  0  0
 16 36  1  0  0  0  0
 17 18  1  0  0  0  0
 17 23  2  0  0  0  0
 18 19  1  0  0  0  0
 18 20  2  0  0  0  0
 19 37  1  0  0  0  0
 19 38  1  0  0  0  0
 20 21  1  0  0  0  0
 21 22  2  0  0  0  0
 21 39  1  0  0  0  0
 22 23  1  0  0  0  0
M  END
$$$$
