CHEMBL375248
 OpenBabel04072215373D

 44 46  0  0  0  0  0  0  0  0999 V2000
    1.0887    0.7489    0.0677 C   0  0  0  0  0  0  0  0  0  0  0  0
    2.5272    0.7023    0.0949 N   0  0  0  0  0  0  0  0  0  0  0  0
    3.1815    0.1928    1.1863 C   0  0  0  0  0  0  0  0  0  0  0  0
    2.5858   -0.2101    2.1800 O   0  0  0  0  0  0  0  0  0  0  0  0
    4.5565    0.1678    1.0732 N   0  0  0  0  0  0  0  0  0  0  0  0
    5.3378    0.7711   -0.0083 C   0  0  0  0  0  0  0  0  0  0  0  0
    6.3688   -0.2408   -0.5309 C   0  0  0  0  0  0  0  0  0  0  0  0
    7.2966   -0.7207    0.5154 N   0  0  0  0  0  0  0  0  0  0  0  0
    8.1616    0.3402    1.0675 C   0  0  0  0  0  0  0  0  0  0  0  0
    9.0620    1.0259    0.0645 C   0  0  0  0  0  0  0  0  0  0  0  0
    8.6684    2.1627   -0.6407 C   0  0  0  0  0  0  0  0  0  0  0  0
    9.5691    2.7415   -1.5167 C   0  0  0  0  0  0  0  0  0  0  0  0
   10.8324    2.3026   -1.6976 N   0  0  0  0  0  0  0  0  0  0  0  0
   11.2326    1.2279   -0.9843 C   0  0  0  0  0  0  0  0  0  0  0  0
   12.5806    0.8958   -1.1324 N   0  0  0  0  0  0  0  0  0  0  0  0
   13.3453    0.2824   -0.2049 C   0  0  0  0  0  0  0  0  0  0  0  0
   12.9344   -0.5588    0.7203 N   0  0  0  0  0  0  0  0  0  0  0  0
   13.9753   -0.9522    1.5301 C   0  0  0  0  0  0  0  0  0  0  0  0
   15.1939   -0.4004    1.2181 C   0  0  0  0  0  0  0  0  0  0  0  0
   16.4042   -0.6325    1.9249 C   0  0  0  0  0  0  0  0  0  0  0  0
   17.3777   -0.8236    2.5207 N   0  0  0  0  0  0  0  0  0  0  0  0
   15.0427    0.6078   -0.1503 S   0  0  0  0  0  0  0  0  0  0  0  0
   10.3579    0.5491   -0.1403 C   0  0  0  0  0  0  0  0  0  0  0  0
    6.4756   -1.3243    1.6036 C   0  0  0  0  0  0  0  0  0  0  0  0
    5.3601   -0.4055    2.1590 C   0  0  0  0  0  0  0  0  0  0  0  0
    0.7796    1.0054   -0.9478 H   0  0  0  0  0  0  0  0  0  0  0  0
    0.7413    1.5134    0.7671 H   0  0  0  0  0  0  0  0  0  0  0  0
    0.6814   -0.2266    0.3456 H   0  0  0  0  0  0  0  0  0  0  0  0
    2.9560    0.4902   -0.7902 H   0  0  0  0  0  0  0  0  0  0  0  0
    5.8147    1.6651    0.4060 H   0  0  0  0  0  0  0  0  0  0  0  0
    4.7258    1.1220   -0.8394 H   0  0  0  0  0  0  0  0  0  0  0  0
    6.9113    0.1651   -1.3892 H   0  0  0  0  0  0  0  0  0  0  0  0
    5.8259   -1.1107   -0.9293 H   0  0  0  0  0  0  0  0  0  0  0  0
    8.8085   -0.1196    1.8268 H   0  0  0  0  0  0  0  0  0  0  0  0
    7.6002    1.1116    1.6050 H   0  0  0  0  0  0  0  0  0  0  0  0
    7.6852    2.6003   -0.5210 H   0  0  0  0  0  0  0  0  0  0  0  0
    9.2947    3.6133   -2.1036 H   0  0  0  0  0  0  0  0  0  0  0  0
   13.0094    1.5795   -1.7438 H   0  0  0  0  0  0  0  0  0  0  0  0
   13.7757   -1.6404    2.3432 H   0  0  0  0  0  0  0  0  0  0  0  0
   10.6761   -0.3372    0.3968 H   0  0  0  0  0  0  0  0  0  0  0  0
    7.1205   -1.6709    2.4203 H   0  0  0  0  0  0  0  0  0  0  0  0
    5.9992   -2.2289    1.1996 H   0  0  0  0  0  0  0  0  0  0  0  0
    5.7930    0.4294    2.7232 H   0  0  0  0  0  0  0  0  0  0  0  0
    4.7352   -0.9709    2.8581 H   0  0  0  0  0  0  0  0  0  0  0  0
  1  2  1  0  0  0  0
  1 26  1  0  0  0  0
  1 27  1  0  0  0  0
  1 28  1  0  0  0  0
  2  3  1  0  0  0  0
  2 29  1  0  0  0  0
  3  4  2  0  0  0  0
  3  5  1  0  0  0  0
  5  6  1  0  0  0  0
  5 25  1  0  0  0  0
  6  7  1  0  0  0  0
  6 30  1  0  0  0  0
  6 31  1  0  0  0  0
  7  8  1  0  0  0  0
  7 32  1  0  0  0  0
  7 33  1  0  0  0  0
  8  9  1  0  0  0  0
  8 24  1  0  0  0  0
  9 10  1  0  0  0  0
  9 34  1  0  0  0  0
  9 35  1  0  0  0  0
 10 11  1  0  0  0  0
 10 23  2  0  0  0  0
 11 12  2  0  0  0  0
 11 36  1  0  0  0  0
 12 13  1  0  0  0  0
 12 37  1  0  0  0  0
 13 14  2  0  0  0  0
 14 15  1  0  0  0  0
 14 23  1  0  0  0  0
 15 16  1  0  0  0  0
 15 38  1  0  0  0  0
 16 17  2  0  0  0  0
 16 22  1  0  0  0  0
 17 18  1  0  0  0  0
 18 19  2  0  0  0  0
 18 39  1  0  0  0  0
 19 20  1  0  0  0  0
 19 22  1  0  0  0  0
 20 21  3  0  0  0  0
 23 40  1  0  0  0  0
 24 25  1  0  0  0  0
 24 41  1  0  0  0  0
 24 42  1  0  0  0  0
 25 43  1  0  0  0  0
 25 44  1  0  0  0  0
M  END
$$$$
