CHEMBL212195
 OpenBabel04072215363D

 76 80  0  0  0  0  0  0  0  0999 V2000
    2.1997    0.0642    1.2891 C   0  0  0  0  0  0  0  0  0  0  0  0
    0.8470   -0.0038    0.6238 C   0  0  0  0  0  0  0  0  0  0  0  0
    0.1062    1.2010    0.5778 C   0  0  0  0  0  0  0  0  0  0  0  0
   -1.1380    1.2776   -0.0500 C   0  0  0  0  0  0  0  0  0  0  0  0
   -1.6723    0.1344   -0.6295 C   0  0  0  0  0  0  0  0  0  0  0  0
   -3.0081    0.1088   -1.2864 C   0  0  0  0  0  0  0  0  0  0  0  0
   -3.6450   -0.9354   -1.1959 O   0  0  0  0  0  0  0  0  0  0  0  0
   -3.3766    1.2437   -1.9994 N   0  0  0  0  0  0  0  0  0  0  0  0
   -4.5891    1.4129   -2.7278 C   0  0  0  0  0  0  0  0  0  0  0  0
   -5.6729    0.5493   -2.5295 C   0  0  0  0  0  0  0  0  0  0  0  0
   -6.8462    0.6693   -3.2679 C   0  0  0  0  0  0  0  0  0  0  0  0
   -6.9610    1.6670   -4.2224 C   0  0  0  0  0  0  0  0  0  0  0  0
   -5.9108    2.5765   -4.4409 C   0  0  0  0  0  0  0  0  0  0  0  0
   -6.1054    3.6318   -5.5109 C   0  0  0  0  0  0  0  0  0  0  0  0
   -7.3024    3.5396   -6.1600 F   0  0  0  0  0  0  0  0  0  0  0  0
   -6.0583    4.8997   -5.0150 F   0  0  0  0  0  0  0  0  0  0  0  0
   -5.1590    3.5711   -6.4895 F   0  0  0  0  0  0  0  0  0  0  0  0
   -4.7144    2.4656   -3.6732 C   0  0  0  0  0  0  0  0  0  0  0  0
   -3.5842    3.4476   -3.8758 C   0  0  0  0  0  0  0  0  0  0  0  0
   -0.9635   -1.0779   -0.5486 C   0  0  0  0  0  0  0  0  0  0  0  0
    0.3078   -1.1903    0.0621 C   0  0  0  0  0  0  0  0  0  0  0  0
    0.9968   -2.5166    0.0459 C   0  0  0  0  0  0  0  0  0  0  0  0
    1.7700   -2.9947    1.1150 C   0  0  0  0  0  0  0  0  0  0  0  0
    2.4657   -4.2138    1.0450 C   0  0  0  0  0  0  0  0  0  0  0  0
    2.3532   -5.0510   -0.0506 C   0  0  0  0  0  0  0  0  0  0  0  0
    2.9869   -6.2306   -0.0565 N   0  0  0  0  0  0  0  0  0  0  0  0
    2.7675   -7.0746   -1.0755 C   0  0  0  0  0  0  0  0  0  0  0  0
    3.2075   -8.3782   -0.9836 N   0  0  0  0  0  0  0  0  0  0  0  0
    3.7129   -8.9707   -2.2115 C   0  0  0  0  0  0  0  0  0  0  0  0
    3.7045   -8.9111    0.2806 C   0  0  0  0  0  0  0  0  0  0  0  0
    2.7431   -8.7156    1.4710 C   0  0  0  0  0  0  0  0  0  0  0  0
    3.2745   -9.4797    2.6851 C   0  0  0  0  0  0  0  0  0  0  0  0
    2.4494   -9.4260    3.9013 N   0  0  0  0  0  0  0  0  0  0  0  0
    2.2685   -8.0823    4.4952 C   0  0  0  0  0  0  0  0  0  0  0  0
    3.4597   -7.5357    5.3107 C   0  0  0  0  0  0  0  0  0  0  0  0
    3.9697   -8.4888    6.2525 O   0  0  0  0  0  0  0  0  0  0  0  0
    4.2880   -9.7203    5.5983 C   0  0  0  0  0  0  0  0  0  0  0  0
    3.0319  -10.3119    4.9388 C   0  0  0  0  0  0  0  0  0  0  0  0
    2.0154   -6.7459   -2.1426 N   0  0  0  0  0  0  0  0  0  0  0  0
    1.4102   -5.5414   -2.1230 C   0  0  0  0  0  0  0  0  0  0  0  0
    1.5333   -4.6345   -1.0907 C   0  0  0  0  0  0  0  0  0  0  0  0
    0.8803   -3.3811   -1.0573 C   0  0  0  0  0  0  0  0  0  0  0  0
    2.5080    1.1001    1.4678 H   0  0  0  0  0  0  0  0  0  0  0  0
    2.9687   -0.3897    0.6570 H   0  0  0  0  0  0  0  0  0  0  0  0
    2.1736   -0.4181    2.2699 H   0  0  0  0  0  0  0  0  0  0  0  0
    0.5090    2.1001    1.0439 H   0  0  0  0  0  0  0  0  0  0  0  0
   -1.6807    2.2178   -0.0400 H   0  0  0  0  0  0  0  0  0  0  0  0
   -2.6669    1.9524   -2.1240 H   0  0  0  0  0  0  0  0  0  0  0  0
   -5.6459   -0.2392   -1.7836 H   0  0  0  0  0  0  0  0  0  0  0  0
   -7.6657   -0.0238   -3.0934 H   0  0  0  0  0  0  0  0  0  0  0  0
   -7.8845    1.7358   -4.7966 H   0  0  0  0  0  0  0  0  0  0  0  0
   -3.7897    4.1974   -4.6428 H   0  0  0  0  0  0  0  0  0  0  0  0
   -2.6761    2.9207   -4.1849 H   0  0  0  0  0  0  0  0  0  0  0  0
   -3.3943    3.9943   -2.9462 H   0  0  0  0  0  0  0  0  0  0  0  0
   -1.4371   -1.9622   -0.9769 H   0  0  0  0  0  0  0  0  0  0  0  0
    1.8436   -2.4415    2.0450 H   0  0  0  0  0  0  0  0  0  0  0  0
    3.0835   -4.5222    1.8842 H   0  0  0  0  0  0  0  0  0  0  0  0
    3.4948   -8.3943   -3.1178 H   0  0  0  0  0  0  0  0  0  0  0  0
    3.2714   -9.9637   -2.3441 H   0  0  0  0  0  0  0  0  0  0  0  0
    4.8025   -9.0900   -2.1653 H   0  0  0  0  0  0  0  0  0  0  0  0
    4.6965   -8.5024    0.5109 H   0  0  0  0  0  0  0  0  0  0  0  0
    3.8414   -9.9935    0.1480 H   0  0  0  0  0  0  0  0  0  0  0  0
    1.7347   -9.0542    1.2045 H   0  0  0  0  0  0  0  0  0  0  0  0
    2.6716   -7.6597    1.7357 H   0  0  0  0  0  0  0  0  0  0  0  0
    4.2971   -9.1444    2.8851 H   0  0  0  0  0  0  0  0  0  0  0  0
    3.3358  -10.5331    2.3814 H   0  0  0  0  0  0  0  0  0  0  0  0
    1.4176   -8.1649    5.1856 H   0  0  0  0  0  0  0  0  0  0  0  0
    1.9584   -7.3414    3.7510 H   0  0  0  0  0  0  0  0  0  0  0  0
    3.1313   -6.6663    5.8921 H   0  0  0  0  0  0  0  0  0  0  0  0
    4.2751   -7.2077    4.6579 H   0  0  0  0  0  0  0  0  0  0  0  0
    4.6761  -10.4135    6.3511 H   0  0  0  0  0  0  0  0  0  0  0  0
    5.0956   -9.5465    4.8776 H   0  0  0  0  0  0  0  0  0  0  0  0
    2.2686  -10.4694    5.7109 H   0  0  0  0  0  0  0  0  0  0  0  0
    3.2541  -11.2992    4.5174 H   0  0  0  0  0  0  0  0  0  0  0  0
    0.7720   -5.3561   -2.9792 H   0  0  0  0  0  0  0  0  0  0  0  0
    0.2704   -3.1024   -1.9141 H   0  0  0  0  0  0  0  0  0  0  0  0
  1  2  1  0  0  0  0
  1 43  1  0  0  0  0
  1 44  1  0  0  0  0
  1 45  1  0  0  0  0
  2  3  1  0  0  0  0
  2 21  2  0  0  0  0
  3  4  2  0  0  0  0
  3 46  1  0  0  0  0
  4  5  1  0  0  0  0
  4 47  1  0  0  0  0
  5  6  1  0  0  0  0
  5 20  2  0  0  0  0
  6  7  2  0  0  0  0
  6  8  1  0  0  0  0
  8  9  1  0  0  0  0
  8 48  1  0  0  0  0
  9 10  1  0  0  0  0
  9 18  2  0  0  0  0
 10 11  2  0  0  0  0
 10 49  1  0  0  0  0
 11 12  1  0  0  0  0
 11 50  1  0  0  0  0
 12 13  2  0  0  0  0
 12 51  1  0  0  0  0
 13 14  1  0  0  0  0
 13 18  1  0  0  0  0
 14 15  1  0  0  0  0
 14 16  1  0  0  0  0
 14 17  1  0  0  0  0
 18 19  1  0  0  0  0
 19 52  1  0  0  0  0
 19 53  1  0  0  0  0
 19 54  1  0  0  0  0
 20 21  1  0  0  0  0
 20 55  1  0  0  0  0
 21 22  1  0  0  0  0
 22 23  1  0  0  0  0
 22 42  2  0  0  0  0
 23 24  2  0  0  0  0
 23 56  1  0  0  0  0
 24 25  1  0  0  0  0
 24 57  1  0  0  0  0
 25 26  1  0  0  0  0
 25 41  2  0  0  0  0
 26 27  2  0  0  0  0
 27 28  1  0  0  0  0
 27 39  1  0  0  0  0
 28 29  1  0  0  0  0
 28 30  1  0  0  0  0
 29 58  1  0  0  0  0
 29 59  1  0  0  0  0
 29 60  1  0  0  0  0
 30 31  1  0  0  0  0
 30 61  1  0  0  0  0
 30 62  1  0  0  0  0
 31 32  1  0  0  0  0
 31 63  1  0  0  0  0
 31 64  1  0  0  0  0
 32 33  1  0  0  0  0
 32 65  1  0  0  0  0
 32 66  1  0  0  0  0
 33 34  1  0  0  0  0
 33 38  1  0  0  0  0
 34 35  1  0  0  0  0
 34 67  1  0  0  0  0
 34 68  1  0  0  0  0
 35 36  1  0  0  0  0
 35 69  1  0  0  0  0
 35 70  1  0  0  0  0
 36 37  1  0  0  0  0
 37 38  1  0  0  0  0
 37 71  1  0  0  0  0
 37 72  1  0  0  0  0
 38 73  1  0  0  0  0
 38 74  1  0  0  0  0
 39 40  2  0  0  0  0
 40 41  1  0  0  0  0
 40 75  1  0  0  0  0
 41 42  1  0  0  0  0
 42 76  1  0  0  0  0
M  END
$$$$
