CHEMBL4756717
 OpenBabel04072215383D

 50 53  0  0  0  0  0  0  0  0999 V2000
    6.7040    2.9264    6.6420 C   0  0  0  0  0  0  0  0  0  0  0  0
    5.6137    2.2046    7.2299 O   0  0  0  0  0  0  0  0  0  0  0  0
    5.2887    1.0570    6.5483 C   0  0  0  0  0  0  0  0  0  0  0  0
    5.4957    0.9603    5.1620 C   0  0  0  0  0  0  0  0  0  0  0  0
    5.3512   -0.2232    4.4677 C   0  0  0  0  0  0  0  0  0  0  0  0
    5.6382   -0.2100    3.1644 N   0  0  0  0  0  0  0  0  0  0  0  0
    5.5112   -1.3674    2.5194 C   0  0  0  0  0  0  0  0  0  0  0  0
    5.1004   -2.5125    3.0581 N   0  0  0  0  0  0  0  0  0  0  0  0
    4.7906   -2.5082    4.3721 C   0  0  0  0  0  0  0  0  0  0  0  0
    4.2684   -3.6987    4.9486 N   0  0  0  0  0  0  0  0  0  0  0  0
    3.7413   -4.7665    4.1909 C   0  0  0  0  0  0  0  0  0  0  0  0
    3.9276   -6.0851    4.5985 C   0  0  0  0  0  0  0  0  0  0  0  0
    3.5542   -7.1411    3.7601 C   0  0  0  0  0  0  0  0  0  0  0  0
    2.9692   -6.8934    2.5228 C   0  0  0  0  0  0  0  0  0  0  0  0
    2.7277   -7.9018    1.5676 N   0  0  0  0  0  0  0  0  0  0  0  0
    3.0235   -9.2438    1.6918 C   0  0  0  0  0  0  0  0  0  0  0  0
    3.5665   -9.7824    2.6538 O   0  0  0  0  0  0  0  0  0  0  0  0
    2.6788  -10.1270    0.5476 C   0  0  0  0  0  0  0  0  0  0  0  0
    3.5040  -11.2580    0.3695 C   0  0  0  0  0  0  0  0  0  0  0  0
    3.1953  -12.2137   -0.5812 C   0  0  0  0  0  0  0  0  0  0  0  0
    3.9771  -13.2964   -0.7200 F   0  0  0  0  0  0  0  0  0  0  0  0
    2.0688  -12.0865   -1.3733 C   0  0  0  0  0  0  0  0  0  0  0  0
    1.2499  -10.9615   -1.2331 C   0  0  0  0  0  0  0  0  0  0  0  0
    1.5575   -9.9739   -0.2888 C   0  0  0  0  0  0  0  0  0  0  0  0
    0.3386   -8.5147   -0.2134 Br  0  0  0  0  0  0  0  0  0  0  0  0
    2.6296   -5.5836    2.1821 C   0  0  0  0  0  0  0  0  0  0  0  0
    2.9926   -4.5343    3.0271 C   0  0  0  0  0  0  0  0  0  0  0  0
    4.9357   -1.3594    5.1625 C   0  0  0  0  0  0  0  0  0  0  0  0
    4.6646   -1.2630    6.5511 C   0  0  0  0  0  0  0  0  0  0  0  0
    4.7985   -0.0525    7.2408 C   0  0  0  0  0  0  0  0  0  0  0  0
    4.4891   -0.1529    8.5683 O   0  0  0  0  0  0  0  0  0  0  0  0
    3.9545    0.9959    9.2159 C   0  0  0  0  0  0  0  0  0  0  0  0
    7.1529    3.5676    7.4032 H   0  0  0  0  0  0  0  0  0  0  0  0
    6.3420    3.5663    5.8288 H   0  0  0  0  0  0  0  0  0  0  0  0
    7.4914    2.2533    6.2760 H   0  0  0  0  0  0  0  0  0  0  0  0
    5.8108    1.8231    4.5821 H   0  0  0  0  0  0  0  0  0  0  0  0
    5.7576   -1.3777    1.4639 H   0  0  0  0  0  0  0  0  0  0  0  0
    4.8909   -4.0167    5.6833 H   0  0  0  0  0  0  0  0  0  0  0  0
    4.4197   -6.3193    5.5390 H   0  0  0  0  0  0  0  0  0  0  0  0
    3.7738   -8.1434    4.1035 H   0  0  0  0  0  0  0  0  0  0  0  0
    2.3162   -7.5923    0.6946 H   0  0  0  0  0  0  0  0  0  0  0  0
    4.3850  -11.4072    0.9968 H   0  0  0  0  0  0  0  0  0  0  0  0
    1.8208  -12.8621   -2.0978 H   0  0  0  0  0  0  0  0  0  0  0  0
    0.3646  -10.8766   -1.8520 H   0  0  0  0  0  0  0  0  0  0  0  0
    2.1080   -5.3473    1.2588 H   0  0  0  0  0  0  0  0  0  0  0  0
    2.7439   -3.5157    2.7367 H   0  0  0  0  0  0  0  0  0  0  0  0
    4.3463   -2.1422    7.1073 H   0  0  0  0  0  0  0  0  0  0  0  0
    3.2582    0.6414    9.9863 H   0  0  0  0  0  0  0  0  0  0  0  0
    3.3878    1.6547    8.5500 H   0  0  0  0  0  0  0  0  0  0  0  0
    4.7556    1.5382    9.7250 H   0  0  0  0  0  0  0  0  0  0  0  0
  1  2  1  0  0  0  0
  1 33  1  0  0  0  0
  1 34  1  0  0  0  0
  1 35  1  0  0  0  0
  2  3  1  0  0  0  0
  3  4  1  0  0  0  0
  3 30  2  0  0  0  0
  4  5  2  0  0  0  0
  4 36  1  0  0  0  0
  5  6  1  0  0  0  0
  5 28  1  0  0  0  0
  6  7  2  0  0  0  0
  7  8  1  0  0  0  0
  7 37  1  0  0  0  0
  8  9  2  0  0  0  0
  9 10  1  0  0  0  0
  9 28  1  0  0  0  0
 10 11  1  0  0  0  0
 10 38  1  0  0  0  0
 11 12  1  0  0  0  0
 11 27  2  0  0  0  0
 12 13  2  0  0  0  0
 12 39  1  0  0  0  0
 13 14  1  0  0  0  0
 13 40  1  0  0  0  0
 14 15  1  0  0  0  0
 14 26  2  0  0  0  0
 15 16  1  0  0  0  0
 15 41  1  0  0  0  0
 16 17  2  0  0  0  0
 16 18  1  0  0  0  0
 18 19  1  0  0  0  0
 18 24  2  0  0  0  0
 19 20  2  0  0  0  0
 19 42  1  0  0  0  0
 20 21  1  0  0  0  0
 20 22  1  0  0  0  0
 22 23  2  0  0  0  0
 22 43  1  0  0  0  0
 23 24  1  0  0  0  0
 23 44  1  0  0  0  0
 24 25  1  0  0  0  0
 26 27  1  0  0  0  0
 26 45  1  0  0  0  0
 27 46  1  0  0  0  0
 28 29  2  0  0  0  0
 29 30  1  0  0  0  0
 29 47  1  0  0  0  0
 30 31  1  0  0  0  0
 31 32  1  0  0  0  0
 32 48  1  0  0  0  0
 32 49  1  0  0  0  0
 32 50  1  0  0  0  0
M  END
$$$$
