CHEMBL179061
 OpenBabel04072215363D

 55 58  0  0  0  0  0  0  0  0999 V2000
    4.5876   -1.0900    0.7894 C   0  0  0  0  0  0  0  0  0  0  0  0
    4.0854    0.2404    0.6567 O   0  0  0  0  0  0  0  0  0  0  0  0
    4.3554    0.8199   -0.5563 C   0  0  0  0  0  0  0  0  0  0  0  0
    5.5381    0.5596   -1.2615 C   0  0  0  0  0  0  0  0  0  0  0  0
    5.7772    1.0525   -2.5374 C   0  0  0  0  0  0  0  0  0  0  0  0
    6.9273    0.6950   -3.1241 N   0  0  0  0  0  0  0  0  0  0  0  0
    7.1751    1.1327   -4.3720 C   0  0  0  0  0  0  0  0  0  0  0  0
    6.3302    1.9672   -5.0653 C   0  0  0  0  0  0  0  0  0  0  0  0
    5.1435    2.3698   -4.4487 C   0  0  0  0  0  0  0  0  0  0  0  0
    4.3788    3.2031   -5.2514 O   0  0  0  0  0  0  0  0  0  0  0  0
    3.6362    4.2250   -4.7084 C   0  0  0  0  0  0  0  0  0  0  0  0
    3.9913    4.9227   -3.5609 C   0  0  0  0  0  0  0  0  0  0  0  0
    3.0512    5.7482   -2.9425 C   0  0  0  0  0  0  0  0  0  0  0  0
    1.7894    5.9694   -3.5053 C   0  0  0  0  0  0  0  0  0  0  0  0
    0.7642    6.6987   -2.8527 N   0  0  0  0  0  0  0  0  0  0  0  0
    0.8580    7.2733   -1.5988 C   0  0  0  0  0  0  0  0  0  0  0  0
    1.8865    7.3363   -0.9302 O   0  0  0  0  0  0  0  0  0  0  0  0
   -0.3618    7.7440   -1.1335 N   0  0  0  0  0  0  0  0  0  0  0  0
   -0.4355    8.3506    0.1546 C   0  0  0  0  0  0  0  0  0  0  0  0
    0.4781    9.3575    0.5017 C   0  0  0  0  0  0  0  0  0  0  0  0
    0.4504    9.9425    1.7687 C   0  0  0  0  0  0  0  0  0  0  0  0
   -0.5042    9.5337    2.6930 C   0  0  0  0  0  0  0  0  0  0  0  0
   -1.4190    8.5313    2.3600 C   0  0  0  0  0  0  0  0  0  0  0  0
   -1.3931    7.9253    1.0876 C   0  0  0  0  0  0  0  0  0  0  0  0
   -2.2925    6.7492    0.8304 C   0  0  0  0  0  0  0  0  0  0  0  0
    1.5108    5.3962   -4.7521 C   0  0  0  0  0  0  0  0  0  0  0  0
    2.4319    4.5234   -5.3476 C   0  0  0  0  0  0  0  0  0  0  0  0
    4.8066    1.8664   -3.1567 C   0  0  0  0  0  0  0  0  0  0  0  0
    3.6059    2.1065   -2.4348 C   0  0  0  0  0  0  0  0  0  0  0  0
    3.4087    1.6655   -1.1238 C   0  0  0  0  0  0  0  0  0  0  0  0
    2.2265    2.0731   -0.5690 O   0  0  0  0  0  0  0  0  0  0  0  0
    2.2568    2.4010    0.8191 C   0  0  0  0  0  0  0  0  0  0  0  0
    3.9904   -1.6058    1.5461 H   0  0  0  0  0  0  0  0  0  0  0  0
    5.6270   -1.0676    1.1323 H   0  0  0  0  0  0  0  0  0  0  0  0
    4.5006   -1.6615   -0.1431 H   0  0  0  0  0  0  0  0  0  0  0  0
    6.3153   -0.0595   -0.8214 H   0  0  0  0  0  0  0  0  0  0  0  0
    8.1043    0.7804   -4.8103 H   0  0  0  0  0  0  0  0  0  0  0  0
    6.5816    2.2984   -6.0663 H   0  0  0  0  0  0  0  0  0  0  0  0
    4.9430    4.7551   -3.0643 H   0  0  0  0  0  0  0  0  0  0  0  0
    3.3380    6.1607   -1.9807 H   0  0  0  0  0  0  0  0  0  0  0  0
   -0.1049    6.8259   -3.3507 H   0  0  0  0  0  0  0  0  0  0  0  0
   -1.1557    7.1918   -1.4144 H   0  0  0  0  0  0  0  0  0  0  0  0
    1.2373    9.6819   -0.2055 H   0  0  0  0  0  0  0  0  0  0  0  0
    1.1856   10.6985    2.0337 H   0  0  0  0  0  0  0  0  0  0  0  0
   -0.5201    9.9746    3.6869 H   0  0  0  0  0  0  0  0  0  0  0  0
   -2.1289    8.2037    3.1089 H   0  0  0  0  0  0  0  0  0  0  0  0
   -2.9499    6.5513    1.6826 H   0  0  0  0  0  0  0  0  0  0  0  0
   -1.6863    5.8504    0.6699 H   0  0  0  0  0  0  0  0  0  0  0  0
   -2.9238    6.9274   -0.0445 H   0  0  0  0  0  0  0  0  0  0  0  0
    0.5637    5.5782   -5.2532 H   0  0  0  0  0  0  0  0  0  0  0  0
    2.1844    4.0373   -6.2885 H   0  0  0  0  0  0  0  0  0  0  0  0
    2.7938    2.6710   -2.8825 H   0  0  0  0  0  0  0  0  0  0  0  0
    1.6405    3.2942    0.9663 H   0  0  0  0  0  0  0  0  0  0  0  0
    3.2554    2.6301    1.2056 H   0  0  0  0  0  0  0  0  0  0  0  0
    1.8010    1.5858    1.3874 H   0  0  0  0  0  0  0  0  0  0  0  0
  1  2  1  0  0  0  0
  1 33  1  0  0  0  0
  1 34  1  0  0  0  0
  1 35  1  0  0  0  0
  2  3  1  0  0  0  0
  3  4  1  0  0  0  0
  3 30  2  0  0  0  0
  4  5  2  0  0  0  0
  4 36  1  0  0  0  0
  5  6  1  0  0  0  0
  5 28  1  0  0  0  0
  6  7  2  0  0  0  0
  7  8  1  0  0  0  0
  7 37  1  0  0  0  0
  8  9  2  0  0  0  0
  8 38  1  0  0  0  0
  9 10  1  0  0  0  0
  9 28  1  0  0  0  0
 10 11  1  0  0  0  0
 11 12  1  0  0  0  0
 11 27  2  0  0  0  0
 12 13  2  0  0  0  0
 12 39  1  0  0  0  0
 13 14  1  0  0  0  0
 13 40  1  0  0  0  0
 14 15  1  0  0  0  0
 14 26  2  0  0  0  0
 15 16  1  0  0  0  0
 15 41  1  0  0  0  0
 16 17  2  0  0  0  0
 16 18  1  0  0  0  0
 18 19  1  0  0  0  0
 18 42  1  0  0  0  0
 19 20  1  0  0  0  0
 19 24  2  0  0  0  0
 20 21  2  0  0  0  0
 20 43  1  0  0  0  0
 21 22  1  0  0  0  0
 21 44  1  0  0  0  0
 22 23  2  0  0  0  0
 22 45  1  0  0  0  0
 23 24  1  0  0  0  0
 23 46  1  0  0  0  0
 24 25  1  0  0  0  0
 25 47  1  0  0  0  0
 25 48  1  0  0  0  0
 25 49  1  0  0  0  0
 26 27  1  0  0  0  0
 26 50  1  0  0  0  0
 27 51  1  0  0  0  0
 28 29  2  0  0  0  0
 29 30  1  0  0  0  0
 29 52  1  0  0  0  0
 30 31  1  0  0  0  0
 31 32  1  0  0  0  0
 32 53  1  0  0  0  0
 32 54  1  0  0  0  0
 32 55  1  0  0  0  0
M  END
$$$$
