CHEMBL250482
 OpenBabel04072215363D

 55 58  0  0  0  0  0  0  0  0999 V2000
    1.1002    0.2220    0.5514 O   0  0  0  0  0  0  0  0  0  0  0  0
    2.0935   -0.2694   -0.0010 C   0  0  0  0  0  0  0  0  0  0  0  0
    2.6051    0.0856   -1.2272 N   0  0  0  0  0  0  0  0  0  0  0  0
    2.0526    1.0053   -2.1325 C   0  0  0  0  0  0  0  0  0  0  0  0
    0.8870    1.7214   -1.8588 C   0  0  0  0  0  0  0  0  0  0  0  0
    0.3395    2.5790   -2.8075 C   0  0  0  0  0  0  0  0  0  0  0  0
    0.9285    2.7101   -4.0681 C   0  0  0  0  0  0  0  0  0  0  0  0
    0.2142    3.4287   -5.1946 C   0  0  0  0  0  0  0  0  0  0  0  0
   -0.1169    4.8946   -4.8777 C   0  0  0  0  0  0  0  0  0  0  0  0
   -0.8702    5.5473   -6.0368 C   0  0  0  0  0  0  0  0  0  0  0  0
   -2.1313    4.7674   -6.3988 C   0  0  0  0  0  0  0  0  0  0  0  0
   -1.8149    3.3113   -6.7217 C   0  0  0  0  0  0  0  0  0  0  0  0
   -1.0560    2.6428   -5.5809 C   0  0  0  0  0  0  0  0  0  0  0  0
    2.1482    2.0607   -4.3071 C   0  0  0  0  0  0  0  0  0  0  0  0
    2.7044    1.2125   -3.3463 C   0  0  0  0  0  0  0  0  0  0  0  0
    2.8734   -1.2715    0.7648 C   0  0  0  0  0  0  0  0  0  0  0  0
    2.8044   -1.1284    2.1734 C   0  0  0  0  0  0  0  0  0  0  0  0
    3.5436   -1.9842    2.9744 C   0  0  0  0  0  0  0  0  0  0  0  0
    4.3087   -2.9421    2.3510 C   0  0  0  0  0  0  0  0  0  0  0  0
    4.4041   -3.0987    1.0049 N   0  0  0  0  0  0  0  0  0  0  0  0
    3.6990   -2.2549    0.2163 C   0  0  0  0  0  0  0  0  0  0  0  0
    3.8331   -2.4187   -1.1861 N   0  0  0  0  0  0  0  0  0  0  0  0
    5.0926   -3.0681   -1.5936 C   0  0  0  0  0  0  0  0  0  0  0  0
    5.4433   -2.7858   -3.0397 C   0  0  0  0  0  0  0  0  0  0  0  0
    6.7952   -2.6791   -3.4166 C   0  0  0  0  0  0  0  0  0  0  0  0
    7.1077   -2.6062   -4.7645 C   0  0  0  0  0  0  0  0  0  0  0  0
    6.1868   -2.6112   -5.7464 N   0  0  0  0  0  0  0  0  0  0  0  0
    4.8928   -2.6984   -5.3627 C   0  0  0  0  0  0  0  0  0  0  0  0
    4.4791   -2.7794   -4.0440 C   0  0  0  0  0  0  0  0  0  0  0  0
    3.4844   -0.3637   -1.5000 H   0  0  0  0  0  0  0  0  0  0  0  0
    0.3677    1.6374   -0.9124 H   0  0  0  0  0  0  0  0  0  0  0  0
   -0.5776    3.1080   -2.5564 H   0  0  0  0  0  0  0  0  0  0  0  0
    0.8773    3.4304   -6.0710 H   0  0  0  0  0  0  0  0  0  0  0  0
    0.8060    5.4535   -4.6803 H   0  0  0  0  0  0  0  0  0  0  0  0
   -0.7290    4.9716   -3.9707 H   0  0  0  0  0  0  0  0  0  0  0  0
   -0.2129    5.6029   -6.9135 H   0  0  0  0  0  0  0  0  0  0  0  0
   -1.1370    6.5759   -5.7705 H   0  0  0  0  0  0  0  0  0  0  0  0
   -2.6221    5.2357   -7.2591 H   0  0  0  0  0  0  0  0  0  0  0  0
   -2.8401    4.8104   -5.5626 H   0  0  0  0  0  0  0  0  0  0  0  0
   -1.2159    3.2578   -7.6388 H   0  0  0  0  0  0  0  0  0  0  0  0
   -2.7444    2.7637   -6.9143 H   0  0  0  0  0  0  0  0  0  0  0  0
   -0.7905    1.6181   -5.8726 H   0  0  0  0  0  0  0  0  0  0  0  0
   -1.7310    2.5522   -4.7189 H   0  0  0  0  0  0  0  0  0  0  0  0
    2.6584    2.1853   -5.2582 H   0  0  0  0  0  0  0  0  0  0  0  0
    3.6443    0.7122   -3.5682 H   0  0  0  0  0  0  0  0  0  0  0  0
    2.2156   -0.3406    2.6237 H   0  0  0  0  0  0  0  0  0  0  0  0
    3.5234   -1.8894    4.0594 H   0  0  0  0  0  0  0  0  0  0  0  0
    4.8971   -3.6434    2.9290 H   0  0  0  0  0  0  0  0  0  0  0  0
    3.0023   -2.9159   -1.5168 H   0  0  0  0  0  0  0  0  0  0  0  0
    5.0899   -4.1564   -1.4564 H   0  0  0  0  0  0  0  0  0  0  0  0
    5.9130   -2.6326   -1.0134 H   0  0  0  0  0  0  0  0  0  0  0  0
    7.5949   -2.7122   -2.6804 H   0  0  0  0  0  0  0  0  0  0  0  0
    8.1431   -2.5847   -5.1004 H   0  0  0  0  0  0  0  0  0  0  0  0
    4.1699   -2.7475   -6.1733 H   0  0  0  0  0  0  0  0  0  0  0  0
    3.4261   -2.8955   -3.8146 H   0  0  0  0  0  0  0  0  0  0  0  0
  1  2  2  0  0  0  0
  2  3  1  0  0  0  0
  2 16  1  0  0  0  0
  3  4  1  0  0  0  0
  3 30  1  0  0  0  0
  4  5  1  0  0  0  0
  4 15  2  0  0  0  0
  5  6  2  0  0  0  0
  5 31  1  0  0  0  0
  6  7  1  0  0  0  0
  6 32  1  0  0  0  0
  7  8  1  0  0  0  0
  7 14  2  0  0  0  0
  8  9  1  0  0  0  0
  8 13  1  0  0  0  0
  8 33  1  0  0  0  0
  9 10  1  0  0  0  0
  9 34  1  0  0  0  0
  9 35  1  0  0  0  0
 10 11  1  0  0  0  0
 10 36  1  0  0  0  0
 10 37  1  0  0  0  0
 11 12  1  0  0  0  0
 11 38  1  0  0  0  0
 11 39  1  0  0  0  0
 12 13  1  0  0  0  0
 12 40  1  0  0  0  0
 12 41  1  0  0  0  0
 13 42  1  0  0  0  0
 13 43  1  0  0  0  0
 14 15  1  0  0  0  0
 14 44  1  0  0  0  0
 15 45  1  0  0  0  0
 16 17  1  0  0  0  0
 16 21  2  0  0  0  0
 17 18  2  0  0  0  0
 17 46  1  0  0  0  0
 18 19  1  0  0  0  0
 18 47  1  0  0  0  0
 19 20  2  0  0  0  0
 19 48  1  0  0  0  0
 20 21  1  0  0  0  0
 21 22  1  0  0  0  0
 22 23  1  0  0  0  0
 22 49  1  0  0  0  0
 23 24  1  0  0  0  0
 23 50  1  0  0  0  0
 23 51  1  0  0  0  0
 24 25  1  0  0  0  0
 24 29  2  0  0  0  0
 25 26  2  0  0  0  0
 25 52  1  0  0  0  0
 26 27  1  0  0  0  0
 26 53  1  0  0  0  0
 27 28  2  0  0  0  0
 28 29  1  0  0  0  0
 28 54  1  0  0  0  0
 29 55  1  0  0  0  0
M  END
$$$$
