CHEMBL3715932
 OpenBabel04072215373D

 38 41  0  0  0  0  0  0  0  0999 V2000
    1.1278    0.0325    0.1814 N   0  0  0  0  0  0  0  0  0  0  0  0
    2.5074    0.0228    0.1038 C   0  0  0  0  0  0  0  0  0  0  0  0
    3.1135   -1.1779    0.1203 N   0  0  0  0  0  0  0  0  0  0  0  0
    4.4704   -1.2472    0.1168 C   0  0  0  0  0  0  0  0  0  0  0  0
    5.1213   -2.4665    0.2477 N   0  0  0  0  0  0  0  0  0  0  0  0
    4.4818   -3.6654   -0.2483 C   0  0  0  0  0  0  0  0  0  0  0  0
    5.4414   -4.8238   -0.0432 C   0  0  0  0  0  0  0  0  0  0  0  0
    5.3982   -5.5863    1.1338 C   0  0  0  0  0  0  0  0  0  0  0  0
    6.3145   -6.6206    1.3477 C   0  0  0  0  0  0  0  0  0  0  0  0
    7.2906   -6.8965    0.3931 C   0  0  0  0  0  0  0  0  0  0  0  0
    7.3569   -6.1374   -0.7731 C   0  0  0  0  0  0  0  0  0  0  0  0
    6.4396   -5.1053   -0.9906 C   0  0  0  0  0  0  0  0  0  0  0  0
    5.1879   -0.0373    0.0422 C   0  0  0  0  0  0  0  0  0  0  0  0
    4.4350    1.1217   -0.0083 C   0  0  0  0  0  0  0  0  0  0  0  0
    3.1009    1.2175    0.0088 N   0  0  0  0  0  0  0  0  0  0  0  0
    5.2846    2.1891   -0.0565 N   0  0  0  0  0  0  0  0  0  0  0  0
    6.5929    1.7627   -0.0405 C   0  0  0  0  0  0  0  0  0  0  0  0
    7.7847    2.4997   -0.0611 C   0  0  0  0  0  0  0  0  0  0  0  0
    8.9900    1.7906   -0.0416 C   0  0  0  0  0  0  0  0  0  0  0  0
    8.9875    0.4042   -0.0038 C   0  0  0  0  0  0  0  0  0  0  0  0
   10.1507   -0.3125    0.0042 O   0  0  0  0  0  0  0  0  0  0  0  0
    7.7996   -0.3227    0.0258 C   0  0  0  0  0  0  0  0  0  0  0  0
    6.5655    0.3642    0.0106 C   0  0  0  0  0  0  0  0  0  0  0  0
    0.7469   -0.8436   -0.1414 H   0  0  0  0  0  0  0  0  0  0  0  0
    0.7578    0.8887   -0.2055 H   0  0  0  0  0  0  0  0  0  0  0  0
    6.1052   -2.4169    0.0299 H   0  0  0  0  0  0  0  0  0  0  0  0
    4.2540   -3.5746   -1.3179 H   0  0  0  0  0  0  0  0  0  0  0  0
    3.5403   -3.8671    0.2759 H   0  0  0  0  0  0  0  0  0  0  0  0
    4.6577   -5.3651    1.8997 H   0  0  0  0  0  0  0  0  0  0  0  0
    6.2703   -7.2016    2.2643 H   0  0  0  0  0  0  0  0  0  0  0  0
    8.0068   -7.6969    0.5639 H   0  0  0  0  0  0  0  0  0  0  0  0
    8.1282   -6.3446   -1.5105 H   0  0  0  0  0  0  0  0  0  0  0  0
    6.5164   -4.5129   -1.8995 H   0  0  0  0  0  0  0  0  0  0  0  0
    4.9775    3.1493   -0.0833 H   0  0  0  0  0  0  0  0  0  0  0  0
    7.7803    3.5854   -0.0859 H   0  0  0  0  0  0  0  0  0  0  0  0
    9.9243    2.3455   -0.0560 H   0  0  0  0  0  0  0  0  0  0  0  0
   10.8972    0.3062    0.0005 H   0  0  0  0  0  0  0  0  0  0  0  0
    7.8522   -1.4038    0.0647 H   0  0  0  0  0  0  0  0  0  0  0  0
  1  2  1  0  0  0  0
  1 24  1  0  0  0  0
  1 25  1  0  0  0  0
  2  3  1  0  0  0  0
  2 15  2  0  0  0  0
  3  4  2  0  0  0  0
  4  5  1  0  0  0  0
  4 13  1  0  0  0  0
  5  6  1  0  0  0  0
  5 26  1  0  0  0  0
  6  7  1  0  0  0  0
  6 27  1  0  0  0  0
  6 28  1  0  0  0  0
  7  8  1  0  0  0  0
  7 12  2  0  0  0  0
  8  9  2  0  0  0  0
  8 29  1  0  0  0  0
  9 10  1  0  0  0  0
  9 30  1  0  0  0  0
 10 11  2  0  0  0  0
 10 31  1  0  0  0  0
 11 12  1  0  0  0  0
 11 32  1  0  0  0  0
 12 33  1  0  0  0  0
 13 14  2  0  0  0  0
 13 23  1  0  0  0  0
 14 15  1  0  0  0  0
 14 16  1  0  0  0  0
 16 17  1  0  0  0  0
 16 34  1  0  0  0  0
 17 18  1  0  0  0  0
 17 23  2  0  0  0  0
 18 19  2  0  0  0  0
 18 35  1  0  0  0  0
 19 20  1  0  0  0  0
 19 36  1  0  0  0  0
 20 21  1  0  0  0  0
 20 22  2  0  0  0  0
 21 37  1  0  0  0  0
 22 23  1  0  0  0  0
 22 38  1  0  0  0  0
M  END
$$$$
