CHEMBL4450127
 OpenBabel04072215383D

 51 54  0  0  0  0  0  0  0  0999 V2000
    0.1949    1.8727    0.5806 C   0  0  0  0  0  0  0  0  0  0  0  0
    1.5714    2.2395    0.5332 O   0  0  0  0  0  0  0  0  0  0  0  0
    2.3051    1.9705    1.6543 C   0  0  0  0  0  0  0  0  0  0  0  0
    1.8189    1.3537    2.7976 C   0  0  0  0  0  0  0  0  0  0  0  0
    2.6642    1.1326    3.8896 C   0  0  0  0  0  0  0  0  0  0  0  0
    4.0105    1.5122    3.8587 C   0  0  0  0  0  0  0  0  0  0  0  0
    4.8919    1.3171    4.9442 N   0  0  0  0  0  0  0  0  0  0  0  0
    4.5845    0.6492    6.1127 C   0  0  0  0  0  0  0  0  0  0  0  0
    3.5364    0.0441    6.3324 O   0  0  0  0  0  0  0  0  0  0  0  0
    5.5896    0.7778    7.0657 N   0  0  0  0  0  0  0  0  0  0  0  0
    5.4109    0.1718    8.3334 C   0  0  0  0  0  0  0  0  0  0  0  0
    4.9498   -1.1400    8.4486 C   0  0  0  0  0  0  0  0  0  0  0  0
    4.6216   -1.6640    9.6909 C   0  0  0  0  0  0  0  0  0  0  0  0
    4.7414   -0.8508   10.8362 C   0  0  0  0  0  0  0  0  0  0  0  0
    4.2976   -1.4014   12.1352 C   0  0  0  0  0  0  0  0  0  0  0  0
    4.2901   -2.6245   12.2871 O   0  0  0  0  0  0  0  0  0  0  0  0
    3.8467   -0.4692   13.0865 N   0  0  0  0  0  0  0  0  0  0  0  0
    3.1460   -0.9320   14.1783 N   0  0  0  0  0  0  0  0  0  0  0  0
    3.7667   -1.8218   14.8941 C   0  0  0  0  0  0  0  0  0  0  0  0
    5.2744   -2.0830   15.0436 C   0  0  0  0  0  0  0  0  0  0  0  0
    6.1556   -1.2538   14.9695 O   0  0  0  0  0  0  0  0  0  0  0  0
    5.3792   -3.4389   15.2794 N   0  0  0  0  0  0  0  0  0  0  0  0
    4.1164   -4.0268   15.2151 C   0  0  0  0  0  0  0  0  0  0  0  0
    3.8245   -5.3315   14.8863 C   0  0  0  0  0  0  0  0  0  0  0  0
    2.4760   -5.6454   14.6540 C   0  0  0  0  0  0  0  0  0  0  0  0
    1.4589   -4.6835   14.8362 C   0  0  0  0  0  0  0  0  0  0  0  0
   -0.1819   -5.1137   14.5442 Cl  0  0  0  0  0  0  0  0  0  0  0  0
    1.7650   -3.3656   15.1498 C   0  0  0  0  0  0  0  0  0  0  0  0
    3.1063   -3.0666   15.2752 C   0  0  0  0  0  0  0  0  0  0  0  0
    5.2710    0.4388   10.7263 C   0  0  0  0  0  0  0  0  0  0  0  0
    5.6311    0.9449    9.4735 C   0  0  0  0  0  0  0  0  0  0  0  0
    4.4958    2.1319    2.7020 C   0  0  0  0  0  0  0  0  0  0  0  0
    3.6499    2.3459    1.6089 C   0  0  0  0  0  0  0  0  0  0  0  0
   -0.2536    2.1174   -0.3864 H   0  0  0  0  0  0  0  0  0  0  0  0
   -0.3367    2.4435    1.3502 H   0  0  0  0  0  0  0  0  0  0  0  0
    0.0746    0.7949    0.7376 H   0  0  0  0  0  0  0  0  0  0  0  0
    0.7908    1.0283    2.8986 H   0  0  0  0  0  0  0  0  0  0  0  0
    2.2184    0.6501    4.7516 H   0  0  0  0  0  0  0  0  0  0  0  0
    5.8556    1.5846    4.8155 H   0  0  0  0  0  0  0  0  0  0  0  0
    6.0497    1.6760    7.0579 H   0  0  0  0  0  0  0  0  0  0  0  0
    4.8030   -1.7568    7.5581 H   0  0  0  0  0  0  0  0  0  0  0  0
    4.2285   -2.6711    9.7694 H   0  0  0  0  0  0  0  0  0  0  0  0
    3.4673    0.3950   12.7083 H   0  0  0  0  0  0  0  0  0  0  0  0
    6.2649   -3.9181   15.3258 H   0  0  0  0  0  0  0  0  0  0  0  0
    4.6055   -6.0475   14.6524 H   0  0  0  0  0  0  0  0  0  0  0  0
    2.2174   -6.6262   14.2603 H   0  0  0  0  0  0  0  0  0  0  0  0
    1.0144   -2.5840   15.1681 H   0  0  0  0  0  0  0  0  0  0  0  0
    5.4109    1.0603   11.6064 H   0  0  0  0  0  0  0  0  0  0  0  0
    5.9985    1.9620    9.4043 H   0  0  0  0  0  0  0  0  0  0  0  0
    5.5339    2.4443    2.6305 H   0  0  0  0  0  0  0  0  0  0  0  0
    4.0342    2.8404    0.7179 H   0  0  0  0  0  0  0  0  0  0  0  0
  1  2  1  0  0  0  0
  1 34  1  0  0  0  0
  1 35  1  0  0  0  0
  1 36  1  0  0  0  0
  2  3  1  0  0  0  0
  3  4  1  0  0  0  0
  3 33  2  0  0  0  0
  4  5  2  0  0  0  0
  4 37  1  0  0  0  0
  5  6  1  0  0  0  0
  5 38  1  0  0  0  0
  6  7  1  0  0  0  0
  6 32  2  0  0  0  0
  7  8  1  0  0  0  0
  7 39  1  0  0  0  0
  8  9  2  0  0  0  0
  8 10  1  0  0  0  0
 10 11  1  0  0  0  0
 10 40  1  0  0  0  0
 11 12  1  0  0  0  0
 11 31  2  0  0  0  0
 12 13  2  0  0  0  0
 12 41  1  0  0  0  0
 13 14  1  0  0  0  0
 13 42  1  0  0  0  0
 14 15  1  0  0  0  0
 14 30  2  0  0  0  0
 15 16  2  0  0  0  0
 15 17  1  0  0  0  0
 17 18  1  0  0  0  0
 17 43  1  0  0  0  0
 18 19  2  0  0  0  0
 19 20  1  0  0  0  0
 19 29  1  0  0  0  0
 20 21  2  0  0  0  0
 20 22  1  0  0  0  0
 22 23  1  0  0  0  0
 22 44  1  0  0  0  0
 23 24  1  0  0  0  0
 23 29  2  0  0  0  0
 24 25  2  0  0  0  0
 24 45  1  0  0  0  0
 25 26  1  0  0  0  0
 25 46  1  0  0  0  0
 26 27  1  0  0  0  0
 26 28  2  0  0  0  0
 28 29  1  0  0  0  0
 28 47  1  0  0  0  0
 30 31  1  0  0  0  0
 30 48  1  0  0  0  0
 31 49  1  0  0  0  0
 32 33  1  0  0  0  0
 32 50  1  0  0  0  0
 33 51  1  0  0  0  0
M  END
$$$$
