CHEMBL213138
 OpenBabel04072215363D

 70 75  0  0  0  0  0  0  0  0999 V2000
   -8.3250    1.8614    7.5444 C   0  0  0  0  0  0  0  0  0  0  0  0
   -9.2178    0.7348    7.1079 C   0  0  0  0  0  0  0  0  0  0  0  0
  -10.5495    0.9743    6.7496 C   0  0  0  0  0  0  0  0  0  0  0  0
  -11.3684   -0.0858    6.3727 C   0  0  0  0  0  0  0  0  0  0  0  0
  -10.8776   -1.3866    6.3497 C   0  0  0  0  0  0  0  0  0  0  0  0
   -9.5468   -1.6471    6.7046 C   0  0  0  0  0  0  0  0  0  0  0  0
   -9.0457   -3.0775    6.7543 C   0  0  0  0  0  0  0  0  0  0  0  0
   -7.8008   -3.3230    5.9480 C   0  0  0  0  0  0  0  0  0  0  0  0
   -6.6856   -3.0549    6.3149 O   0  0  0  0  0  0  0  0  0  0  0  0
   -8.0472   -3.9573    4.7249 N   0  0  0  0  0  0  0  0  0  0  0  0
   -6.9589   -4.3865    3.9106 C   0  0  0  0  0  0  0  0  0  0  0  0
   -7.4965   -4.8900    2.6148 C   0  0  0  0  0  0  0  0  0  0  0  0
   -7.4784   -4.1949    1.4292 C   0  0  0  0  0  0  0  0  0  0  0  0
   -8.0278   -4.9647    0.3882 C   0  0  0  0  0  0  0  0  0  0  0  0
   -8.6611   -6.1303    0.7965 C   0  0  0  0  0  0  0  0  0  0  0  0
   -9.5253   -6.9872   -0.1306 C   0  0  0  0  0  0  0  0  0  0  0  0
   -9.6933   -8.3149   -0.0599 N   0  0  0  0  0  0  0  0  0  0  0  0
  -10.0414   -8.6858   -1.3439 N   0  0  0  0  0  0  0  0  0  0  0  0
  -10.2592   -7.6221   -2.1894 C   0  0  0  0  0  0  0  0  0  0  0  0
  -10.0686   -6.5163   -1.3564 C   0  0  0  0  0  0  0  0  0  0  0  0
   -9.7476   -5.3260   -2.1667 C   0  0  0  0  0  0  0  0  0  0  0  0
   -8.8377   -6.1605   -3.0821 C   0  0  0  0  0  0  0  0  0  0  0  0
   -7.4855   -6.4981   -2.8548 C   0  0  0  0  0  0  0  0  0  0  0  0
   -6.9467   -7.6098   -3.5308 C   0  0  0  0  0  0  0  0  0  0  0  0
   -5.7955   -8.4452   -2.9829 C   0  0  0  0  0  0  0  0  0  0  0  0
   -4.7642   -8.7537   -3.9758 N   0  0  0  0  0  0  0  0  0  0  0  0
   -3.9171   -7.5761   -4.2151 C   0  0  0  0  0  0  0  0  0  0  0  0
   -2.7994   -7.8796   -5.2326 C   0  0  0  0  0  0  0  0  0  0  0  0
   -1.9250   -9.0126   -4.8693 N   0  0  0  0  0  0  0  0  0  0  0  0
   -1.0296   -8.6692   -3.7671 C   0  0  0  0  0  0  0  0  0  0  0  0
   -2.7657  -10.1827   -4.5429 C   0  0  0  0  0  0  0  0  0  0  0  0
   -3.9301   -9.9011   -3.5575 C   0  0  0  0  0  0  0  0  0  0  0  0
   -7.7051   -8.1611   -4.5650 C   0  0  0  0  0  0  0  0  0  0  0  0
   -9.0878   -8.0630   -4.4884 C   0  0  0  0  0  0  0  0  0  0  0  0
   -9.6204   -7.2503   -3.5131 C   0  0  0  0  0  0  0  0  0  0  0  0
   -8.2283   -6.4432    2.4241 S   0  0  0  0  0  0  0  0  0  0  0  0
   -8.7233   -0.5754    7.0790 C   0  0  0  0  0  0  0  0  0  0  0  0
   -8.8358    2.8279    7.4855 H   0  0  0  0  0  0  0  0  0  0  0  0
   -7.4390    1.9101    6.9034 H   0  0  0  0  0  0  0  0  0  0  0  0
   -8.0124    1.7086    8.5823 H   0  0  0  0  0  0  0  0  0  0  0  0
  -10.9570    1.9806    6.7741 H   0  0  0  0  0  0  0  0  0  0  0  0
  -12.4105    0.1018    6.1059 H   0  0  0  0  0  0  0  0  0  0  0  0
  -11.5427   -2.2033    6.0744 H   0  0  0  0  0  0  0  0  0  0  0  0
   -9.8365   -3.7715    6.4492 H   0  0  0  0  0  0  0  0  0  0  0  0
   -8.8102   -3.3311    7.8017 H   0  0  0  0  0  0  0  0  0  0  0  0
   -8.9923   -4.0583    4.3864 H   0  0  0  0  0  0  0  0  0  0  0  0
   -6.3646   -5.1430    4.4322 H   0  0  0  0  0  0  0  0  0  0  0  0
   -6.2959   -3.5185    3.7277 H   0  0  0  0  0  0  0  0  0  0  0  0
   -7.0464   -3.2051    1.3029 H   0  0  0  0  0  0  0  0  0  0  0  0
   -7.9496   -4.5949   -0.6111 H   0  0  0  0  0  0  0  0  0  0  0  0
  -10.0307   -9.6751   -1.5788 H   0  0  0  0  0  0  0  0  0  0  0  0
   -9.3465   -4.4322   -1.7173 H   0  0  0  0  0  0  0  0  0  0  0  0
  -10.6402   -5.0050   -2.7218 H   0  0  0  0  0  0  0  0  0  0  0  0
   -6.9518   -6.0955   -1.9940 H   0  0  0  0  0  0  0  0  0  0  0  0
   -6.2675   -9.3896   -2.6630 H   0  0  0  0  0  0  0  0  0  0  0  0
   -5.3729   -8.0125   -2.0669 H   0  0  0  0  0  0  0  0  0  0  0  0
   -3.4782   -7.2213   -3.2732 H   0  0  0  0  0  0  0  0  0  0  0  0
   -4.5261   -6.7577   -4.6148 H   0  0  0  0  0  0  0  0  0  0  0  0
   -2.2013   -6.9756   -5.3955 H   0  0  0  0  0  0  0  0  0  0  0  0
   -3.2644   -8.1062   -6.2015 H   0  0  0  0  0  0  0  0  0  0  0  0
   -0.4208   -7.7964   -4.0280 H   0  0  0  0  0  0  0  0  0  0  0  0
   -0.3300   -9.4909   -3.5784 H   0  0  0  0  0  0  0  0  0  0  0  0
   -1.5535   -8.4493   -2.8314 H   0  0  0  0  0  0  0  0  0  0  0  0
   -2.1422  -10.9988   -4.1558 H   0  0  0  0  0  0  0  0  0  0  0  0
   -3.1903  -10.5616   -5.4823 H   0  0  0  0  0  0  0  0  0  0  0  0
   -3.5217   -9.7380   -2.5518 H   0  0  0  0  0  0  0  0  0  0  0  0
   -4.5498  -10.8059   -3.5082 H   0  0  0  0  0  0  0  0  0  0  0  0
   -7.2260   -8.7711   -5.3249 H   0  0  0  0  0  0  0  0  0  0  0  0
   -9.7122   -8.4660   -5.2757 H   0  0  0  0  0  0  0  0  0  0  0  0
   -7.6890   -0.7611    7.3746 H   0  0  0  0  0  0  0  0  0  0  0  0
  1  2  1  0  0  0  0
  1 38  1  0  0  0  0
  1 39  1  0  0  0  0
  1 40  1  0  0  0  0
  2  3  1  0  0  0  0
  2 37  2  0  0  0  0
  3  4  2  0  0  0  0
  3 41  1  0  0  0  0
  4  5  1  0  0  0  0
  4 42  1  0  0  0  0
  5  6  2  0  0  0  0
  5 43  1  0  0  0  0
  6  7  1  0  0  0  0
  6 37  1  0  0  0  0
  7  8  1  0  0  0  0
  7 44  1  0  0  0  0
  7 45  1  0  0  0  0
  8  9  2  0  0  0  0
  8 10  1  0  0  0  0
 10 11  1  0  0  0  0
 10 46  1  0  0  0  0
 11 12  1  0  0  0  0
 11 47  1  0  0  0  0
 11 48  1  0  0  0  0
 12 13  2  0  0  0  0
 12 36  1  0  0  0  0
 13 14  1  0  0  0  0
 13 49  1  0  0  0  0
 14 15  2  0  0  0  0
 14 50  1  0  0  0  0
 15 16  1  0  0  0  0
 15 36  1  0  0  0  0
 16 17  2  0  0  0  0
 16 20  1  0  0  0  0
 17 18  1  0  0  0  0
 18 19  1  0  0  0  0
 18 51  1  0  0  0  0
 19 20  2  0  0  0  0
 19 35  1  0  0  0  0
 20 21  1  0  0  0  0
 21 22  1  0  0  0  0
 21 52  1  0  0  0  0
 21 53  1  0  0  0  0
 22 23  1  0  0  0  0
 22 35  2  0  0  0  0
 23 24  2  0  0  0  0
 23 54  1  0  0  0  0
 24 25  1  0  0  0  0
 24 33  1  0  0  0  0
 25 26  1  0  0  0  0
 25 55  1  0  0  0  0
 25 56  1  0  0  0  0
 26 27  1  0  0  0  0
 26 32  1  0  0  0  0
 27 28  1  0  0  0  0
 27 57  1  0  0  0  0
 27 58  1  0  0  0  0
 28 29  1  0  0  0  0
 28 59  1  0  0  0  0
 28 60  1  0  0  0  0
 29 30  1  0  0  0  0
 29 31  1  0  0  0  0
 30 61  1  0  0  0  0
 30 62  1  0  0  0  0
 30 63  1  0  0  0  0
 31 32  1  0  0  0  0
 31 64  1  0  0  0  0
 31 65  1  0  0  0  0
 32 66  1  0  0  0  0
 32 67  1  0  0  0  0
 33 34  2  0  0  0  0
 33 68  1  0  0  0  0
 34 35  1  0  0  0  0
 34 69  1  0  0  0  0
 37 70  1  0  0  0  0
M  END
$$$$
