CHEMBL208363
 OpenBabel04072215363D

 46 49  0  0  0  0  0  0  0  0999 V2000
    2.4280   -8.3252    6.6836 F   0  0  0  0  0  0  0  0  0  0  0  0
    1.9006   -8.8940    5.5633 C   0  0  0  0  0  0  0  0  0  0  0  0
    1.9268  -10.2380    5.7808 F   0  0  0  0  0  0  0  0  0  0  0  0
    0.5849   -8.5425    5.5518 F   0  0  0  0  0  0  0  0  0  0  0  0
    2.6157   -8.5003    4.2935 C   0  0  0  0  0  0  0  0  0  0  0  0
    3.7030   -7.6191    4.3153 C   0  0  0  0  0  0  0  0  0  0  0  0
    4.3543   -7.2519    3.1296 C   0  0  0  0  0  0  0  0  0  0  0  0
    3.9321   -7.7342    1.8869 C   0  0  0  0  0  0  0  0  0  0  0  0
    4.5545   -7.4213    0.6621 N   0  0  0  0  0  0  0  0  0  0  0  0
    5.6706   -6.7045    0.4196 C   0  0  0  0  0  0  0  0  0  0  0  0
    6.0022   -6.0673   -0.6835 N   0  0  0  0  0  0  0  0  0  0  0  0
    7.2548   -5.5241   -0.4716 N   0  0  0  0  0  0  0  0  0  0  0  0
    7.6325   -5.8984    0.7320 C   0  0  0  0  0  0  0  0  0  0  0  0
    8.8709   -5.6617    1.4876 C   0  0  0  0  0  0  0  0  0  0  0  0
    8.9823   -6.2461    2.7666 C   0  0  0  0  0  0  0  0  0  0  0  0
   10.1191   -6.0433    3.5244 C   0  0  0  0  0  0  0  0  0  0  0  0
   11.1485   -5.2926    3.1139 N   0  0  0  0  0  0  0  0  0  0  0  0
   11.0399   -4.7323    1.8904 C   0  0  0  0  0  0  0  0  0  0  0  0
    9.9574   -4.8868    1.0140 C   0  0  0  0  0  0  0  0  0  0  0  0
    9.9787   -4.1657   -0.3256 C   0  0  0  0  0  0  0  0  0  0  0  0
   11.3763   -3.9908   -0.9559 C   0  0  0  0  0  0  0  0  0  0  0  0
   11.3511   -3.2731   -2.2810 C   0  0  0  0  0  0  0  0  0  0  0  0
   11.5697   -1.8936   -2.3473 C   0  0  0  0  0  0  0  0  0  0  0  0
   11.5591   -1.2766   -3.5887 C   0  0  0  0  0  0  0  0  0  0  0  0
   11.3449   -1.9302   -4.7495 N   0  0  0  0  0  0  0  0  0  0  0  0
   11.1313   -3.2607   -4.6629 C   0  0  0  0  0  0  0  0  0  0  0  0
   11.1240   -3.9681   -3.4700 C   0  0  0  0  0  0  0  0  0  0  0  0
    6.6640   -6.6521    1.3568 O   0  0  0  0  0  0  0  0  0  0  0  0
    2.8564   -8.6402    1.8776 C   0  0  0  0  0  0  0  0  0  0  0  0
    2.2015   -9.0134    3.0585 C   0  0  0  0  0  0  0  0  0  0  0  0
    4.0522   -7.2028    5.2596 H   0  0  0  0  0  0  0  0  0  0  0  0
    5.1798   -6.5500    3.2091 H   0  0  0  0  0  0  0  0  0  0  0  0
    3.9307   -7.5046   -0.1323 H   0  0  0  0  0  0  0  0  0  0  0  0
    8.1902   -6.8601    3.1854 H   0  0  0  0  0  0  0  0  0  0  0  0
   10.2282   -6.4879    4.5090 H   0  0  0  0  0  0  0  0  0  0  0  0
   11.9022   -4.1205    1.6430 H   0  0  0  0  0  0  0  0  0  0  0  0
    9.5092   -3.1832   -0.1871 H   0  0  0  0  0  0  0  0  0  0  0  0
    9.3767   -4.7122   -1.0563 H   0  0  0  0  0  0  0  0  0  0  0  0
   11.8522   -4.9719   -1.0853 H   0  0  0  0  0  0  0  0  0  0  0  0
   12.0400   -3.4231   -0.2944 H   0  0  0  0  0  0  0  0  0  0  0  0
   11.7573   -1.3053   -1.4551 H   0  0  0  0  0  0  0  0  0  0  0  0
   11.7319   -0.2083   -3.6835 H   0  0  0  0  0  0  0  0  0  0  0  0
   10.9634   -3.7638   -5.6108 H   0  0  0  0  0  0  0  0  0  0  0  0
   10.9528   -5.0393   -3.4761 H   0  0  0  0  0  0  0  0  0  0  0  0
    2.5119   -9.0712    0.9392 H   0  0  0  0  0  0  0  0  0  0  0  0
    1.3625   -9.7078    3.0088 H   0  0  0  0  0  0  0  0  0  0  0  0
  1  2  1  0  0  0  0
  2  3  1  0  0  0  0
  2  4  1  0  0  0  0
  2  5  1  0  0  0  0
  5  6  1  0  0  0  0
  5 30  2  0  0  0  0
  6  7  2  0  0  0  0
  6 31  1  0  0  0  0
  7  8  1  0  0  0  0
  7 32  1  0  0  0  0
  8  9  1  0  0  0  0
  8 29  2  0  0  0  0
  9 10  1  0  0  0  0
  9 33  1  0  0  0  0
 10 11  2  0  0  0  0
 10 28  1  0  0  0  0
 11 12  1  0  0  0  0
 12 13  2  0  0  0  0
 13 14  1  0  0  0  0
 13 28  1  0  0  0  0
 14 15  1  0  0  0  0
 14 19  2  0  0  0  0
 15 16  2  0  0  0  0
 15 34  1  0  0  0  0
 16 17  1  0  0  0  0
 16 35  1  0  0  0  0
 17 18  2  0  0  0  0
 18 19  1  0  0  0  0
 18 36  1  0  0  0  0
 19 20  1  0  0  0  0
 20 21  1  0  0  0  0
 20 37  1  0  0  0  0
 20 38  1  0  0  0  0
 21 22  1  0  0  0  0
 21 39  1  0  0  0  0
 21 40  1  0  0  0  0
 22 23  1  0  0  0  0
 22 27  2  0  0  0  0
 23 24  2  0  0  0  0
 23 41  1  0  0  0  0
 24 25  1  0  0  0  0
 24 42  1  0  0  0  0
 25 26  2  0  0  0  0
 26 27  1  0  0  0  0
 26 43  1  0  0  0  0
 27 44  1  0  0  0  0
 29 30  1  0  0  0  0
 29 45  1  0  0  0  0
 30 46  1  0  0  0  0
M  END
$$$$
