CHEMBL3746735
 OpenBabel04072215373D

 51 55  0  0  1  0  0  0  0  0999 V2000
    3.9962   -0.1430   -0.4371 C   0  0  0  0  0  0  0  0  0  0  0  0
    3.5089   -0.8905    0.8027 C   0  0  1  0  0  0  0  0  0  0  0  0
    3.7221   -0.0743    2.0309 N   0  0  0  0  0  0  0  0  0  0  0  0
    2.3846    0.1784    2.6309 C   0  0  0  0  0  0  0  0  0  0  0  0
    1.3911   -0.5394    1.7657 C   0  0  0  0  0  0  0  0  0  0  0  0
    0.0637   -0.5762    1.9528 N   0  0  0  0  0  0  0  0  0  0  0  0
   -0.5974   -1.2986    1.0329 C   0  0  0  0  0  0  0  0  0  0  0  0
   -0.0542   -1.9762    0.0025 N   0  0  0  0  0  0  0  0  0  0  0  0
    1.2934   -1.9175   -0.0967 C   0  0  0  0  0  0  0  0  0  0  0  0
    1.9508   -2.6135   -1.0968 O   0  0  0  0  0  0  0  0  0  0  0  0
    1.4265   -3.8158   -1.5118 C   0  0  0  0  0  0  0  0  0  0  0  0
    0.7658   -4.7108   -0.6712 C   0  0  0  0  0  0  0  0  0  0  0  0
    0.2488   -5.9143   -1.1591 C   0  0  0  0  0  0  0  0  0  0  0  0
    0.4518   -6.2206   -2.5149 C   0  0  0  0  0  0  0  0  0  0  0  0
    1.1982   -5.3781   -3.3496 C   0  0  0  0  0  0  0  0  0  0  0  0
    1.3369   -6.0264   -4.6018 C   0  0  0  0  0  0  0  0  0  0  0  0
    0.7147   -7.2446   -4.5013 C   0  0  0  0  0  0  0  0  0  0  0  0
    0.1153   -7.3520   -3.2572 N   0  0  0  0  0  0  0  0  0  0  0  0
   -0.5788   -8.4972   -2.8264 C   0  0  0  0  0  0  0  0  0  0  0  0
   -0.1460   -9.5902   -3.1620 O   0  0  0  0  0  0  0  0  0  0  0  0
   -1.7712   -8.1896   -2.1836 N   0  0  0  0  0  0  0  0  0  0  0  0
   -2.6416   -9.2041   -1.7110 C   0  0  0  0  0  0  0  0  0  0  0  0
   -2.1421  -10.4375   -1.2825 C   0  0  0  0  0  0  0  0  0  0  0  0
   -2.9997  -11.4662   -0.8986 C   0  0  0  0  0  0  0  0  0  0  0  0
   -4.3740  -11.2729   -0.9344 C   0  0  0  0  0  0  0  0  0  0  0  0
   -4.9064  -10.0345   -1.3251 C   0  0  0  0  0  0  0  0  0  0  0  0
   -6.4047   -9.8468   -1.3861 C   0  0  0  0  0  0  0  0  0  0  0  0
   -7.1072  -10.9799   -1.0999 F   0  0  0  0  0  0  0  0  0  0  0  0
   -6.8494   -8.9035   -0.5121 F   0  0  0  0  0  0  0  0  0  0  0  0
   -6.8302   -9.4502   -2.6171 F   0  0  0  0  0  0  0  0  0  0  0  0
   -4.0275   -8.9872   -1.6856 C   0  0  0  0  0  0  0  0  0  0  0  0
    1.6804   -4.1563   -2.8432 C   0  0  0  0  0  0  0  0  0  0  0  0
    2.0548   -1.1647    0.7467 C   0  0  0  0  0  0  0  0  0  0  0  0
    5.0681    0.0691   -0.3708 H   0  0  0  0  0  0  0  0  0  0  0  0
    3.4675    0.8093   -0.5655 H   0  0  0  0  0  0  0  0  0  0  0  0
    3.8300   -0.7299   -1.3470 H   0  0  0  0  0  0  0  0  0  0  0  0
    4.0619   -1.8290    0.9152 H   0  0  0  0  0  0  0  0  0  0  0  0
    4.1394    0.8212    1.7839 H   0  0  0  0  0  0  0  0  0  0  0  0
    2.1685    1.2507    2.6402 H   0  0  0  0  0  0  0  0  0  0  0  0
    2.3575   -0.2120    3.6525 H   0  0  0  0  0  0  0  0  0  0  0  0
   -1.6764   -1.3503    1.1290 H   0  0  0  0  0  0  0  0  0  0  0  0
    0.6394   -4.4855    0.3851 H   0  0  0  0  0  0  0  0  0  0  0  0
   -0.2562   -6.5986   -0.4839 H   0  0  0  0  0  0  0  0  0  0  0  0
    1.8755   -5.6626   -5.4674 H   0  0  0  0  0  0  0  0  0  0  0  0
    0.6127   -8.0538   -5.2135 H   0  0  0  0  0  0  0  0  0  0  0  0
   -2.1538   -7.2599   -2.3253 H   0  0  0  0  0  0  0  0  0  0  0  0
   -1.0723  -10.6225   -1.2392 H   0  0  0  0  0  0  0  0  0  0  0  0
   -2.5833  -12.4217   -0.5892 H   0  0  0  0  0  0  0  0  0  0  0  0
   -5.0295  -12.0998   -0.6634 H   0  0  0  0  0  0  0  0  0  0  0  0
   -4.4470   -8.0330   -2.0001 H   0  0  0  0  0  0  0  0  0  0  0  0
    2.2643   -3.4931   -3.4755 H   0  0  0  0  0  0  0  0  0  0  0  0
  1  2  1  0  0  0  0
  1 34  1  0  0  0  0
  1 35  1  0  0  0  0
  1 36  1  0  0  0  0
  2  3  1  0  0  0  0
  2 33  1  0  0  0  0
  2 37  1  1  0  0  0
  3  4  1  0  0  0  0
  3 38  1  0  0  0  0
  4  5  1  0  0  0  0
  4 39  1  0  0  0  0
  4 40  1  0  0  0  0
  5  6  1  0  0  0  0
  5 33  2  0  0  0  0
  6  7  2  0  0  0  0
  7  8  1  0  0  0  0
  7 41  1  0  0  0  0
  8  9  2  0  0  0  0
  9 10  1  0  0  0  0
  9 33  1  0  0  0  0
 10 11  1  0  0  0  0
 11 12  1  0  0  0  0
 11 32  2  0  0  0  0
 12 13  2  0  0  0  0
 12 42  1  0  0  0  0
 13 14  1  0  0  0  0
 13 43  1  0  0  0  0
 14 15  2  0  0  0  0
 14 18  1  0  0  0  0
 15 16  1  0  0  0  0
 15 32  1  0  0  0  0
 16 17  2  0  0  0  0
 16 44  1  0  0  0  0
 17 18  1  0  0  0  0
 17 45  1  0  0  0  0
 18 19  1  0  0  0  0
 19 20  2  0  0  0  0
 19 21  1  0  0  0  0
 21 22  1  0  0  0  0
 21 46  1  0  0  0  0
 22 23  1  0  0  0  0
 22 31  2  0  0  0  0
 23 24  2  0  0  0  0
 23 47  1  0  0  0  0
 24 25  1  0  0  0  0
 24 48  1  0  0  0  0
 25 26  2  0  0  0  0
 25 49  1  0  0  0  0
 26 27  1  0  0  0  0
 26 31  1  0  0  0  0
 27 28  1  0  0  0  0
 27 29  1  0  0  0  0
 27 30  1  0  0  0  0
 31 50  1  0  0  0  0
 32 51  1  0  0  0  0
M  END
$$$$
