CHEMBL194113
 OpenBabel04072215363D

 34 36  0  0  0  0  0  0  0  0999 V2000
    4.4669   -1.1108    3.1865 O   0  0  0  0  0  0  0  0  0  0  0  0
    4.8972   -2.2965    2.5336 C   0  0  0  0  0  0  0  0  0  0  0  0
    4.1220   -2.4837    1.2615 C   0  0  0  0  0  0  0  0  0  0  0  0
    4.1721   -1.5219    0.2473 C   0  0  0  0  0  0  0  0  0  0  0  0
    3.4617   -1.7052   -0.9388 C   0  0  0  0  0  0  0  0  0  0  0  0
    2.6983   -2.8599   -1.1287 C   0  0  0  0  0  0  0  0  0  0  0  0
    2.6628   -3.8552   -0.1460 C   0  0  0  0  0  0  0  0  0  0  0  0
    1.8721   -5.0072   -0.3415 N   0  0  0  0  0  0  0  0  0  0  0  0
    2.2448   -6.2185    0.1178 C   0  0  0  0  0  0  0  0  0  0  0  0
    3.4473   -6.6827    0.3856 N   0  0  0  0  0  0  0  0  0  0  0  0
    3.2289   -7.9743    0.7704 C   0  0  0  0  0  0  0  0  0  0  0  0
    1.8829   -8.2593    0.7442 C   0  0  0  0  0  0  0  0  0  0  0  0
    1.0821   -9.4448    1.0117 C   0  0  0  0  0  0  0  0  0  0  0  0
    1.7050  -10.6369    1.4100 C   0  0  0  0  0  0  0  0  0  0  0  0
    0.9597  -11.7954    1.6359 C   0  0  0  0  0  0  0  0  0  0  0  0
   -0.4233  -11.7743    1.4648 C   0  0  0  0  0  0  0  0  0  0  0  0
   -1.0573  -10.5988    1.0718 C   0  0  0  0  0  0  0  0  0  0  0  0
   -0.3109   -9.4367    0.8517 C   0  0  0  0  0  0  0  0  0  0  0  0
    1.2373   -7.1194    0.3321 O   0  0  0  0  0  0  0  0  0  0  0  0
    3.3591   -3.6399    1.0539 C   0  0  0  0  0  0  0  0  0  0  0  0
    4.9477   -1.0709    4.0292 H   0  0  0  0  0  0  0  0  0  0  0  0
    4.7512   -3.1390    3.2178 H   0  0  0  0  0  0  0  0  0  0  0  0
    5.9651   -2.2140    2.3070 H   0  0  0  0  0  0  0  0  0  0  0  0
    4.7635   -0.6204    0.3901 H   0  0  0  0  0  0  0  0  0  0  0  0
    3.5081   -0.9468   -1.7159 H   0  0  0  0  0  0  0  0  0  0  0  0
    2.1626   -2.9920   -2.0658 H   0  0  0  0  0  0  0  0  0  0  0  0
    0.8821   -4.8042   -0.2804 H   0  0  0  0  0  0  0  0  0  0  0  0
    4.0474   -8.6308    1.0266 H   0  0  0  0  0  0  0  0  0  0  0  0
    2.7839  -10.6845    1.5441 H   0  0  0  0  0  0  0  0  0  0  0  0
    1.4595  -12.7118    1.9360 H   0  0  0  0  0  0  0  0  0  0  0  0
   -1.0031  -12.6756    1.6320 H   0  0  0  0  0  0  0  0  0  0  0  0
   -2.1357  -10.5825    0.9352 H   0  0  0  0  0  0  0  0  0  0  0  0
   -0.8261   -8.5356    0.5400 H   0  0  0  0  0  0  0  0  0  0  0  0
    3.3063   -4.3904    1.8401 H   0  0  0  0  0  0  0  0  0  0  0  0
  1  2  1  0  0  0  0
  1 21  1  0  0  0  0
  2  3  1  0  0  0  0
  2 22  1  0  0  0  0
  2 23  1  0  0  0  0
  3  4  1  0  0  0  0
  3 20  2  0  0  0  0
  4  5  2  0  0  0  0
  4 24  1  0  0  0  0
  5  6  1  0  0  0  0
  5 25  1  0  0  0  0
  6  7  2  0  0  0  0
  6 26  1  0  0  0  0
  7  8  1  0  0  0  0
  7 20  1  0  0  0  0
  8  9  1  0  0  0  0
  8 27  1  0  0  0  0
  9 10  2  0  0  0  0
  9 19  1  0  0  0  0
 10 11  1  0  0  0  0
 11 12  2  0  0  0  0
 11 28  1  0  0  0  0
 12 13  1  0  0  0  0
 12 19  1  0  0  0  0
 13 14  1  0  0  0  0
 13 18  2  0  0  0  0
 14 15  2  0  0  0  0
 14 29  1  0  0  0  0
 15 16  1  0  0  0  0
 15 30  1  0  0  0  0
 16 17  2  0  0  0  0
 16 31  1  0  0  0  0
 17 18  1  0  0  0  0
 17 32  1  0  0  0  0
 18 33  1  0  0  0  0
 20 34  1  0  0  0  0
M  END
$$$$
