CHEMBL206545
 OpenBabel04072215363D

 53 56  0  0  0  0  0  0  0  0999 V2000
    2.4434   -0.8737    2.4506 C   0  0  0  0  0  0  0  0  0  0  0  0
    3.7562   -0.7853    1.7678 C   0  0  0  0  0  0  0  0  0  0  0  0
    4.6407   -1.7697    1.3779 C   0  0  0  0  0  0  0  0  0  0  0  0
    5.6300   -1.1622    0.5563 C   0  0  0  0  0  0  0  0  0  0  0  0
    6.6793   -1.6521   -0.2399 C   0  0  0  0  0  0  0  0  0  0  0  0
    6.9267   -2.9698   -0.3031 F   0  0  0  0  0  0  0  0  0  0  0  0
    7.3992   -0.7623   -1.0415 C   0  0  0  0  0  0  0  0  0  0  0  0
    8.2541   -1.3366   -2.0057 O   0  0  0  0  0  0  0  0  0  0  0  0
    9.4060   -0.6893   -2.4029 C   0  0  0  0  0  0  0  0  0  0  0  0
   10.0809    0.1380   -1.6802 N   0  0  0  0  0  0  0  0  0  0  0  0
   11.1982    0.6878   -2.2571 C   0  0  0  0  0  0  0  0  0  0  0  0
   11.6255    0.4968   -3.4670 N   0  0  0  0  0  0  0  0  0  0  0  0
   10.8870   -0.3647   -4.1857 N   0  0  0  0  0  0  0  0  0  0  0  0
   11.1289   -0.7309   -5.4746 C   0  0  0  0  0  0  0  0  0  0  0  0
   10.2087   -1.6974   -5.8197 C   0  0  0  0  0  0  0  0  0  0  0  0
   10.1684   -2.3865   -6.9892 O   0  0  0  0  0  0  0  0  0  0  0  0
   11.4078   -2.3357   -7.7076 C   0  0  0  0  0  0  0  0  0  0  0  0
   11.4603   -3.4006   -8.7970 C   0  0  0  0  0  0  0  0  0  0  0  0
   10.4565   -3.1852   -9.9211 C   0  0  0  0  0  0  0  0  0  0  0  0
   10.6844   -1.8801  -10.5641 N   0  0  0  0  0  0  0  0  0  0  0  0
    9.6646   -1.4548  -11.8308 S   0  0  0  0  0  0  0  0  0  0  0  0
    8.1123   -1.1745  -11.0106 C   0  0  0  0  0  0  0  0  0  0  0  0
   10.1615   -0.1947  -12.3360 O   0  0  0  0  0  0  0  0  0  0  0  0
    9.5419   -2.6115  -12.6944 O   0  0  0  0  0  0  0  0  0  0  0  0
    9.3008   -1.8462   -4.7291 C   0  0  0  0  0  0  0  0  0  0  0  0
    8.1017   -2.7233   -4.6527 C   0  0  0  0  0  0  0  0  0  0  0  0
    9.7870   -1.0164   -3.7285 C   0  0  0  0  0  0  0  0  0  0  0  0
    7.1269    0.6060   -1.0288 C   0  0  0  0  0  0  0  0  0  0  0  0
    6.1242    1.1211   -0.2017 C   0  0  0  0  0  0  0  0  0  0  0  0
    5.3737    0.2102    0.5523 C   0  0  0  0  0  0  0  0  0  0  0  0
    4.2769    0.4177    1.3577 N   0  0  0  0  0  0  0  0  0  0  0  0
    2.1808   -1.9151    2.6613 H   0  0  0  0  0  0  0  0  0  0  0  0
    1.6608   -0.4587    1.8052 H   0  0  0  0  0  0  0  0  0  0  0  0
    2.4479   -0.3179    3.3919 H   0  0  0  0  0  0  0  0  0  0  0  0
    4.5341   -2.8307    1.5669 H   0  0  0  0  0  0  0  0  0  0  0  0
   11.7828    1.3662   -1.6132 H   0  0  0  0  0  0  0  0  0  0  0  0
   11.9573   -0.2890   -6.0075 H   0  0  0  0  0  0  0  0  0  0  0  0
   12.2436   -2.5401   -7.0254 H   0  0  0  0  0  0  0  0  0  0  0  0
   11.5416   -1.3374   -8.1419 H   0  0  0  0  0  0  0  0  0  0  0  0
   11.2697   -4.3828   -8.3487 H   0  0  0  0  0  0  0  0  0  0  0  0
   12.4742   -3.4200   -9.2152 H   0  0  0  0  0  0  0  0  0  0  0  0
    9.4395   -3.2428   -9.5243 H   0  0  0  0  0  0  0  0  0  0  0  0
   10.5913   -3.9820  -10.6605 H   0  0  0  0  0  0  0  0  0  0  0  0
   11.6500   -1.6761  -10.8284 H   0  0  0  0  0  0  0  0  0  0  0  0
    8.2394   -0.3907  -10.2624 H   0  0  0  0  0  0  0  0  0  0  0  0
    7.7741   -2.1061  -10.5538 H   0  0  0  0  0  0  0  0  0  0  0  0
    7.3863   -0.8607  -11.7643 H   0  0  0  0  0  0  0  0  0  0  0  0
    7.9212   -3.2550   -5.5910 H   0  0  0  0  0  0  0  0  0  0  0  0
    7.2089   -2.1278   -4.4301 H   0  0  0  0  0  0  0  0  0  0  0  0
    8.2230   -3.4665   -3.8576 H   0  0  0  0  0  0  0  0  0  0  0  0
    7.6601    1.2872   -1.6860 H   0  0  0  0  0  0  0  0  0  0  0  0
    5.8983    2.1832   -0.1996 H   0  0  0  0  0  0  0  0  0  0  0  0
    3.8551    1.3210    1.5249 H   0  0  0  0  0  0  0  0  0  0  0  0
  1  2  1  0  0  0  0
  1 32  1  0  0  0  0
  1 33  1  0  0  0  0
  1 34  1  0  0  0  0
  2  3  2  0  0  0  0
  2 31  1  0  0  0  0
  3  4  1  0  0  0  0
  3 35  1  0  0  0  0
  4  5  1  0  0  0  0
  4 30  2  0  0  0  0
  5  6  1  0  0  0  0
  5  7  2  0  0  0  0
  7  8  1  0  0  0  0
  7 28  1  0  0  0  0
  8  9  1  0  0  0  0
  9 10  2  0  0  0  0
  9 27  1  0  0  0  0
 10 11  1  0  0  0  0
 11 12  2  0  0  0  0
 11 36  1  0  0  0  0
 12 13  1  0  0  0  0
 13 14  1  0  0  0  0
 13 27  1  0  0  0  0
 14 15  2  0  0  0  0
 14 37  1  0  0  0  0
 15 16  1  0  0  0  0
 15 25  1  0  0  0  0
 16 17  1  0  0  0  0
 17 18  1  0  0  0  0
 17 38  1  0  0  0  0
 17 39  1  0  0  0  0
 18 19  1  0  0  0  0
 18 40  1  0  0  0  0
 18 41  1  0  0  0  0
 19 20  1  0  0  0  0
 19 42  1  0  0  0  0
 19 43  1  0  0  0  0
 20 21  1  0  0  0  0
 20 44  1  0  0  0  0
 21 22  1  0  0  0  0
 21 23  2  0  0  0  0
 21 24  2  0  0  0  0
 22 45  1  0  0  0  0
 22 46  1  0  0  0  0
 22 47  1  0  0  0  0
 25 26  1  0  0  0  0
 25 27  2  0  0  0  0
 26 48  1  0  0  0  0
 26 49  1  0  0  0  0
 26 50  1  0  0  0  0
 28 29  2  0  0  0  0
 28 51  1  0  0  0  0
 29 30  1  0  0  0  0
 29 52  1  0  0  0  0
 30 31  1  0  0  0  0
 31 53  1  0  0  0  0
M  END
$$$$
