CHEMBL1761930
 OpenBabel04072215363D

 43 45  0  0  0  0  0  0  0  0999 V2000
    1.6466    0.4491   -0.2550 C   0  0  0  0  0  0  0  0  0  0  0  0
    3.0161    0.0367   -0.2118 O   0  0  0  0  0  0  0  0  0  0  0  0
    3.2898   -0.7886    0.8345 C   0  0  0  0  0  0  0  0  0  0  0  0
    2.4425   -1.1520    1.6417 O   0  0  0  0  0  0  0  0  0  0  0  0
    4.6269   -1.0832    0.8386 N   0  0  0  0  0  0  0  0  0  0  0  0
    5.3018   -1.8958    1.7708 C   0  0  0  0  0  0  0  0  0  0  0  0
    4.6423   -2.7398    2.6703 C   0  0  0  0  0  0  0  0  0  0  0  0
    5.3560   -3.4816    3.6215 C   0  0  0  0  0  0  0  0  0  0  0  0
    6.7448   -3.4171    3.6618 C   0  0  0  0  0  0  0  0  0  0  0  0
    7.5583   -4.0060    4.5969 O   0  0  0  0  0  0  0  0  0  0  0  0
    7.2838   -5.2488    5.1657 C   0  0  0  0  0  0  0  0  0  0  0  0
    6.2133   -5.9628    4.7735 N   0  0  0  0  0  0  0  0  0  0  0  0
    6.0481   -7.1359    5.3896 C   0  0  0  0  0  0  0  0  0  0  0  0
    6.8541   -7.6607    6.3214 N   0  0  0  0  0  0  0  0  0  0  0  0
    7.9207   -6.9371    6.6796 C   0  0  0  0  0  0  0  0  0  0  0  0
    8.7779   -7.4455    7.6474 C   0  0  0  0  0  0  0  0  0  0  0  0
    9.9051   -6.7460    8.1120 C   0  0  0  0  0  0  0  0  0  0  0  0
   10.7350   -7.2440    9.0808 O   0  0  0  0  0  0  0  0  0  0  0  0
   10.3654   -8.4609    9.7194 C   0  0  0  0  0  0  0  0  0  0  0  0
   10.1951   -5.4930    7.5549 C   0  0  0  0  0  0  0  0  0  0  0  0
   11.2287   -4.6417    7.8408 O   0  0  0  0  0  0  0  0  0  0  0  0
   12.1107   -4.9622    8.9063 C   0  0  0  0  0  0  0  0  0  0  0  0
    9.3483   -4.9820    6.5621 C   0  0  0  0  0  0  0  0  0  0  0  0
    8.2024   -5.6897    6.1288 C   0  0  0  0  0  0  0  0  0  0  0  0
    7.4075   -2.5824    2.7556 C   0  0  0  0  0  0  0  0  0  0  0  0
    6.6962   -1.8387    1.8069 C   0  0  0  0  0  0  0  0  0  0  0  0
    1.4673    0.9607   -1.2038 H   0  0  0  0  0  0  0  0  0  0  0  0
    1.4455    1.1485    0.5633 H   0  0  0  0  0  0  0  0  0  0  0  0
    0.9691   -0.4107   -0.1987 H   0  0  0  0  0  0  0  0  0  0  0  0
    5.1678   -0.5748    0.1566 H   0  0  0  0  0  0  0  0  0  0  0  0
    3.5621   -2.8466    2.6604 H   0  0  0  0  0  0  0  0  0  0  0  0
    4.7905   -4.0847    4.3247 H   0  0  0  0  0  0  0  0  0  0  0  0
    5.1747   -7.7192    5.1177 H   0  0  0  0  0  0  0  0  0  0  0  0
    8.5269   -8.4274    8.0371 H   0  0  0  0  0  0  0  0  0  0  0  0
   11.1025   -8.6677   10.5008 H   0  0  0  0  0  0  0  0  0  0  0  0
   10.3892   -9.2957    9.0115 H   0  0  0  0  0  0  0  0  0  0  0  0
    9.3858   -8.3753   10.2021 H   0  0  0  0  0  0  0  0  0  0  0  0
   12.8092   -4.1269    9.0200 H   0  0  0  0  0  0  0  0  0  0  0  0
   12.7060   -5.8499    8.6716 H   0  0  0  0  0  0  0  0  0  0  0  0
   11.5741   -5.0631    9.8551 H   0  0  0  0  0  0  0  0  0  0  0  0
    9.5812   -4.0107    6.1276 H   0  0  0  0  0  0  0  0  0  0  0  0
    8.4905   -2.4931    2.8038 H   0  0  0  0  0  0  0  0  0  0  0  0
    7.2486   -1.1899    1.1321 H   0  0  0  0  0  0  0  0  0  0  0  0
  1  2  1  0  0  0  0
  1 27  1  0  0  0  0
  1 28  1  0  0  0  0
  1 29  1  0  0  0  0
  2  3  1  0  0  0  0
  3  4  2  0  0  0  0
  3  5  1  0  0  0  0
  5  6  1  0  0  0  0
  5 30  1  0  0  0  0
  6  7  1  0  0  0  0
  6 26  2  0  0  0  0
  7  8  2  0  0  0  0
  7 31  1  0  0  0  0
  8  9  1  0  0  0  0
  8 32  1  0  0  0  0
  9 10  1  0  0  0  0
  9 25  2  0  0  0  0
 10 11  1  0  0  0  0
 11 12  1  0  0  0  0
 11 24  2  0  0  0  0
 12 13  2  0  0  0  0
 13 14  1  0  0  0  0
 13 33  1  0  0  0  0
 14 15  2  0  0  0  0
 15 16  1  0  0  0  0
 15 24  1  0  0  0  0
 16 17  2  0  0  0  0
 16 34  1  0  0  0  0
 17 18  1  0  0  0  0
 17 20  1  0  0  0  0
 18 19  1  0  0  0  0
 19 35  1  0  0  0  0
 19 36  1  0  0  0  0
 19 37  1  0  0  0  0
 20 21  1  0  0  0  0
 20 23  2  0  0  0  0
 21 22  1  0  0  0  0
 22 38  1  0  0  0  0
 22 39  1  0  0  0  0
 22 40  1  0  0  0  0
 23 24  1  0  0  0  0
 23 41  1  0  0  0  0
 25 26  1  0  0  0  0
 25 42  1  0  0  0  0
 26 43  1  0  0  0  0
M  END
$$$$
