CHEMBL2010873
 OpenBabel04072215363D

 69 75  0  0  0  0  0  0  0  0999 V2000
    6.8979    1.1478    8.6126 C   0  0  0  0  0  0  0  0  0  0  0  0
    7.6999    1.5375    7.3774 C   0  0  0  0  0  0  0  0  0  0  0  0
    6.7860    2.1571    6.3763 C   0  0  0  0  0  0  0  0  0  0  0  0
    6.5097    3.5056    6.3084 C   0  0  0  0  0  0  0  0  0  0  0  0
    5.5693    4.0450    5.5041 N   0  0  0  0  0  0  0  0  0  0  0  0
    4.8819    3.1856    4.7416 C   0  0  0  0  0  0  0  0  0  0  0  0
    3.8855    3.6814    3.9120 N   0  0  0  0  0  0  0  0  0  0  0  0
    3.5444    5.0274    3.8135 C   0  0  0  0  0  0  0  0  0  0  0  0
    2.2494    5.3818    3.5049 C   0  0  0  0  0  0  0  0  0  0  0  0
    1.9291    6.6986    3.2439 C   0  0  0  0  0  0  0  0  0  0  0  0
    2.8931    7.7213    3.3706 C   0  0  0  0  0  0  0  0  0  0  0  0
    4.2279    7.3711    3.6865 C   0  0  0  0  0  0  0  0  0  0  0  0
    4.5294    6.0129    3.8856 C   0  0  0  0  0  0  0  0  0  0  0  0
    4.9046    8.5690    3.6596 C   0  0  0  0  0  0  0  0  0  0  0  0
    6.2596    8.9055    3.8554 C   0  0  0  0  0  0  0  0  0  0  0  0
    6.7199   10.6134    3.7597 C   0  0  0  0  0  0  0  0  0  0  0  0
    5.8669   12.2264    3.4073 C   0  0  0  0  0  0  0  0  0  0  0  0
    4.9467   10.7859    3.3846 C   0  0  0  0  0  0  0  0  0  0  0  0
    4.1293    9.5979    3.3513 C   0  0  0  0  0  0  0  0  0  0  0  0
    2.8127    9.1185    3.2062 N   0  0  0  0  0  0  0  0  0  0  0  0
    1.5770    9.8854    2.9432 C   0  0  0  0  0  0  0  0  0  0  0  0
    0.2313    9.3212    2.8039 C   0  0  0  0  0  0  0  0  0  0  0  0
   -0.0110    8.6436    4.1277 C   0  0  0  0  0  0  0  0  0  0  0  0
   -0.8147   10.4296    2.6060 C   0  0  0  0  0  0  0  0  0  0  0  0
    4.1425   11.8181    3.1952 C   0  0  0  0  0  0  0  0  0  0  0  0
    2.8236   11.8055    2.9973 C   0  0  0  0  0  0  0  0  0  0  0  0
    2.8557   13.1383    2.8003 C   0  0  0  0  0  0  0  0  0  0  0  0
    1.5850   13.3652    2.5018 N   0  0  0  0  0  0  0  0  0  0  0  0
    1.5732   14.6258    2.3310 N   0  0  0  0  0  0  0  0  0  0  0  0
    0.1558   15.2566    1.9604 C   0  0  0  0  0  0  0  0  0  0  0  0
    3.2229   14.8693    2.7037 C   0  0  0  0  0  0  0  0  0  0  0  0
    4.5286   13.7632    3.0446 C   0  0  0  0  0  0  0  0  0  0  0  0
    8.2839   10.0529    4.1560 C   0  0  0  0  0  0  0  0  0  0  0  0
    9.4008   10.5730    4.0898 O   0  0  0  0  0  0  0  0  0  0  0  0
    8.3248    8.5841    4.6219 N   0  0  0  0  0  0  0  0  0  0  0  0
    7.2455    7.7756    4.1809 C   0  0  0  0  0  0  0  0  0  0  0  0
    5.1213    1.8614    4.7124 N   0  0  0  0  0  0  0  0  0  0  0  0
    6.0662    1.3738    5.5135 C   0  0  0  0  0  0  0  0  0  0  0  0
    7.5442    0.6842    9.3602 H   0  0  0  0  0  0  0  0  0  0  0  0
    6.1038    0.4332    8.3640 H   0  0  0  0  0  0  0  0  0  0  0  0
    6.4192    2.0283    9.0562 H   0  0  0  0  0  0  0  0  0  0  0  0
    8.1732    0.6490    6.9428 H   0  0  0  0  0  0  0  0  0  0  0  0
    8.4982    2.2329    7.6552 H   0  0  0  0  0  0  0  0  0  0  0  0
    7.0389    4.2158    6.9364 H   0  0  0  0  0  0  0  0  0  0  0  0
    3.4041    3.0108    3.3422 H   0  0  0  0  0  0  0  0  0  0  0  0
    1.4763    4.6199    3.4354 H   0  0  0  0  0  0  0  0  0  0  0  0
    0.8970    6.8696    2.9753 H   0  0  0  0  0  0  0  0  0  0  0  0
    5.5464    5.6859    4.0343 H   0  0  0  0  0  0  0  0  0  0  0  0
    1.6417   10.3873    1.9715 H   0  0  0  0  0  0  0  0  0  0  0  0
    1.3653   10.5677    3.7821 H   0  0  0  0  0  0  0  0  0  0  0  0
    0.3018    8.7185    1.9000 H   0  0  0  0  0  0  0  0  0  0  0  0
   -0.0783    9.3536    4.9578 H   0  0  0  0  0  0  0  0  0  0  0  0
    0.8297    8.0353    4.4452 H   0  0  0  0  0  0  0  0  0  0  0  0
   -0.8851    8.0228    4.0202 H   0  0  0  0  0  0  0  0  0  0  0  0
   -0.8853   11.1017    3.4739 H   0  0  0  0  0  0  0  0  0  0  0  0
   -1.7772    9.9380    2.4737 H   0  0  0  0  0  0  0  0  0  0  0  0
   -0.6186   11.0619    1.7302 H   0  0  0  0  0  0  0  0  0  0  0  0
    4.5396   12.0807    2.0658 H   0  0  0  0  0  0  0  0  0  0  0  0
    4.2220   12.3064    4.3049 H   0  0  0  0  0  0  0  0  0  0  0  0
    2.5862   11.5762    4.0365 H   0  0  0  0  0  0  0  0  0  0  0  0
    2.9067   11.3288    2.0201 H   0  0  0  0  0  0  0  0  0  0  0  0
   -0.6341   14.4606    1.7249 H   0  0  0  0  0  0  0  0  0  0  0  0
    0.1544   15.8456    1.0269 H   0  0  0  0  0  0  0  0  0  0  0  0
   -0.3677   15.8287    2.7596 H   0  0  0  0  0  0  0  0  0  0  0  0
    3.1228   15.9501    2.7833 H   0  0  0  0  0  0  0  0  0  0  0  0
    9.1381    8.0621    4.9980 H   0  0  0  0  0  0  0  0  0  0  0  0
    6.9769    7.0058    4.9501 H   0  0  0  0  0  0  0  0  0  0  0  0
    7.5693    7.1220    3.3324 H   0  0  0  0  0  0  0  0  0  0  0  0
    6.2056    0.2982    5.4643 H   0  0  0  0  0  0  0  0  0  0  0  0
  1  2  1  0  0  0  0
  1 39  1  0  0  0  0
  1 40  1  0  0  0  0
  1 41  1  0  0  0  0
  2  3  1  0  0  0  0
  2 42  1  0  0  0  0
  2 43  1  0  0  0  0
  3  4  1  0  0  0  0
  3 38  2  0  0  0  0
  4  5  2  0  0  0  0
  4 44  1  0  0  0  0
  5  6  1  0  0  0  0
  6  7  1  0  0  0  0
  6 37  2  0  0  0  0
  7  8  1  0  0  0  0
  7 45  1  0  0  0  0
  8  9  1  0  0  0  0
  8 13  2  0  0  0  0
  9 10  2  0  0  0  0
  9 46  1  0  0  0  0
 10 11  1  0  0  0  0
 10 47  1  0  0  0  0
 11 12  2  0  0  0  0
 11 20  1  0  0  0  0
 12 13  1  0  0  0  0
 12 14  1  0  0  0  0
 13 48  1  0  0  0  0
 14 15  1  0  0  0  0
 14 19  2  0  0  0  0
 15 16  2  0  0  0  0
 15 36  1  0  0  0  0
 16 17  1  0  0  0  0
 16 33  1  0  0  0  0
 17 18  2  0  0  0  0
 17 32  1  0  0  0  0
 18 19  1  0  0  0  0
 18 25  1  0  0  0  0
 19 20  1  0  0  0  0
 20 21  1  0  0  0  0
 21 22  1  0  0  0  0
 21 49  1  0  0  0  0
 21 50  1  0  0  0  0
 22 23  1  0  0  0  0
 22 24  1  0  0  0  0
 22 51  1  0  0  0  0
 23 52  1  0  0  0  0
 23 53  1  0  0  0  0
 23 54  1  0  0  0  0
 24 55  1  0  0  0  0
 24 56  1  0  0  0  0
 24 57  1  0  0  0  0
 25 26  1  0  0  0  0
 25 58  1  0  0  0  0
 25 59  1  0  0  0  0
 26 27  1  0  0  0  0
 26 60  1  0  0  0  0
 26 61  1  0  0  0  0
 27 28  2  0  0  0  0
 27 32  1  0  0  0  0
 28 29  1  0  0  0  0
 29 30  1  0  0  0  0
 29 31  1  0  0  0  0
 30 62  1  0  0  0  0
 30 63  1  0  0  0  0
 30 64  1  0  0  0  0
 31 32  2  0  0  0  0
 31 65  1  0  0  0  0
 33 34  2  0  0  0  0
 33 35  1  0  0  0  0
 35 36  1  0  0  0  0
 35 66  1  0  0  0  0
 36 67  1  0  0  0  0
 36 68  1  0  0  0  0
 37 38  1  0  0  0  0
 38 69  1  0  0  0  0
M  END
$$$$
