CHEMBL3933707
 OpenBabel04072215373D

 73 77  0  0  1  0  0  0  0  0999 V2000
    0.7849   -2.2161   -3.6022 C   0  0  0  0  0  0  0  0  0  0  0  0
    1.8245   -2.9790   -2.9885 O   0  0  0  0  0  0  0  0  0  0  0  0
    2.8331   -2.2746   -2.3770 C   0  0  0  0  0  0  0  0  0  0  0  0
    2.7304   -0.9424   -1.9781 C   0  0  0  0  0  0  0  0  0  0  0  0
    3.7957   -0.3316   -1.3204 C   0  0  0  0  0  0  0  0  0  0  0  0
    3.8138    0.9645   -0.8732 O   0  0  0  0  0  0  0  0  0  0  0  0
    2.6821    1.7716   -1.1821 C   0  0  0  0  0  0  0  0  0  0  0  0
    4.9576   -1.0679   -1.0387 C   0  0  0  0  0  0  0  0  0  0  0  0
    5.0896   -2.4186   -1.3950 C   0  0  0  0  0  0  0  0  0  0  0  0
    6.1610   -3.2374   -0.9546 N   0  0  0  0  0  0  0  0  0  0  0  0
    6.7306   -2.9354    0.4143 C   0  0  0  0  0  0  0  0  0  0  0  0
    5.8053   -2.7661    1.6421 C   0  0  0  0  0  0  0  0  0  0  0  0
    5.1967   -4.0065    2.3555 C   0  0  0  0  0  0  0  0  0  0  0  0
    4.4779   -3.6036    3.5969 N   0  0  0  0  0  0  0  0  0  0  0  0
    5.3233   -3.0468    4.6637 C   0  0  0  0  0  0  0  0  0  0  0  0
    5.6235   -4.2121    5.5862 C   0  0  0  0  0  0  0  0  0  0  0  0
    4.3109   -4.9762    5.6105 C   0  0  3  0  0  0  0  0  0  0  0  0
    3.3299   -4.4855    7.0351 S   0  0  0  0  0  0  0  0  0  0  0  0
    1.8574   -5.4728    6.9702 C   0  0  0  0  0  0  0  0  0  0  0  0
    4.0636   -4.9164    8.2221 O   0  0  0  0  0  0  0  0  0  0  0  0
    2.9268   -3.0966    6.8928 O   0  0  0  0  0  0  0  0  0  0  0  0
    3.6686   -4.6561    4.2571 C   0  0  0  0  0  0  0  0  0  0  0  0
    7.2550   -3.7751   -1.7548 C   0  0  0  0  0  0  0  0  0  0  0  0
    7.7419   -4.9912   -1.2904 C   0  0  0  0  0  0  0  0  0  0  0  0
    9.0344   -5.3889   -1.5500 C   0  0  0  0  0  0  0  0  0  0  0  0
    9.8403   -4.6614   -2.3821 C   0  0  0  0  0  0  0  0  0  0  0  0
   11.1128   -5.0743   -2.3714 N   0  0  0  0  0  0  0  0  0  0  0  0
   11.9346   -4.5219   -3.2704 C   0  0  0  0  0  0  0  0  0  0  0  0
   11.4883   -3.6335   -4.2242 C   0  0  0  0  0  0  0  0  0  0  0  0
   12.3967   -3.3984   -5.3424 C   0  0  0  0  0  0  0  0  0  0  0  0
   12.4571   -4.0361   -6.6127 C   0  0  0  0  0  0  0  0  0  0  0  0
   13.5663   -3.7319   -7.3005 N   0  0  0  0  0  0  0  0  0  0  0  0
   14.2237   -2.9023   -6.4734 N   0  0  0  0  0  0  0  0  0  0  0  0
   15.2867   -2.0594   -6.9698 C   0  0  0  0  0  0  0  0  0  0  0  0
   13.6614   -2.8406   -5.2263 C   0  0  0  0  0  0  0  0  0  0  0  0
   10.2044   -3.1100   -4.1683 N   0  0  0  0  0  0  0  0  0  0  0  0
    9.3432   -3.5938   -3.1671 C   0  0  0  0  0  0  0  0  0  0  0  0
    8.0184   -3.1287   -2.7702 C   0  0  0  0  0  0  0  0  0  0  0  0
    4.0085   -2.9983   -2.0901 C   0  0  0  0  0  0  0  0  0  0  0  0
    0.0635   -2.9131   -4.0410 H   0  0  0  0  0  0  0  0  0  0  0  0
    1.1872   -1.5958   -4.4103 H   0  0  0  0  0  0  0  0  0  0  0  0
    0.2321   -1.6062   -2.8790 H   0  0  0  0  0  0  0  0  0  0  0  0
    1.8169   -0.3904   -2.1518 H   0  0  0  0  0  0  0  0  0  0  0  0
    2.8916    2.7896   -0.8402 H   0  0  0  0  0  0  0  0  0  0  0  0
    1.7907    1.4183   -0.6523 H   0  0  0  0  0  0  0  0  0  0  0  0
    2.5065    1.8163   -2.2624 H   0  0  0  0  0  0  0  0  0  0  0  0
    5.7509   -0.5635   -0.4953 H   0  0  0  0  0  0  0  0  0  0  0  0
    7.3217   -2.0133    0.3183 H   0  0  0  0  0  0  0  0  0  0  0  0
    7.4576   -3.6998    0.7166 H   0  0  0  0  0  0  0  0  0  0  0  0
    5.0148   -2.0364    1.4557 H   0  0  0  0  0  0  0  0  0  0  0  0
    6.4763   -2.2950    2.3698 H   0  0  0  0  0  0  0  0  0  0  0  0
    5.9681   -4.7518    2.5854 H   0  0  0  0  0  0  0  0  0  0  0  0
    4.4808   -4.4752    1.6691 H   0  0  0  0  0  0  0  0  0  0  0  0
    4.7433   -2.2830    5.1956 H   0  0  0  0  0  0  0  0  0  0  0  0
    6.2424   -2.5594    4.3375 H   0  0  0  0  0  0  0  0  0  0  0  0
    5.9640   -3.8745    6.5702 H   0  0  0  0  0  0  0  0  0  0  0  0
    6.4101   -4.8409    5.1530 H   0  0  0  0  0  0  0  0  0  0  0  0
    4.4930   -6.0496    5.7370 H   0  0  0  0  0  0  0  0  0  0  0  0
    2.1360   -6.5264    6.9470 H   0  0  0  0  0  0  0  0  0  0  0  0
    1.2743   -5.1954    6.0930 H   0  0  0  0  0  0  0  0  0  0  0  0
    1.2772   -5.2674    7.8757 H   0  0  0  0  0  0  0  0  0  0  0  0
    2.6426   -4.2909    4.3719 H   0  0  0  0  0  0  0  0  0  0  0  0
    3.6162   -5.5649    3.6467 H   0  0  0  0  0  0  0  0  0  0  0  0
    7.1446   -5.5882   -0.5928 H   0  0  0  0  0  0  0  0  0  0  0  0
    9.4415   -6.2538   -1.0349 H   0  0  0  0  0  0  0  0  0  0  0  0
   12.9640   -4.8636   -3.2343 H   0  0  0  0  0  0  0  0  0  0  0  0
   11.7616   -4.7388   -7.0546 H   0  0  0  0  0  0  0  0  0  0  0  0
   15.4186   -2.2178   -8.0437 H   0  0  0  0  0  0  0  0  0  0  0  0
   16.2126   -2.2790   -6.4338 H   0  0  0  0  0  0  0  0  0  0  0  0
   14.9807   -1.0241   -6.7929 H   0  0  0  0  0  0  0  0  0  0  0  0
   14.1848   -2.3743   -4.4034 H   0  0  0  0  0  0  0  0  0  0  0  0
    7.6450   -2.2148   -3.2291 H   0  0  0  0  0  0  0  0  0  0  0  0
    4.0478   -4.0513   -2.3600 H   0  0  0  0  0  0  0  0  0  0  0  0
  1  2  1  0  0  0  0
  1 40  1  0  0  0  0
  1 41  1  0  0  0  0
  1 42  1  0  0  0  0
  2  3  1  0  0  0  0
  3  4  1  0  0  0  0
  3 39  2  0  0  0  0
  4  5  2  0  0  0  0
  4 43  1  0  0  0  0
  5  6  1  0  0  0  0
  5  8  1  0  0  0  0
  6  7  1  0  0  0  0
  7 44  1  0  0  0  0
  7 45  1  0  0  0  0
  7 46  1  0  0  0  0
  8  9  2  0  0  0  0
  8 47  1  0  0  0  0
  9 10  1  0  0  0  0
  9 39  1  0  0  0  0
 10 11  1  0  0  0  0
 10 23  1  0  0  0  0
 11 12  1  0  0  0  0
 11 48  1  0  0  0  0
 11 49  1  0  0  0  0
 12 13  1  0  0  0  0
 12 50  1  0  0  0  0
 12 51  1  0  0  0  0
 13 14  1  0  0  0  0
 13 52  1  0  0  0  0
 13 53  1  0  0  0  0
 14 15  1  0  0  0  0
 14 22  1  0  0  0  0
 15 16  1  0  0  0  0
 15 54  1  0  0  0  0
 15 55  1  0  0  0  0
 16 17  1  0  0  0  0
 16 56  1  0  0  0  0
 16 57  1  0  0  0  0
 17 18  1  0  0  0  0
 17 22  1  0  0  0  0
 17 58  1  0  0  0  0
 18 19  1  0  0  0  0
 18 20  2  0  0  0  0
 18 21  2  0  0  0  0
 19 59  1  0  0  0  0
 19 60  1  0  0  0  0
 19 61  1  0  0  0  0
 22 62  1  0  0  0  0
 22 63  1  0  0  0  0
 23 24  1  0  0  0  0
 23 38  2  0  0  0  0
 24 25  2  0  0  0  0
 24 64  1  0  0  0  0
 25 26  1  0  0  0  0
 25 65  1  0  0  0  0
 26 27  1  0  0  0  0
 26 37  2  0  0  0  0
 27 28  2  0  0  0  0
 28 29  1  0  0  0  0
 28 66  1  0  0  0  0
 29 30  1  0  0  0  0
 29 36  2  0  0  0  0
 30 31  1  0  0  0  0
 30 35  2  0  0  0  0
 31 32  2  0  0  0  0
 31 67  1  0  0  0  0
 32 33  1  0  0  0  0
 33 34  1  0  0  0  0
 33 35  1  0  0  0  0
 34 68  1  0  0  0  0
 34 69  1  0  0  0  0
 34 70  1  0  0  0  0
 35 71  1  0  0  0  0
 36 37  1  0  0  0  0
 37 38  1  0  0  0  0
 38 72  1  0  0  0  0
 39 73  1  0  0  0  0
M  END
$$$$
