CHEMBL1968070
 OpenBabel04072215363D

 28 30  0  0  0  0  0  0  0  0999 V2000
    1.0769    0.2483    0.0481 N   0  0  0  0  0  0  0  0  0  0  0  0
    2.3977   -0.0976    0.0129 C   0  0  0  0  0  0  0  0  0  0  0  0
    2.9108   -0.6693    0.9680 O   0  0  0  0  0  0  0  0  0  0  0  0
    3.1650    0.1815   -1.2350 C   0  0  0  0  0  0  0  0  0  0  0  0
    2.7089    1.1805   -2.1109 C   0  0  0  0  0  0  0  0  0  0  0  0
    3.3729    1.4227   -3.3074 C   0  0  0  0  0  0  0  0  0  0  0  0
    4.5138    0.6923   -3.6168 C   0  0  0  0  0  0  0  0  0  0  0  0
    5.0487   -0.2283   -2.7034 C   0  0  0  0  0  0  0  0  0  0  0  0
    4.3710   -0.5197   -1.5069 C   0  0  0  0  0  0  0  0  0  0  0  0
    4.8412   -1.5252   -0.6277 N   0  0  0  0  0  0  0  0  0  0  0  0
    6.1368   -1.5551   -0.1101 C   0  0  0  0  0  0  0  0  0  0  0  0
    6.2245   -1.8244    1.2159 N   0  0  0  0  0  0  0  0  0  0  0  0
    7.4253   -1.7796    1.8765 N   0  0  0  0  0  0  0  0  0  0  0  0
    8.5313   -1.4624    1.1915 C   0  0  0  0  0  0  0  0  0  0  0  0
    9.9723   -1.3750    2.1064 Cl  0  0  0  0  0  0  0  0  0  0  0  0
    8.5125   -1.2235   -0.1602 C   0  0  0  0  0  0  0  0  0  0  0  0
    7.2857   -1.2977   -0.8354 C   0  0  0  0  0  0  0  0  0  0  0  0
    7.3330   -1.1719   -2.3000 C   0  0  0  0  0  0  0  0  0  0  0  0
    8.4143   -1.3422   -2.8677 O   0  0  0  0  0  0  0  0  0  0  0  0
    6.2705   -0.7978   -3.0791 N   0  0  0  0  0  0  0  0  0  0  0  0
    0.5647   -0.0459    0.8757 H   0  0  0  0  0  0  0  0  0  0  0  0
    0.5350    0.4638   -0.7738 H   0  0  0  0  0  0  0  0  0  0  0  0
    1.8495    1.7980   -1.8640 H   0  0  0  0  0  0  0  0  0  0  0  0
    3.0199    2.1932   -3.9873 H   0  0  0  0  0  0  0  0  0  0  0  0
    5.0264    0.9011   -4.5542 H   0  0  0  0  0  0  0  0  0  0  0  0
    4.2235   -1.6337    0.1914 H   0  0  0  0  0  0  0  0  0  0  0  0
    9.4299   -0.9855   -0.6878 H   0  0  0  0  0  0  0  0  0  0  0  0
    6.5663   -0.6675   -4.0399 H   0  0  0  0  0  0  0  0  0  0  0  0
  1  2  1  0  0  0  0
  1 21  1  0  0  0  0
  1 22  1  0  0  0  0
  2  3  2  0  0  0  0
  2  4  1  0  0  0  0
  4  5  1  0  0  0  0
  4  9  2  0  0  0  0
  5  6  2  0  0  0  0
  5 23  1  0  0  0  0
  6  7  1  0  0  0  0
  6 24  1  0  0  0  0
  7  8  2  0  0  0  0
  7 25  1  0  0  0  0
  8  9  1  0  0  0  0
  8 20  1  0  0  0  0
  9 10  1  0  0  0  0
 10 11  1  0  0  0  0
 10 26  1  0  0  0  0
 11 12  1  0  0  0  0
 11 17  2  0  0  0  0
 12 13  2  0  0  0  0
 13 14  1  0  0  0  0
 14 15  1  0  0  0  0
 14 16  2  0  0  0  0
 16 17  1  0  0  0  0
 16 27  1  0  0  0  0
 17 18  1  0  0  0  0
 18 19  2  0  0  0  0
 18 20  1  0  0  0  0
 20 28  1  0  0  0  0
M  END
$$$$
