CHEMBL3309402
 OpenBabel04072215363D

 83 89  0  0  0  0  0  0  0  0999 V2000
    2.7984    0.3827    1.1116 C   0  0  0  0  0  0  0  0  0  0  0  0
    2.5249    0.2162   -0.2768 O   0  0  0  0  0  0  0  0  0  0  0  0
    3.2445   -0.6990   -0.9907 C   0  0  0  0  0  0  0  0  0  0  0  0
    4.4842   -1.1632   -0.5701 C   0  0  0  0  0  0  0  0  0  0  0  0
    5.0960   -2.2869   -1.1582 C   0  0  0  0  0  0  0  0  0  0  0  0
    6.2335   -2.9188   -0.6058 C   0  0  0  0  0  0  0  0  0  0  0  0
    6.8527   -2.5226    0.5704 O   0  0  0  0  0  0  0  0  0  0  0  0
    6.1311   -2.4591    1.7495 C   0  0  0  0  0  0  0  0  0  0  0  0
    4.8599   -2.9951    1.9297 C   0  0  0  0  0  0  0  0  0  0  0  0
    4.1629   -2.7776    3.1211 C   0  0  0  0  0  0  0  0  0  0  0  0
    4.7359   -2.1022    4.2014 C   0  0  0  0  0  0  0  0  0  0  0  0
    4.0506   -1.9218    5.4294 N   0  0  0  0  0  0  0  0  0  0  0  0
    2.7167   -2.2311    5.6449 C   0  0  0  0  0  0  0  0  0  0  0  0
    1.9054   -2.6355    4.8243 O   0  0  0  0  0  0  0  0  0  0  0  0
    2.2126   -2.0385    7.0675 C   0  0  0  0  0  0  0  0  0  0  0  0
    2.9743   -2.4797    8.0255 N   0  0  0  0  0  0  0  0  0  0  0  0
    2.4940   -2.4686    9.3279 N   0  0  0  0  0  0  0  0  0  0  0  0
    3.3877   -3.0658   10.2915 C   0  0  0  0  0  0  0  0  0  0  0  0
    2.9511   -3.5084   11.5537 C   0  0  0  0  0  0  0  0  0  0  0  0
    3.8443   -4.0360   12.4932 C   0  0  0  0  0  0  0  0  0  0  0  0
    5.1890   -4.1297   12.1778 C   0  0  0  0  0  0  0  0  0  0  0  0
    6.0490   -4.6196   13.0797 F   0  0  0  0  0  0  0  0  0  0  0  0
    5.6533   -3.7237   10.9354 C   0  0  0  0  0  0  0  0  0  0  0  0
    4.7556   -3.2086    9.9932 C   0  0  0  0  0  0  0  0  0  0  0  0
    1.2352   -1.9644    9.6742 C   0  0  0  0  0  0  0  0  0  0  0  0
    0.7421   -1.9204   10.8052 O   0  0  0  0  0  0  0  0  0  0  0  0
    0.4317   -1.3724    8.5922 C   0  0  0  0  0  0  0  0  0  0  0  0
   -0.7906   -0.7521    8.8858 C   0  0  0  0  0  0  0  0  0  0  0  0
   -1.5526   -0.1799    7.8738 C   0  0  0  0  0  0  0  0  0  0  0  0
   -1.1096   -0.2459    6.5591 C   0  0  0  0  0  0  0  0  0  0  0  0
    0.1081   -0.8634    6.2616 C   0  0  0  0  0  0  0  0  0  0  0  0
    0.8900   -1.4233    7.2828 C   0  0  0  0  0  0  0  0  0  0  0  0
    6.0374   -1.6106    4.0494 C   0  0  0  0  0  0  0  0  0  0  0  0
    6.7112   -1.7795    2.8271 C   0  0  0  0  0  0  0  0  0  0  0  0
    7.9361   -1.2468    2.6972 F   0  0  0  0  0  0  0  0  0  0  0  0
    6.8279   -3.9801   -1.2769 C   0  0  0  0  0  0  0  0  0  0  0  0
    6.2320   -4.4166   -2.4439 C   0  0  0  0  0  0  0  0  0  0  0  0
    5.1007   -3.8839   -2.9581 N   0  0  0  0  0  0  0  0  0  0  0  0
    4.5343   -2.8409   -2.3242 C   0  0  0  0  0  0  0  0  0  0  0  0
    3.3684   -2.2713   -2.8276 C   0  0  0  0  0  0  0  0  0  0  0  0
    2.7267   -1.1947   -2.1930 C   0  0  0  0  0  0  0  0  0  0  0  0
    1.6157   -0.7163   -2.8515 O   0  0  0  0  0  0  0  0  0  0  0  0
    1.3346    0.6708   -2.6266 C   0  0  0  0  0  0  0  0  0  0  0  0
    0.7178    1.3180   -3.8590 C   0  0  0  0  0  0  0  0  0  0  0  0
   -0.6288    0.7020   -4.2433 C   0  0  0  0  0  0  0  0  0  0  0  0
   -1.2832    1.4520   -5.3323 N   0  0  0  0  0  0  0  0  0  0  0  0
   -2.6209    0.9067   -5.6190 C   0  0  0  0  0  0  0  0  0  0  0  0
   -2.3888   -0.1597   -6.6700 C   0  0  0  0  0  0  0  0  0  0  0  0
   -1.3160    0.4580   -7.5404 C   0  0  0  0  0  0  0  0  0  0  0  0
   -0.5435    1.3815   -6.6068 C   0  0  0  0  0  0  0  0  0  0  0  0
    3.2727    1.3561    1.2609 H   0  0  0  0  0  0  0  0  0  0  0  0
    3.4137   -0.3975    1.5630 H   0  0  0  0  0  0  0  0  0  0  0  0
    1.8459    0.3737    1.6499 H   0  0  0  0  0  0  0  0  0  0  0  0
    4.9836   -0.6731    0.2572 H   0  0  0  0  0  0  0  0  0  0  0  0
    4.3469   -3.5438    1.1453 H   0  0  0  0  0  0  0  0  0  0  0  0
    3.1540   -3.1765    3.1566 H   0  0  0  0  0  0  0  0  0  0  0  0
    4.5783   -1.5889    6.2310 H   0  0  0  0  0  0  0  0  0  0  0  0
    1.9040   -3.4826   11.8392 H   0  0  0  0  0  0  0  0  0  0  0  0
    3.4895   -4.3706   13.4632 H   0  0  0  0  0  0  0  0  0  0  0  0
    6.7124   -3.8010   10.7084 H   0  0  0  0  0  0  0  0  0  0  0  0
    5.1497   -2.8847    9.0340 H   0  0  0  0  0  0  0  0  0  0  0  0
   -1.1465   -0.6989    9.9148 H   0  0  0  0  0  0  0  0  0  0  0  0
   -2.4931    0.3175    8.1123 H   0  0  0  0  0  0  0  0  0  0  0  0
   -1.7051    0.1864    5.7602 H   0  0  0  0  0  0  0  0  0  0  0  0
    0.4127   -0.8938    5.2183 H   0  0  0  0  0  0  0  0  0  0  0  0
    6.5411   -1.0711    4.8449 H   0  0  0  0  0  0  0  0  0  0  0  0
    7.7238   -4.4564   -0.8980 H   0  0  0  0  0  0  0  0  0  0  0  0
    6.6566   -5.2368   -3.0171 H   0  0  0  0  0  0  0  0  0  0  0  0
    2.9436   -2.6770   -3.7435 H   0  0  0  0  0  0  0  0  0  0  0  0
    2.2540    1.2350   -2.4274 H   0  0  0  0  0  0  0  0  0  0  0  0
    0.6469    0.7596   -1.7786 H   0  0  0  0  0  0  0  0  0  0  0  0
    1.4348    1.2210   -4.6802 H   0  0  0  0  0  0  0  0  0  0  0  0
    0.5899    2.3890   -3.6581 H   0  0  0  0  0  0  0  0  0  0  0  0
   -1.2780    0.7480   -3.3581 H   0  0  0  0  0  0  0  0  0  0  0  0
   -0.5056   -0.3561   -4.4998 H   0  0  0  0  0  0  0  0  0  0  0  0
   -3.2445    1.7086   -6.0342 H   0  0  0  0  0  0  0  0  0  0  0  0
   -3.1404    0.5214   -4.7351 H   0  0  0  0  0  0  0  0  0  0  0  0
   -3.2927   -0.3993   -7.2368 H   0  0  0  0  0  0  0  0  0  0  0  0
   -2.0180   -1.0838   -6.2107 H   0  0  0  0  0  0  0  0  0  0  0  0
   -1.7738    1.0400   -8.3486 H   0  0  0  0  0  0  0  0  0  0  0  0
   -0.6718   -0.3040   -7.9899 H   0  0  0  0  0  0  0  0  0  0  0  0
   -0.4825    2.3866   -7.0405 H   0  0  0  0  0  0  0  0  0  0  0  0
    0.4853    1.0243   -6.5068 H   0  0  0  0  0  0  0  0  0  0  0  0
  1  2  1  0  0  0  0
  1 51  1  0  0  0  0
  1 52  1  0  0  0  0
  1 53  1  0  0  0  0
  2  3  1  0  0  0  0
  3  4  1  0  0  0  0
  3 41  2  0  0  0  0
  4  5  2  0  0  0  0
  4 54  1  0  0  0  0
  5  6  1  0  0  0  0
  5 39  1  0  0  0  0
  6  7  1  0  0  0  0
  6 36  2  0  0  0  0
  7  8  1  0  0  0  0
  8  9  1  0  0  0  0
  8 34  2  0  0  0  0
  9 10  2  0  0  0  0
  9 55  1  0  0  0  0
 10 11  1  0  0  0  0
 10 56  1  0  0  0  0
 11 12  1  0  0  0  0
 11 33  2  0  0  0  0
 12 13  1  0  0  0  0
 12 57  1  0  0  0  0
 13 14  2  0  0  0  0
 13 15  1  0  0  0  0
 15 16  2  0  0  0  0
 15 32  1  0  0  0  0
 16 17  1  0  0  0  0
 17 18  1  0  0  0  0
 17 25  1  0  0  0  0
 18 19  1  0  0  0  0
 18 24  2  0  0  0  0
 19 20  2  0  0  0  0
 19 58  1  0  0  0  0
 20 21  1  0  0  0  0
 20 59  1  0  0  0  0
 21 22  1  0  0  0  0
 21 23  2  0  0  0  0
 23 24  1  0  0  0  0
 23 60  1  0  0  0  0
 24 61  1  0  0  0  0
 25 26  2  0  0  0  0
 25 27  1  0  0  0  0
 27 28  1  0  0  0  0
 27 32  2  0  0  0  0
 28 29  2  0  0  0  0
 28 62  1  0  0  0  0
 29 30  1  0  0  0  0
 29 63  1  0  0  0  0
 30 31  2  0  0  0  0
 30 64  1  0  0  0  0
 31 32  1  0  0  0  0
 31 65  1  0  0  0  0
 33 34  1  0  0  0  0
 33 66  1  0  0  0  0
 34 35  1  0  0  0  0
 36 37  1  0  0  0  0
 36 67  1  0  0  0  0
 37 38  2  0  0  0  0
 37 68  1  0  0  0  0
 38 39  1  0  0  0  0
 39 40  2  0  0  0  0
 40 41  1  0  0  0  0
 40 69  1  0  0  0  0
 41 42  1  0  0  0  0
 42 43  1  0  0  0  0
 43 44  1  0  0  0  0
 43 70  1  0  0  0  0
 43 71  1  0  0  0  0
 44 45  1  0  0  0  0
 44 72  1  0  0  0  0
 44 73  1  0  0  0  0
 45 46  1  0  0  0  0
 45 74  1  0  0  0  0
 45 75  1  0  0  0  0
 46 47  1  0  0  0  0
 46 50  1  0  0  0  0
 47 48  1  0  0  0  0
 47 76  1  0  0  0  0
 47 77  1  0  0  0  0
 48 49  1  0  0  0  0
 48 78  1  0  0  0  0
 48 79  1  0  0  0  0
 49 50  1  0  0  0  0
 49 80  1  0  0  0  0
 49 81  1  0  0  0  0
 50 82  1  0  0  0  0
 50 83  1  0  0  0  0
M  END
$$$$
