CHEMBL4280932
 OpenBabel04072215383D

 51 55  0  0  0  0  0  0  0  0999 V2000
    2.5119   -0.2084    0.4128 C   0  0  0  0  0  0  0  0  0  0  0  0
    1.0234   -0.0710    0.2887 C   0  0  0  0  0  0  0  0  0  0  0  0
    0.4051   -0.0264   -0.9636 C   0  0  0  0  0  0  0  0  0  0  0  0
   -0.9876    0.0522   -1.0679 C   0  0  0  0  0  0  0  0  0  0  0  0
   -1.7808    0.1187    0.0852 C   0  0  0  0  0  0  0  0  0  0  0  0
   -3.2894    0.1124    0.0136 C   0  0  0  0  0  0  0  0  0  0  0  0
   -3.8900   -0.4575    1.0203 N   0  0  0  0  0  0  0  0  0  0  0  0
   -5.2665   -0.6707    0.9804 C   0  0  0  0  0  0  0  0  0  0  0  0
   -6.0937   -1.0022   -0.1166 C   0  0  0  0  0  0  0  0  0  0  0  0
   -7.3344   -1.2978    0.2778 N   0  0  0  0  0  0  0  0  0  0  0  0
   -7.2965   -1.1130    1.6097 N   0  0  0  0  0  0  0  0  0  0  0  0
   -6.0743   -0.7244    2.0869 C   0  0  0  0  0  0  0  0  0  0  0  0
   -5.8157   -0.4575    3.5149 C   0  0  0  0  0  0  0  0  0  0  0  0
   -5.7092   -0.9297   -1.4067 N   0  0  0  0  0  0  0  0  0  0  0  0
   -5.0052    0.1954   -1.8550 C   0  0  0  0  0  0  0  0  0  0  0  0
   -5.5129    0.7620   -2.9664 N   0  0  0  0  0  0  0  0  0  0  0  0
   -5.0278    1.9391   -3.3809 C   0  0  0  0  0  0  0  0  0  0  0  0
   -5.5769    2.5148   -4.4972 N   0  0  0  0  0  0  0  0  0  0  0  0
   -6.7312    1.9110   -5.1458 C   0  0  0  0  0  0  0  0  0  0  0  0
   -6.4910    1.9321   -6.6544 C   0  0  0  0  0  0  0  0  0  0  0  0
   -6.1513    3.3386   -7.1521 C   0  0  0  0  0  0  0  0  0  0  0  0
   -5.0256    3.9787   -6.3353 C   0  0  0  0  0  0  0  0  0  0  0  0
   -5.2993    3.9006   -4.8333 C   0  0  0  0  0  0  0  0  0  0  0  0
   -4.0126    2.5499   -2.7541 N   0  0  0  0  0  0  0  0  0  0  0  0
   -3.4862    1.9392   -1.6729 C   0  0  0  0  0  0  0  0  0  0  0  0
   -3.9347    0.7367   -1.1752 C   0  0  0  0  0  0  0  0  0  0  0  0
   -1.1597    0.0908    1.3407 C   0  0  0  0  0  0  0  0  0  0  0  0
    0.2309    0.0011    1.4420 C   0  0  0  0  0  0  0  0  0  0  0  0
    2.9843   -0.3345   -0.5669 H   0  0  0  0  0  0  0  0  0  0  0  0
    2.7582   -1.0900    1.0144 H   0  0  0  0  0  0  0  0  0  0  0  0
    2.9385    0.6815    0.8850 H   0  0  0  0  0  0  0  0  0  0  0  0
    1.0018   -0.0826   -1.8717 H   0  0  0  0  0  0  0  0  0  0  0  0
   -1.4278    0.0262   -2.0612 H   0  0  0  0  0  0  0  0  0  0  0  0
   -8.1507   -1.2675    2.1348 H   0  0  0  0  0  0  0  0  0  0  0  0
   -6.7358   -0.5090    4.1060 H   0  0  0  0  0  0  0  0  0  0  0  0
   -5.3941    0.5454    3.6412 H   0  0  0  0  0  0  0  0  0  0  0  0
   -5.1061   -1.1841    3.9210 H   0  0  0  0  0  0  0  0  0  0  0  0
   -6.4658   -1.0851   -2.0652 H   0  0  0  0  0  0  0  0  0  0  0  0
   -7.6365    2.4792   -4.8958 H   0  0  0  0  0  0  0  0  0  0  0  0
   -6.9164    0.8733   -4.8468 H   0  0  0  0  0  0  0  0  0  0  0  0
   -7.3750    1.5528   -7.1785 H   0  0  0  0  0  0  0  0  0  0  0  0
   -5.6593    1.2563   -6.8934 H   0  0  0  0  0  0  0  0  0  0  0  0
   -7.0465    3.9684   -7.0911 H   0  0  0  0  0  0  0  0  0  0  0  0
   -5.8587    3.2928   -8.2070 H   0  0  0  0  0  0  0  0  0  0  0  0
   -4.8954    5.0238   -6.6365 H   0  0  0  0  0  0  0  0  0  0  0  0
   -4.0841    3.4587   -6.5536 H   0  0  0  0  0  0  0  0  0  0  0  0
   -6.1674    4.5218   -4.5759 H   0  0  0  0  0  0  0  0  0  0  0  0
   -4.4411    4.3223   -4.2990 H   0  0  0  0  0  0  0  0  0  0  0  0
   -2.6667    2.4829   -1.2115 H   0  0  0  0  0  0  0  0  0  0  0  0
   -1.7565    0.1149    2.2503 H   0  0  0  0  0  0  0  0  0  0  0  0
    0.6900   -0.0396    2.4277 H   0  0  0  0  0  0  0  0  0  0  0  0
  1  2  1  0  0  0  0
  1 29  1  0  0  0  0
  1 30  1  0  0  0  0
  1 31  1  0  0  0  0
  2  3  1  0  0  0  0
  2 28  2  0  0  0  0
  3  4  2  0  0  0  0
  3 32  1  0  0  0  0
  4  5  1  0  0  0  0
  4 33  1  0  0  0  0
  5  6  1  0  0  0  0
  5 27  2  0  0  0  0
  6  7  2  0  0  0  0
  6 26  1  0  0  0  0
  7  8  1  0  0  0  0
  8  9  1  0  0  0  0
  8 12  2  0  0  0  0
  9 10  2  0  0  0  0
  9 14  1  0  0  0  0
 10 11  1  0  0  0  0
 11 12  1  0  0  0  0
 11 34  1  0  0  0  0
 12 13  1  0  0  0  0
 13 35  1  0  0  0  0
 13 36  1  0  0  0  0
 13 37  1  0  0  0  0
 14 15  1  0  0  0  0
 14 38  1  0  0  0  0
 15 16  1  0  0  0  0
 15 26  2  0  0  0  0
 16 17  2  0  0  0  0
 17 18  1  0  0  0  0
 17 24  1  0  0  0  0
 18 19  1  0  0  0  0
 18 23  1  0  0  0  0
 19 20  1  0  0  0  0
 19 39  1  0  0  0  0
 19 40  1  0  0  0  0
 20 21  1  0  0  0  0
 20 41  1  0  0  0  0
 20 42  1  0  0  0  0
 21 22  1  0  0  0  0
 21 43  1  0  0  0  0
 21 44  1  0  0  0  0
 22 23  1  0  0  0  0
 22 45  1  0  0  0  0
 22 46  1  0  0  0  0
 23 47  1  0  0  0  0
 23 48  1  0  0  0  0
 24 25  2  0  0  0  0
 25 26  1  0  0  0  0
 25 49  1  0  0  0  0
 27 28  1  0  0  0  0
 27 50  1  0  0  0  0
 28 51  1  0  0  0  0
M  END
$$$$
