CHEMBL1242852
 OpenBabel04072215363D

 53 56  0  0  0  0  0  0  0  0999 V2000
    4.4179   -3.4578   -0.9864 C   0  0  0  0  0  0  0  0  0  0  0  0
    3.0504   -3.1977   -0.3544 C   0  0  0  0  0  0  0  0  0  0  0  0
    2.2990   -4.5117   -0.1305 C   0  0  0  0  0  0  0  0  0  0  0  0
    3.1625   -2.4018    0.8650 N   0  0  0  0  0  0  0  0  0  0  0  0
    3.8525   -2.8733    1.9298 N   0  0  0  0  0  0  0  0  0  0  0  0
    3.7904   -1.8800    2.8419 C   0  0  0  0  0  0  0  0  0  0  0  0
    4.4110   -2.0548    4.1624 C   0  0  0  0  0  0  0  0  0  0  0  0
    3.8714   -1.4685    5.3102 C   0  0  0  0  0  0  0  0  0  0  0  0
    4.4645   -1.6027    6.5738 C   0  0  0  0  0  0  0  0  0  0  0  0
    5.5864   -2.4364    6.6954 C   0  0  0  0  0  0  0  0  0  0  0  0
    6.1243   -3.0736    5.5658 C   0  0  0  0  0  0  0  0  0  0  0  0
    7.2048   -3.8783    5.9906 C   0  0  0  0  0  0  0  0  0  0  0  0
    7.3037   -3.7326    7.3473 C   0  0  0  0  0  0  0  0  0  0  0  0
    6.3458   -2.8318    7.8020 N   0  0  0  0  0  0  0  0  0  0  0  0
    6.2511   -2.4885    9.1639 C   0  0  0  0  0  0  0  0  0  0  0  0
    7.0415   -2.9775    9.9556 O   0  0  0  0  0  0  0  0  0  0  0  0
    5.2443   -1.6068    9.4466 O   0  0  0  0  0  0  0  0  0  0  0  0
    5.0536   -1.2471   10.8483 C   0  0  0  0  0  0  0  0  0  0  0  0
    6.2739   -0.4930   11.4009 C   0  0  0  0  0  0  0  0  0  0  0  0
    3.8359   -0.3070   10.9229 C   0  0  0  0  0  0  0  0  0  0  0  0
    4.7249   -2.4887   11.6919 C   0  0  0  0  0  0  0  0  0  0  0  0
    5.5497   -2.8585    4.2963 C   0  0  0  0  0  0  0  0  0  0  0  0
    3.0878   -0.7465    2.3217 C   0  0  0  0  0  0  0  0  0  0  0  0
    2.7324    0.5551    2.7175 C   0  0  0  0  0  0  0  0  0  0  0  0
    3.0840    1.1610    3.9124 N   0  0  0  0  0  0  0  0  0  0  0  0
    2.0034    1.3111    1.8695 N   0  0  0  0  0  0  0  0  0  0  0  0
    1.6565    0.7959    0.6758 C   0  0  0  0  0  0  0  0  0  0  0  0
    1.9613   -0.4115    0.1820 N   0  0  0  0  0  0  0  0  0  0  0  0
    2.6798   -1.1417    1.0549 C   0  0  0  0  0  0  0  0  0  0  0  0
    4.3121   -4.0208   -1.9200 H   0  0  0  0  0  0  0  0  0  0  0  0
    5.0692   -4.0336   -0.3195 H   0  0  0  0  0  0  0  0  0  0  0  0
    4.9250   -2.5150   -1.2177 H   0  0  0  0  0  0  0  0  0  0  0  0
    2.4636   -2.6034   -1.0649 H   0  0  0  0  0  0  0  0  0  0  0  0
    2.8280   -5.1701    0.5667 H   0  0  0  0  0  0  0  0  0  0  0  0
    2.1850   -5.0527   -1.0779 H   0  0  0  0  0  0  0  0  0  0  0  0
    1.2967   -4.3301    0.2711 H   0  0  0  0  0  0  0  0  0  0  0  0
    2.9473   -0.8976    5.2548 H   0  0  0  0  0  0  0  0  0  0  0  0
    4.0213   -1.0973    7.4260 H   0  0  0  0  0  0  0  0  0  0  0  0
    7.8208   -4.5220    5.3749 H   0  0  0  0  0  0  0  0  0  0  0  0
    7.9760   -4.1995    8.0571 H   0  0  0  0  0  0  0  0  0  0  0  0
    6.4702    0.4137   10.8180 H   0  0  0  0  0  0  0  0  0  0  0  0
    7.1893   -1.0884   11.3585 H   0  0  0  0  0  0  0  0  0  0  0  0
    6.1243   -0.2063   12.4471 H   0  0  0  0  0  0  0  0  0  0  0  0
    3.9950    0.6072   10.3404 H   0  0  0  0  0  0  0  0  0  0  0  0
    3.6228   -0.0162   11.9582 H   0  0  0  0  0  0  0  0  0  0  0  0
    2.9396   -0.7883   10.5156 H   0  0  0  0  0  0  0  0  0  0  0  0
    5.5398   -3.2160   11.7056 H   0  0  0  0  0  0  0  0  0  0  0  0
    3.8517   -3.0092   11.2830 H   0  0  0  0  0  0  0  0  0  0  0  0
    4.5188   -2.2199   12.7330 H   0  0  0  0  0  0  0  0  0  0  0  0
    5.9800   -3.3508    3.4267 H   0  0  0  0  0  0  0  0  0  0  0  0
    3.9741    0.8744    4.2984 H   0  0  0  0  0  0  0  0  0  0  0  0
    2.9186    2.1585    3.8819 H   0  0  0  0  0  0  0  0  0  0  0  0
    1.0635    1.4403    0.0346 H   0  0  0  0  0  0  0  0  0  0  0  0
  1  2  1  0  0  0  0
  1 30  1  0  0  0  0
  1 31  1  0  0  0  0
  1 32  1  0  0  0  0
  2  3  1  0  0  0  0
  2  4  1  0  0  0  0
  2 33  1  0  0  0  0
  3 34  1  0  0  0  0
  3 35  1  0  0  0  0
  3 36  1  0  0  0  0
  4  5  1  0  0  0  0
  4 29  1  0  0  0  0
  5  6  2  0  0  0  0
  6  7  1  0  0  0  0
  6 23  1  0  0  0  0
  7  8  1  0  0  0  0
  7 22  2  0  0  0  0
  8  9  2  0  0  0  0
  8 37  1  0  0  0  0
  9 10  1  0  0  0  0
  9 38  1  0  0  0  0
 10 11  2  0  0  0  0
 10 14  1  0  0  0  0
 11 12  1  0  0  0  0
 11 22  1  0  0  0  0
 12 13  2  0  0  0  0
 12 39  1  0  0  0  0
 13 14  1  0  0  0  0
 13 40  1  0  0  0  0
 14 15  1  0  0  0  0
 15 16  2  0  0  0  0
 15 17  1  0  0  0  0
 17 18  1  0  0  0  0
 18 19  1  0  0  0  0
 18 20  1  0  0  0  0
 18 21  1  0  0  0  0
 19 41  1  0  0  0  0
 19 42  1  0  0  0  0
 19 43  1  0  0  0  0
 20 44  1  0  0  0  0
 20 45  1  0  0  0  0
 20 46  1  0  0  0  0
 21 47  1  0  0  0  0
 21 48  1  0  0  0  0
 21 49  1  0  0  0  0
 22 50  1  0  0  0  0
 23 24  1  0  0  0  0
 23 29  2  0  0  0  0
 24 25  1  0  0  0  0
 24 26  2  0  0  0  0
 25 51  1  0  0  0  0
 25 52  1  0  0  0  0
 26 27  1  0  0  0  0
 27 28  2  0  0  0  0
 27 53  1  0  0  0  0
 28 29  1  0  0  0  0
M  END
$$$$
