CHEMBL1080294
 OpenBabel04072215353D

 60 64  0  0  0  0  0  0  0  0999 V2000
    2.5509    0.0730   -0.0445 C   0  0  0  0  0  0  0  0  0  0  0  0
    1.0508   -0.0278   -0.0714 C   0  0  0  0  0  0  0  0  0  0  0  0
    0.3124    1.1691   -0.1570 C   0  0  0  0  0  0  0  0  0  0  0  0
   -1.0832    1.1570   -0.1447 C   0  0  0  0  0  0  0  0  0  0  0  0
   -1.7772   -0.0530   -0.0739 C   0  0  0  0  0  0  0  0  0  0  0  0
   -3.2700   -0.0110   -0.0064 C   0  0  0  0  0  0  0  0  0  0  0  0
   -3.7924    1.0291    0.3817 O   0  0  0  0  0  0  0  0  0  0  0  0
   -3.9380   -1.1675   -0.3819 N   0  0  0  0  0  0  0  0  0  0  0  0
   -5.3326   -1.3832   -0.3418 C   0  0  0  0  0  0  0  0  0  0  0  0
   -6.2648   -0.3623   -0.1577 C   0  0  0  0  0  0  0  0  0  0  0  0
   -7.6292   -0.6473   -0.0872 C   0  0  0  0  0  0  0  0  0  0  0  0
   -8.0773   -1.9615   -0.1858 C   0  0  0  0  0  0  0  0  0  0  0  0
   -7.1628   -3.0059   -0.3759 C   0  0  0  0  0  0  0  0  0  0  0  0
   -7.6300   -4.4379   -0.4417 C   0  0  0  0  0  0  0  0  0  0  0  0
   -8.9710   -4.5848   -0.2479 F   0  0  0  0  0  0  0  0  0  0  0  0
   -7.3604   -5.0209   -1.6419 F   0  0  0  0  0  0  0  0  0  0  0  0
   -7.0317   -5.2221    0.4974 F   0  0  0  0  0  0  0  0  0  0  0  0
   -5.7918   -2.7009   -0.4774 C   0  0  0  0  0  0  0  0  0  0  0  0
   -1.0504   -1.2450    0.0043 C   0  0  0  0  0  0  0  0  0  0  0  0
    0.3610   -1.2573    0.0256 C   0  0  0  0  0  0  0  0  0  0  0  0
    1.0356   -2.5086    0.2423 N   0  0  0  0  0  0  0  0  0  0  0  0
    0.6326   -3.2995    1.3006 C   0  0  0  0  0  0  0  0  0  0  0  0
   -0.1809   -2.8800    2.2560 N   0  0  0  0  0  0  0  0  0  0  0  0
    0.6926   -2.7598    3.3069 C   0  0  0  0  0  0  0  0  0  0  0  0
    0.6142   -1.9438    4.4342 C   0  0  0  0  0  0  0  0  0  0  0  0
    1.7287   -1.8898    5.2753 C   0  0  0  0  0  0  0  0  0  0  0  0
    2.8600   -2.6777    5.0320 C   0  0  0  0  0  0  0  0  0  0  0  0
    2.9242   -3.5548    3.9437 C   0  0  0  0  0  0  0  0  0  0  0  0
    1.8293   -3.5387    3.0795 C   0  0  0  0  0  0  0  0  0  0  0  0
    1.4872   -4.2203    1.9136 N   0  0  0  0  0  0  0  0  0  0  0  0
    1.6385   -5.6342    1.7056 C   0  0  0  0  0  0  0  0  0  0  0  0
    2.2063   -6.2932    2.7489 N   0  0  0  0  0  0  0  0  0  0  0  0
    2.1038   -7.6224    2.7623 C   0  0  0  0  0  0  0  0  0  0  0  0
    1.5290   -8.3631    1.8176 N   0  0  0  0  0  0  0  0  0  0  0  0
    1.0411   -7.7029    0.7603 C   0  0  0  0  0  0  0  0  0  0  0  0
    0.4064   -8.5314   -0.1596 N   0  0  0  0  0  0  0  0  0  0  0  0
    1.1059   -6.3176    0.6106 C   0  0  0  0  0  0  0  0  0  0  0  0
    0.5660   -5.6598   -0.6198 C   0  0  0  0  0  0  0  0  0  0  0  0
    2.8879    1.1164   -0.0758 H   0  0  0  0  0  0  0  0  0  0  0  0
    2.9793   -0.4331   -0.9120 H   0  0  0  0  0  0  0  0  0  0  0  0
    2.9499   -0.3648    0.8782 H   0  0  0  0  0  0  0  0  0  0  0  0
    0.8195    2.1321   -0.2040 H   0  0  0  0  0  0  0  0  0  0  0  0
   -1.6279    2.0996   -0.1728 H   0  0  0  0  0  0  0  0  0  0  0  0
   -3.3829   -1.9650   -0.6554 H   0  0  0  0  0  0  0  0  0  0  0  0
   -5.9612    0.6768   -0.0781 H   0  0  0  0  0  0  0  0  0  0  0  0
   -8.3388    0.1633    0.0566 H   0  0  0  0  0  0  0  0  0  0  0  0
   -9.1434   -2.1662   -0.1039 H   0  0  0  0  0  0  0  0  0  0  0  0
   -5.0844   -3.5163   -0.6239 H   0  0  0  0  0  0  0  0  0  0  0  0
   -1.5624   -2.1922    0.1396 H   0  0  0  0  0  0  0  0  0  0  0  0
    2.0425   -2.3780    0.1834 H   0  0  0  0  0  0  0  0  0  0  0  0
   -0.2578   -1.3193    4.5960 H   0  0  0  0  0  0  0  0  0  0  0  0
    1.7149   -1.2123    6.1247 H   0  0  0  0  0  0  0  0  0  0  0  0
    3.7104   -2.6079    5.7062 H   0  0  0  0  0  0  0  0  0  0  0  0
    3.7909   -4.1800    3.7601 H   0  0  0  0  0  0  0  0  0  0  0  0
    2.5080   -8.1438    3.6235 H   0  0  0  0  0  0  0  0  0  0  0  0
    0.5000   -9.4874    0.1807 H   0  0  0  0  0  0  0  0  0  0  0  0
    0.7811   -8.4426   -1.0960 H   0  0  0  0  0  0  0  0  0  0  0  0
    0.4250   -6.3623   -1.4463 H   0  0  0  0  0  0  0  0  0  0  0  0
    1.2907   -4.9275   -0.9925 H   0  0  0  0  0  0  0  0  0  0  0  0
   -0.3976   -5.1830   -0.4288 H   0  0  0  0  0  0  0  0  0  0  0  0
  1  2  1  0  0  0  0
  1 39  1  0  0  0  0
  1 40  1  0  0  0  0
  1 41  1  0  0  0  0
  2  3  1  0  0  0  0
  2 20  2  0  0  0  0
  3  4  2  0  0  0  0
  3 42  1  0  0  0  0
  4  5  1  0  0  0  0
  4 43  1  0  0  0  0
  5  6  1  0  0  0  0
  5 19  2  0  0  0  0
  6  7  2  0  0  0  0
  6  8  1  0  0  0  0
  8  9  1  0  0  0  0
  8 44  1  0  0  0  0
  9 10  1  0  0  0  0
  9 18  2  0  0  0  0
 10 11  2  0  0  0  0
 10 45  1  0  0  0  0
 11 12  1  0  0  0  0
 11 46  1  0  0  0  0
 12 13  2  0  0  0  0
 12 47  1  0  0  0  0
 13 14  1  0  0  0  0
 13 18  1  0  0  0  0
 14 15  1  0  0  0  0
 14 16  1  0  0  0  0
 14 17  1  0  0  0  0
 18 48  1  0  0  0  0
 19 20  1  0  0  0  0
 19 49  1  0  0  0  0
 20 21  1  0  0  0  0
 21 22  1  0  0  0  0
 21 50  1  0  0  0  0
 22 23  2  0  0  0  0
 22 30  1  0  0  0  0
 23 24  1  0  0  0  0
 24 25  1  0  0  0  0
 24 29  2  0  0  0  0
 25 26  2  0  0  0  0
 25 51  1  0  0  0  0
 26 27  1  0  0  0  0
 26 52  1  0  0  0  0
 27 28  2  0  0  0  0
 27 53  1  0  0  0  0
 28 29  1  0  0  0  0
 28 54  1  0  0  0  0
 29 30  1  0  0  0  0
 30 31  1  0  0  0  0
 31 32  1  0  0  0  0
 31 37  2  0  0  0  0
 32 33  2  0  0  0  0
 33 34  1  0  0  0  0
 33 55  1  0  0  0  0
 34 35  2  0  0  0  0
 35 36  1  0  0  0  0
 35 37  1  0  0  0  0
 36 56  1  0  0  0  0
 36 57  1  0  0  0  0
 37 38  1  0  0  0  0
 38 58  1  0  0  0  0
 38 59  1  0  0  0  0
 38 60  1  0  0  0  0
M  END
$$$$
