CHEMBL3706842
 OpenBabel04072215373D

 70 74  0  0  0  0  0  0  0  0999 V2000
    2.4527    0.1154    1.2530 C   0  0  0  0  0  0  0  0  0  0  0  0
    2.4767    0.2298   -0.1713 O   0  0  0  0  0  0  0  0  0  0  0  0
    3.1675   -0.7096   -0.8844 C   0  0  0  0  0  0  0  0  0  0  0  0
    4.2264   -1.4080   -0.3194 C   0  0  0  0  0  0  0  0  0  0  0  0
    4.8300   -2.4880   -0.9735 C   0  0  0  0  0  0  0  0  0  0  0  0
    5.8352   -3.2600   -0.3852 C   0  0  0  0  0  0  0  0  0  0  0  0
    6.2528   -2.9876    0.9532 N   0  0  0  0  0  0  0  0  0  0  0  0
    7.4661   -3.4729    1.4257 C   0  0  0  0  0  0  0  0  0  0  0  0
    8.6155   -3.3460    0.7572 C   0  0  0  0  0  0  0  0  0  0  0  0
    9.8606   -4.0068    1.1521 C   0  0  0  0  0  0  0  0  0  0  0  0
   10.8300   -3.9442    0.3999 O   0  0  0  0  0  0  0  0  0  0  0  0
    9.8672   -4.7580    2.4428 C   0  0  0  0  0  0  0  0  0  0  0  0
   10.9943   -5.4173    2.9179 O   0  0  0  0  0  0  0  0  0  0  0  0
   12.2594   -4.9060    2.4828 C   0  0  0  0  0  0  0  0  0  0  0  0
   13.2783   -5.2337    3.4910 C   0  0  0  0  0  0  0  0  0  0  0  0
   14.1143   -5.4684    4.3098 C   0  0  0  0  0  0  0  0  0  0  0  0
   15.1046   -5.7526    5.3027 C   0  0  0  0  0  0  0  0  0  0  0  0
   15.5358   -7.0651    5.5014 C   0  0  0  0  0  0  0  0  0  0  0  0
   16.4926   -7.3471    6.4791 C   0  0  0  0  0  0  0  0  0  0  0  0
   17.0200   -6.3168    7.2583 C   0  0  0  0  0  0  0  0  0  0  0  0
   16.5976   -5.0033    7.0565 C   0  0  0  0  0  0  0  0  0  0  0  0
   15.6403   -4.7203    6.0782 C   0  0  0  0  0  0  0  0  0  0  0  0
    8.7414   -4.8235    3.1636 C   0  0  0  0  0  0  0  0  0  0  0  0
    7.4807   -4.1740    2.7460 C   0  0  0  0  0  0  0  0  0  0  0  0
    6.4823   -4.2055    3.4604 O   0  0  0  0  0  0  0  0  0  0  0  0
    6.4434   -4.2475   -1.0646 N   0  0  0  0  0  0  0  0  0  0  0  0
    6.0265   -4.4632   -2.3170 C   0  0  0  0  0  0  0  0  0  0  0  0
    5.0540   -3.8006   -2.9554 N   0  0  0  0  0  0  0  0  0  0  0  0
    4.4585   -2.8099   -2.2811 C   0  0  0  0  0  0  0  0  0  0  0  0
    3.4788   -2.0297   -2.8942 C   0  0  0  0  0  0  0  0  0  0  0  0
    2.8510   -0.9610   -2.2284 C   0  0  0  0  0  0  0  0  0  0  0  0
    1.9817   -0.2387   -3.0168 O   0  0  0  0  0  0  0  0  0  0  0  0
    1.8442    1.1406   -2.6567 C   0  0  0  0  0  0  0  0  0  0  0  0
    1.5770    2.0172   -3.8760 C   0  0  0  0  0  0  0  0  0  0  0  0
    0.2619    1.6734   -4.5796 C   0  0  0  0  0  0  0  0  0  0  0  0
   -0.0469    2.6212   -5.6678 N   0  0  0  0  0  0  0  0  0  0  0  0
   -1.3490    2.3107   -6.2844 C   0  0  0  0  0  0  0  0  0  0  0  0
   -1.0282    1.3073   -7.3742 C   0  0  0  0  0  0  0  0  0  0  0  0
    0.2789    1.8296   -7.9324 C   0  0  0  0  0  0  0  0  0  0  0  0
    0.9309    2.5679   -6.7710 C   0  0  0  0  0  0  0  0  0  0  0  0
    2.6935    1.0947    1.6744 H   0  0  0  0  0  0  0  0  0  0  0  0
    3.1368   -0.6094    1.6998 H   0  0  0  0  0  0  0  0  0  0  0  0
    1.4462   -0.1731    1.5684 H   0  0  0  0  0  0  0  0  0  0  0  0
    4.6449   -1.0951    0.6289 H   0  0  0  0  0  0  0  0  0  0  0  0
    5.4864   -3.1587    1.6116 H   0  0  0  0  0  0  0  0  0  0  0  0
    8.6535   -2.8089   -0.1822 H   0  0  0  0  0  0  0  0  0  0  0  0
   12.2332   -3.8155    2.3840 H   0  0  0  0  0  0  0  0  0  0  0  0
   12.5274   -5.3644    1.5249 H   0  0  0  0  0  0  0  0  0  0  0  0
   15.1276   -7.8745    4.9011 H   0  0  0  0  0  0  0  0  0  0  0  0
   16.8229   -8.3705    6.6341 H   0  0  0  0  0  0  0  0  0  0  0  0
   17.7587   -6.5396    8.0245 H   0  0  0  0  0  0  0  0  0  0  0  0
   17.0105   -4.1999    7.6609 H   0  0  0  0  0  0  0  0  0  0  0  0
   15.3163   -3.6932    5.9277 H   0  0  0  0  0  0  0  0  0  0  0  0
    8.7100   -5.3664    4.1016 H   0  0  0  0  0  0  0  0  0  0  0  0
    6.5389   -5.2435   -2.8696 H   0  0  0  0  0  0  0  0  0  0  0  0
    3.2166   -2.2409   -3.9291 H   0  0  0  0  0  0  0  0  0  0  0  0
    2.7702    1.5249   -2.2140 H   0  0  0  0  0  0  0  0  0  0  0  0
    1.0155    1.2357   -1.9486 H   0  0  0  0  0  0  0  0  0  0  0  0
    2.4244    1.9072   -4.5601 H   0  0  0  0  0  0  0  0  0  0  0  0
    1.5543    3.0654   -3.5518 H   0  0  0  0  0  0  0  0  0  0  0  0
   -0.5402    1.7395   -3.8322 H   0  0  0  0  0  0  0  0  0  0  0  0
    0.2842    0.6390   -4.9403 H   0  0  0  0  0  0  0  0  0  0  0  0
   -1.7548    3.2273   -6.7315 H   0  0  0  0  0  0  0  0  0  0  0  0
   -2.0973    1.9409   -5.5753 H   0  0  0  0  0  0  0  0  0  0  0  0
   -1.8078    1.2446   -8.1379 H   0  0  0  0  0  0  0  0  0  0  0  0
   -0.8853    0.3061   -6.9504 H   0  0  0  0  0  0  0  0  0  0  0  0
    0.0889    2.5272   -8.7558 H   0  0  0  0  0  0  0  0  0  0  0  0
    0.9097    1.0182   -8.3081 H   0  0  0  0  0  0  0  0  0  0  0  0
    1.1856    3.5912   -7.0705 H   0  0  0  0  0  0  0  0  0  0  0  0
    1.8737    2.0794   -6.5128 H   0  0  0  0  0  0  0  0  0  0  0  0
  1  2  1  0  0  0  0
  1 41  1  0  0  0  0
  1 42  1  0  0  0  0
  1 43  1  0  0  0  0
  2  3  1  0  0  0  0
  3  4  1  0  0  0  0
  3 31  2  0  0  0  0
  4  5  2  0  0  0  0
  4 44  1  0  0  0  0
  5  6  1  0  0  0  0
  5 29  1  0  0  0  0
  6  7  1  0  0  0  0
  6 26  2  0  0  0  0
  7  8  1  0  0  0  0
  7 45  1  0  0  0  0
  8  9  2  0  0  0  0
  8 24  1  0  0  0  0
  9 10  1  0  0  0  0
  9 46  1  0  0  0  0
 10 11  2  0  0  0  0
 10 12  1  0  0  0  0
 12 13  1  0  0  0  0
 12 23  2  0  0  0  0
 13 14  1  0  0  0  0
 14 15  1  0  0  0  0
 14 47  1  0  0  0  0
 14 48  1  0  0  0  0
 15 16  3  0  0  0  0
 16 17  1  0  0  0  0
 17 18  1  0  0  0  0
 17 22  2  0  0  0  0
 18 19  2  0  0  0  0
 18 49  1  0  0  0  0
 19 20  1  0  0  0  0
 19 50  1  0  0  0  0
 20 21  2  0  0  0  0
 20 51  1  0  0  0  0
 21 22  1  0  0  0  0
 21 52  1  0  0  0  0
 22 53  1  0  0  0  0
 23 24  1  0  0  0  0
 23 54  1  0  0  0  0
 24 25  2  0  0  0  0
 26 27  1  0  0  0  0
 27 28  2  0  0  0  0
 27 55  1  0  0  0  0
 28 29  1  0  0  0  0
 29 30  2  0  0  0  0
 30 31  1  0  0  0  0
 30 56  1  0  0  0  0
 31 32  1  0  0  0  0
 32 33  1  0  0  0  0
 33 34  1  0  0  0  0
 33 57  1  0  0  0  0
 33 58  1  0  0  0  0
 34 35  1  0  0  0  0
 34 59  1  0  0  0  0
 34 60  1  0  0  0  0
 35 36  1  0  0  0  0
 35 61  1  0  0  0  0
 35 62  1  0  0  0  0
 36 37  1  0  0  0  0
 36 40  1  0  0  0  0
 37 38  1  0  0  0  0
 37 63  1  0  0  0  0
 37 64  1  0  0  0  0
 38 39  1  0  0  0  0
 38 65  1  0  0  0  0
 38 66  1  0  0  0  0
 39 40  1  0  0  0  0
 39 67  1  0  0  0  0
 39 68  1  0  0  0  0
 40 69  1  0  0  0  0
 40 70  1  0  0  0  0
M  END
$$$$
