CHEMBL2071214
 OpenBabel04072215363D

 41 43  0  0  1  0  0  0  0  0999 V2000
    2.7770    1.7377    3.8567 C   0  0  0  0  0  0  0  0  0  0  0  0
    2.7640    0.5138    3.0953 N   0  0  0  0  0  0  0  0  0  0  0  0
    2.6064    0.3776    1.7444 C   0  0  0  0  0  0  0  0  0  0  0  0
    2.6432   -0.9732    1.5016 C   0  0  0  0  0  0  0  0  0  0  0  0
    2.4810   -1.5631    0.3014 N   0  0  0  0  0  0  0  0  0  0  0  0
    2.5436   -2.9249   -0.0102 C   0  0  0  0  0  0  0  0  0  0  0  0
    1.9315   -3.2999   -1.1398 N   0  0  0  0  0  0  0  0  0  0  0  0
    1.9198   -4.6369   -1.3772 C   0  0  0  0  0  0  0  0  0  0  0  0
    2.5054   -5.5796   -0.5562 C   0  0  0  0  0  0  0  0  0  0  0  0
    2.4283   -7.2462   -0.9642 Cl  0  0  0  0  0  0  0  0  0  0  0  0
    3.1508   -5.0960    0.5716 C   0  0  0  0  0  0  0  0  0  0  0  0
    3.7190   -5.9426    1.5155 N   0  0  0  0  0  0  0  0  0  0  0  0
    4.7731   -5.4657    2.4019 C   0  0  2  0  0  0  0  0  0  0  0  0
    6.1377   -5.3267    1.7177 C   0  0  0  0  0  0  0  0  0  0  0  0
    7.1880   -5.6162    2.7908 C   0  0  0  0  0  0  0  0  0  0  0  0
    6.4269   -5.9568    4.0677 C   0  0  0  0  0  0  0  0  0  0  0  0
    5.0284   -6.3809    3.6100 C   0  0  2  0  0  0  0  0  0  0  0  0
    4.9492   -7.8804    3.3550 C   0  0  0  0  0  0  0  0  0  0  0  0
    5.2267   -8.6657    4.4411 N   0  0  0  0  0  0  0  0  0  0  0  0
    4.6030   -8.3981    2.2989 O   0  0  0  0  0  0  0  0  0  0  0  0
    3.1644   -3.7756    0.8291 N   0  0  0  0  0  0  0  0  0  0  0  0
    2.8123   -1.5649    2.7747 C   0  0  0  0  0  0  0  0  0  0  0  0
    2.8932   -0.6546    3.7496 N   0  0  0  0  0  0  0  0  0  0  0  0
    2.6791    2.5878    3.1863 H   0  0  0  0  0  0  0  0  0  0  0  0
    3.7285    1.7958    4.3935 H   0  0  0  0  0  0  0  0  0  0  0  0
    1.9438    1.7151    4.5642 H   0  0  0  0  0  0  0  0  0  0  0  0
    2.4903    1.2331    1.0976 H   0  0  0  0  0  0  0  0  0  0  0  0
    2.1071   -1.0631   -0.4947 H   0  0  0  0  0  0  0  0  0  0  0  0
    1.3861   -4.9270   -2.2777 H   0  0  0  0  0  0  0  0  0  0  0  0
    3.7220   -6.9421    1.2974 H   0  0  0  0  0  0  0  0  0  0  0  0
    4.4979   -4.4851    2.8112 H   0  0  0  0  0  0  0  0  0  0  0  0
    6.2701   -4.3143    1.3167 H   0  0  0  0  0  0  0  0  0  0  0  0
    6.2610   -6.0206    0.8788 H   0  0  0  0  0  0  0  0  0  0  0  0
    7.8549   -4.7615    2.9526 H   0  0  0  0  0  0  0  0  0  0  0  0
    7.8165   -6.4592    2.4809 H   0  0  0  0  0  0  0  0  0  0  0  0
    6.3496   -5.0616    4.6963 H   0  0  0  0  0  0  0  0  0  0  0  0
    6.9652   -6.7134    4.6469 H   0  0  0  0  0  0  0  0  0  0  0  0
    4.2882   -6.1679    4.3915 H   0  0  0  0  0  0  0  0  0  0  0  0
    5.5220   -8.3017    5.3365 H   0  0  0  0  0  0  0  0  0  0  0  0
    5.1437   -9.6671    4.3323 H   0  0  0  0  0  0  0  0  0  0  0  0
    2.8574   -2.6140    3.0323 H   0  0  0  0  0  0  0  0  0  0  0  0
  1  2  1  0  0  0  0
  1 24  1  0  0  0  0
  1 25  1  0  0  0  0
  1 26  1  0  0  0  0
  2  3  1  0  0  0  0
  2 23  1  0  0  0  0
  3  4  2  0  0  0  0
  3 27  1  0  0  0  0
  4  5  1  0  0  0  0
  4 22  1  0  0  0  0
  5  6  1  0  0  0  0
  5 28  1  0  0  0  0
  6  7  1  0  0  0  0
  6 21  2  0  0  0  0
  7  8  2  0  0  0  0
  8  9  1  0  0  0  0
  8 29  1  0  0  0  0
  9 10  1  0  0  0  0
  9 11  2  0  0  0  0
 11 12  1  0  0  0  0
 11 21  1  0  0  0  0
 12 13  1  0  0  0  0
 12 30  1  0  0  0  0
 13 14  1  0  0  0  0
 13 17  1  0  0  0  0
 13 31  1  1  0  0  0
 14 15  1  0  0  0  0
 14 32  1  0  0  0  0
 14 33  1  0  0  0  0
 15 16  1  0  0  0  0
 15 34  1  0  0  0  0
 15 35  1  0  0  0  0
 16 17  1  0  0  0  0
 16 36  1  0  0  0  0
 16 37  1  0  0  0  0
 17 18  1  0  0  0  0
 17 38  1  1  0  0  0
 18 19  1  0  0  0  0
 18 20  2  0  0  0  0
 19 39  1  0  0  0  0
 19 40  1  0  0  0  0
 22 23  2  0  0  0  0
 22 41  1  0  0  0  0
M  END
$$$$
