CHEMBL3944224
 OpenBabel04072215373D

 57 59  0  0  0  0  0  0  0  0999 V2000
    0.7517   -4.1408    1.9425 C   0  0  0  0  0  0  0  0  0  0  0  0
    2.0750   -3.9399    2.3203 O   0  0  0  0  0  0  0  0  0  0  0  0
    2.9477   -3.0830    1.7134 C   0  0  0  0  0  0  0  0  0  0  0  0
    2.5389   -2.2946    0.6245 C   0  0  0  0  0  0  0  0  0  0  0  0
    3.4035   -1.3767    0.0391 C   0  0  0  0  0  0  0  0  0  0  0  0
    2.9567   -0.6319   -1.0093 O   0  0  0  0  0  0  0  0  0  0  0  0
    3.6935    0.3166   -1.6916 C   0  0  0  0  0  0  0  0  0  0  0  0
    4.6994   -1.2474    0.5505 C   0  0  0  0  0  0  0  0  0  0  0  0
    5.1795   -2.0256    1.6306 C   0  0  0  0  0  0  0  0  0  0  0  0
    6.4879   -1.7253    2.1924 N   0  0  0  0  0  0  0  0  0  0  0  0
    6.9119   -0.2809    2.1487 C   0  0  0  0  0  0  0  0  0  0  0  0
    5.9960    0.7957    2.8285 C   0  0  0  0  0  0  0  0  0  0  0  0
    5.7264    0.7958    4.3254 C   0  0  0  0  0  0  0  0  0  0  0  0
    6.0768   -0.1143    5.0506 O   0  0  0  0  0  0  0  0  0  0  0  0
    5.0754    1.8428    4.8828 O   0  0  0  0  0  0  0  0  0  0  0  0
    7.5365   -2.6355    2.6981 C   0  0  0  0  0  0  0  0  0  0  0  0
    8.1969   -2.1157    3.8031 C   0  0  0  0  0  0  0  0  0  0  0  0
    9.4094   -2.5157    4.2006 C   0  0  0  0  0  0  0  0  0  0  0  0
   10.0366   -3.5297    3.5761 C   0  0  0  0  0  0  0  0  0  0  0  0
   11.3062   -3.6835    3.9253 N   0  0  0  0  0  0  0  0  0  0  0  0
   12.0442   -4.6779    3.4876 C   0  0  0  0  0  0  0  0  0  0  0  0
   11.4602   -5.7153    2.7613 C   0  0  0  0  0  0  0  0  0  0  0  0
   12.2716   -7.0212    2.9332 C   0  0  0  0  0  0  0  0  0  0  0  0
   13.3406   -7.1190    3.8568 C   0  0  0  0  0  0  0  0  0  0  0  0
   13.7352   -8.3813    4.0093 N   0  0  0  0  0  0  0  0  0  0  0  0
   12.9925   -9.1150    3.2184 N   0  0  0  0  0  0  0  0  0  0  0  0
   13.1006  -10.5756    3.2736 C   0  0  0  0  0  0  0  0  0  0  0  0
   12.1118   -8.3526    2.5142 C   0  0  0  0  0  0  0  0  0  0  0  0
   10.1623   -5.5024    2.2363 N   0  0  0  0  0  0  0  0  0  0  0  0
    9.4302   -4.3447    2.6005 C   0  0  0  0  0  0  0  0  0  0  0  0
    8.1175   -3.8614    2.1000 C   0  0  0  0  0  0  0  0  0  0  0  0
    4.2824   -2.9648    2.2046 C   0  0  0  0  0  0  0  0  0  0  0  0
    1.7091    2.5751    1.2773 Cl  0  0  0  0  0  0  0  0  0  0  0  0
    0.2674   -4.8612    2.6321 H   0  0  0  0  0  0  0  0  0  0  0  0
    0.7049   -4.5561    0.9129 H   0  0  0  0  0  0  0  0  0  0  0  0
    0.1718   -3.1898    1.9828 H   0  0  0  0  0  0  0  0  0  0  0  0
    1.5305   -2.3542    0.2276 H   0  0  0  0  0  0  0  0  0  0  0  0
    3.0839    0.7346   -2.5174 H   0  0  0  0  0  0  0  0  0  0  0  0
    4.6045   -0.1482   -2.1258 H   0  0  0  0  0  0  0  0  0  0  0  0
    3.9843    1.1450   -1.0101 H   0  0  0  0  0  0  0  0  0  0  0  0
    5.3314   -0.5155    0.0894 H   0  0  0  0  0  0  0  0  0  0  0  0
    7.0469    0.0279    1.0978 H   0  0  0  0  0  0  0  0  0  0  0  0
    7.9376   -0.1124    2.5344 H   0  0  0  0  0  0  0  0  0  0  0  0
    5.0152    0.8429    2.3187 H   0  0  0  0  0  0  0  0  0  0  0  0
    6.5126    1.7644    2.6392 H   0  0  0  0  0  0  0  0  0  0  0  0
    4.7902    2.6085    4.3641 H   0  0  0  0  0  0  0  0  0  0  0  0
    7.8343   -1.2723    4.3311 H   0  0  0  0  0  0  0  0  0  0  0  0
    9.9044   -1.9783    4.9948 H   0  0  0  0  0  0  0  0  0  0  0  0
   13.0396   -4.6655    3.8656 H   0  0  0  0  0  0  0  0  0  0  0  0
   13.7876   -6.3805    4.4919 H   0  0  0  0  0  0  0  0  0  0  0  0
   13.8016  -10.8538    4.1018 H   0  0  0  0  0  0  0  0  0  0  0  0
   13.4938  -10.9846    2.3268 H   0  0  0  0  0  0  0  0  0  0  0  0
   12.1157  -10.9962    3.5327 H   0  0  0  0  0  0  0  0  0  0  0  0
   11.3771   -8.7396    1.8242 H   0  0  0  0  0  0  0  0  0  0  0  0
    7.6436   -4.3427    1.2453 H   0  0  0  0  0  0  0  0  0  0  0  0
    4.5784   -3.5413    3.0690 H   0  0  0  0  0  0  0  0  0  0  0  0
    2.4521    1.5041    0.8450 H   0  0  0  0  0  0  0  0  0  0  0  0
  1  2  1  0  0  0  0
  1 34  1  0  0  0  0
  1 35  1  0  0  0  0
  1 36  1  0  0  0  0
  2  3  1  0  0  0  0
  3  4  1  0  0  0  0
  3 32  2  0  0  0  0
  4  5  2  0  0  0  0
  4 37  1  0  0  0  0
  5  6  1  0  0  0  0
  5  8  1  0  0  0  0
  6  7  1  0  0  0  0
  7 38  1  0  0  0  0
  7 39  1  0  0  0  0
  7 40  1  0  0  0  0
  8  9  2  0  0  0  0
  8 41  1  0  0  0  0
  9 10  1  0  0  0  0
  9 32  1  0  0  0  0
 10 11  1  0  0  0  0
 10 16  1  0  0  0  0
 11 12  1  0  0  0  0
 11 42  1  0  0  0  0
 11 43  1  0  0  0  0
 12 13  1  0  0  0  0
 12 44  1  0  0  0  0
 12 45  1  0  0  0  0
 13 14  2  0  0  0  0
 13 15  1  0  0  0  0
 15 46  1  0  0  0  0
 16 17  1  0  0  0  0
 16 31  2  0  0  0  0
 17 18  2  0  0  0  0
 17 47  1  0  0  0  0
 18 19  1  0  0  0  0
 18 48  1  0  0  0  0
 19 20  1  0  0  0  0
 19 30  2  0  0  0  0
 20 21  2  0  0  0  0
 21 22  1  0  0  0  0
 21 49  1  0  0  0  0
 22 23  1  0  0  0  0
 22 29  2  0  0  0  0
 23 24  1  0  0  0  0
 23 28  2  0  0  0  0
 24 25  2  0  0  0  0
 24 50  1  0  0  0  0
 25 26  1  0  0  0  0
 26 27  1  0  0  0  0
 26 28  1  0  0  0  0
 27 51  1  0  0  0  0
 27 52  1  0  0  0  0
 27 53  1  0  0  0  0
 28 54  1  0  0  0  0
 29 30  1  0  0  0  0
 30 31  1  0  0  0  0
 31 55  1  0  0  0  0
 32 56  1  0  0  0  0
 33 57  1  0  0  0  0
M  END
$$$$
