CHEMBL118748
 OpenBabel04072215363D

 60 64  0  0  0  0  0  0  0  0999 V2000
    1.0224   -4.3716   -2.7504 O   0  0  0  0  0  0  0  0  0  0  0  0
    0.2790   -5.3368   -2.8113 C   0  0  0  0  0  0  0  0  0  0  0  0
   -0.3126   -5.7196   -3.9704 O   0  0  0  0  0  0  0  0  0  0  0  0
   -0.0481   -6.2689   -1.6606 C   0  0  0  0  0  0  0  0  0  0  0  0
   -0.0167   -5.5879   -0.2936 C   0  0  0  0  0  0  0  0  0  0  0  0
    1.3851   -5.4213    0.2876 C   0  0  0  0  0  0  0  0  0  0  0  0
    2.1395   -6.6846    0.2617 N   0  0  0  0  0  0  0  0  0  0  0  0
    3.4732   -6.5167    0.8752 C   0  0  0  0  0  0  0  0  0  0  0  0
    3.4252   -6.1107    2.3515 C   0  0  0  0  0  0  0  0  0  0  0  0
    2.6684   -7.1266    3.1817 C   0  0  0  0  0  0  0  0  0  0  0  0
    2.6449   -6.6725    4.5317 O   0  0  0  0  0  0  0  0  0  0  0  0
    2.0102   -7.5179    5.4004 C   0  0  0  0  0  0  0  0  0  0  0  0
    1.3902   -8.7206    5.0320 C   0  0  0  0  0  0  0  0  0  0  0  0
    0.7822   -9.5446    5.9714 C   0  0  0  0  0  0  0  0  0  0  0  0
    0.8153   -9.1168    7.2901 C   0  0  0  0  0  0  0  0  0  0  0  0
    0.3214   -9.7168    8.4160 N   0  0  0  0  0  0  0  0  0  0  0  0
    0.5943   -8.9655    9.5317 C   0  0  0  0  0  0  0  0  0  0  0  0
    0.2375   -9.3972   10.8774 C   0  0  0  0  0  0  0  0  0  0  0  0
    0.5403   -8.5792   11.9599 C   0  0  0  0  0  0  0  0  0  0  0  0
    0.3057   -9.0208   13.2575 C   0  0  0  0  0  0  0  0  0  0  0  0
    0.6698   -8.2188   14.3465 C   0  0  0  0  0  0  0  0  0  0  0  0
    0.5457   -8.7109   15.6378 C   0  0  0  0  0  0  0  0  0  0  0  0
    0.0124   -9.9852   15.8327 C   0  0  0  0  0  0  0  0  0  0  0  0
   -0.4137  -10.7441   14.7414 C   0  0  0  0  0  0  0  0  0  0  0  0
   -0.2615  -10.2988   13.4333 C   0  0  0  0  0  0  0  0  0  0  0  0
   -0.6117  -11.0932   12.4046 N   0  0  0  0  0  0  0  0  0  0  0  0
   -0.3480  -10.6258   11.1709 C   0  0  0  0  0  0  0  0  0  0  0  0
   -0.6628  -11.5176   10.1888 O   0  0  0  0  0  0  0  0  0  0  0  0
    1.2669   -7.8383    9.0938 C   0  0  0  0  0  0  0  0  0  0  0  0
    1.4170   -7.9258    7.6920 C   0  0  0  0  0  0  0  0  0  0  0  0
    2.0219   -7.1073    6.7327 C   0  0  0  0  0  0  0  0  0  0  0  0
    2.2685   -7.1616   -1.1226 C   0  0  0  0  0  0  0  0  0  0  0  0
    0.8876   -7.4748   -1.7068 C   0  0  0  0  0  0  0  0  0  0  0  0
   -0.8672   -6.5203   -3.8945 H   0  0  0  0  0  0  0  0  0  0  0  0
   -1.0847   -6.5953   -1.8151 H   0  0  0  0  0  0  0  0  0  0  0  0
   -0.5968   -6.2061    0.4046 H   0  0  0  0  0  0  0  0  0  0  0  0
   -0.5079   -4.6075   -0.3267 H   0  0  0  0  0  0  0  0  0  0  0  0
    1.2387   -5.0904    1.3211 H   0  0  0  0  0  0  0  0  0  0  0  0
    1.9354   -4.6273   -0.2303 H   0  0  0  0  0  0  0  0  0  0  0  0
    4.0612   -5.7728    0.3253 H   0  0  0  0  0  0  0  0  0  0  0  0
    4.0193   -7.4681    0.8101 H   0  0  0  0  0  0  0  0  0  0  0  0
    2.9746   -5.1216    2.4870 H   0  0  0  0  0  0  0  0  0  0  0  0
    4.4432   -6.0103    2.7458 H   0  0  0  0  0  0  0  0  0  0  0  0
    3.1846   -8.0931    3.1231 H   0  0  0  0  0  0  0  0  0  0  0  0
    1.6390   -7.2212    2.8141 H   0  0  0  0  0  0  0  0  0  0  0  0
    1.3667   -9.0578    4.0024 H   0  0  0  0  0  0  0  0  0  0  0  0
    0.3148  -10.4760    5.6769 H   0  0  0  0  0  0  0  0  0  0  0  0
   -0.1534  -10.6122    8.4380 H   0  0  0  0  0  0  0  0  0  0  0  0
    1.0077   -7.6132   11.8035 H   0  0  0  0  0  0  0  0  0  0  0  0
    1.0774   -7.2226   14.1897 H   0  0  0  0  0  0  0  0  0  0  0  0
    0.8767   -8.1121   16.4803 H   0  0  0  0  0  0  0  0  0  0  0  0
   -0.0576  -10.3865   16.8381 H   0  0  0  0  0  0  0  0  0  0  0  0
   -0.8583  -11.7235   14.9122 H   0  0  0  0  0  0  0  0  0  0  0  0
   -0.9524  -12.2739   10.7326 H   0  0  0  0  0  0  0  0  0  0  0  0
    1.6458   -7.0394    9.7159 H   0  0  0  0  0  0  0  0  0  0  0  0
    2.5035   -6.1738    7.0215 H   0  0  0  0  0  0  0  0  0  0  0  0
    2.8602   -8.0847   -1.1535 H   0  0  0  0  0  0  0  0  0  0  0  0
    2.7901   -6.4224   -1.7440 H   0  0  0  0  0  0  0  0  0  0  0  0
    0.4318   -8.2943   -1.1366 H   0  0  0  0  0  0  0  0  0  0  0  0
    1.0066   -7.8346   -2.7356 H   0  0  0  0  0  0  0  0  0  0  0  0
  1  2  2  0  0  0  0
  2  3  1  0  0  0  0
  2  4  1  0  0  0  0
  3 34  1  0  0  0  0
  4  5  1  0  0  0  0
  4 33  1  0  0  0  0
  4 35  1  0  0  0  0
  5  6  1  0  0  0  0
  5 36  1  0  0  0  0
  5 37  1  0  0  0  0
  6  7  1  0  0  0  0
  6 38  1  0  0  0  0
  6 39  1  0  0  0  0
  7  8  1  0  0  0  0
  7 32  1  0  0  0  0
  8  9  1  0  0  0  0
  8 40  1  0  0  0  0
  8 41  1  0  0  0  0
  9 10  1  0  0  0  0
  9 42  1  0  0  0  0
  9 43  1  0  0  0  0
 10 11  1  0  0  0  0
 10 44  1  0  0  0  0
 10 45  1  0  0  0  0
 11 12  1  0  0  0  0
 12 13  1  0  0  0  0
 12 31  2  0  0  0  0
 13 14  2  0  0  0  0
 13 46  1  0  0  0  0
 14 15  1  0  0  0  0
 14 47  1  0  0  0  0
 15 16  1  0  0  0  0
 15 30  2  0  0  0  0
 16 17  1  0  0  0  0
 16 48  1  0  0  0  0
 17 18  1  0  0  0  0
 17 29  2  0  0  0  0
 18 19  1  0  0  0  0
 18 27  2  0  0  0  0
 19 20  2  0  0  0  0
 19 49  1  0  0  0  0
 20 21  1  0  0  0  0
 20 25  1  0  0  0  0
 21 22  2  0  0  0  0
 21 50  1  0  0  0  0
 22 23  1  0  0  0  0
 22 51  1  0  0  0  0
 23 24  2  0  0  0  0
 23 52  1  0  0  0  0
 24 25  1  0  0  0  0
 24 53  1  0  0  0  0
 25 26  2  0  0  0  0
 26 27  1  0  0  0  0
 27 28  1  0  0  0  0
 28 54  1  0  0  0  0
 29 30  1  0  0  0  0
 29 55  1  0  0  0  0
 30 31  1  0  0  0  0
 31 56  1  0  0  0  0
 32 33  1  0  0  0  0
 32 57  1  0  0  0  0
 32 58  1  0  0  0  0
 33 59  1  0  0  0  0
 33 60  1  0  0  0  0
M  END
$$$$
