CHEMBL3973820
 OpenBabel04072215373D

 76 80  0  0  0  0  0  0  0  0999 V2000
    2.9449    1.4833   -0.0149 C   0  0  0  0  0  0  0  0  0  0  0  0
    3.4346    0.3293    0.6614 O   0  0  0  0  0  0  0  0  0  0  0  0
    3.8108   -0.7612   -0.0785 C   0  0  0  0  0  0  0  0  0  0  0  0
    3.4998   -0.9777   -1.4180 C   0  0  0  0  0  0  0  0  0  0  0  0
    3.9491   -2.1400   -2.0402 C   0  0  0  0  0  0  0  0  0  0  0  0
    3.7465   -2.4460   -3.3627 O   0  0  0  0  0  0  0  0  0  0  0  0
    2.6368   -1.8195   -4.0004 C   0  0  0  0  0  0  0  0  0  0  0  0
    4.7551   -3.0493   -1.3288 C   0  0  0  0  0  0  0  0  0  0  0  0
    5.2107   -2.7932   -0.0080 C   0  0  0  0  0  0  0  0  0  0  0  0
    6.3526   -3.5746    0.5381 N   0  0  0  0  0  0  0  0  0  0  0  0
    7.0408   -2.8297    1.6505 C   0  0  0  0  0  0  0  0  0  0  0  0
    6.3980   -2.7798    3.0307 C   0  0  0  0  0  0  0  0  0  0  0  0
    6.4368   -3.9908    3.9343 C   0  0  0  0  0  0  0  0  0  0  0  0
    5.1139   -3.4354    3.4996 C   0  0  0  0  0  0  0  0  0  0  0  0
    7.4009   -3.9713   -0.4303 C   0  0  0  0  0  0  0  0  0  0  0  0
    7.6519   -3.0768   -1.4777 C   0  0  0  0  0  0  0  0  0  0  0  0
    8.1574   -3.5554   -2.6638 C   0  0  0  0  0  0  0  0  0  0  0  0
    8.6488   -4.8270   -2.7816 C   0  0  0  0  0  0  0  0  0  0  0  0
    8.9394   -5.1826   -4.0378 N   0  0  0  0  0  0  0  0  0  0  0  0
    9.6774   -6.2853   -4.1921 C   0  0  0  0  0  0  0  0  0  0  0  0
   10.2300   -6.9413   -3.1057 C   0  0  0  0  0  0  0  0  0  0  0  0
   11.5283   -7.5623   -3.3693 C   0  0  0  0  0  0  0  0  0  0  0  0
   12.0162   -8.8869   -3.3501 C   0  0  0  0  0  0  0  0  0  0  0  0
   13.2905   -8.9851   -3.7671 N   0  0  0  0  0  0  0  0  0  0  0  0
   13.6317   -7.7137   -4.0482 N   0  0  0  0  0  0  0  0  0  0  0  0
   15.0161   -7.3535   -4.3145 C   0  0  0  0  0  0  0  0  0  0  0  0
   15.6969   -6.6959   -3.1085 C   0  0  0  0  0  0  0  0  0  0  0  0
   15.7772   -7.5792   -1.8542 C   0  0  0  0  0  0  0  0  0  0  0  0
   16.4565   -8.8652   -2.0194 N   0  0  0  0  0  0  0  0  0  0  0  0
   17.8768   -8.7400   -2.3553 C   0  0  0  0  0  0  0  0  0  0  0  0
   18.5079  -10.1162   -2.5148 C   0  0  0  0  0  0  0  0  0  0  0  0
   20.2292   -9.9568   -2.9601 S   0  0  0  0  0  0  0  0  0  0  0  0
   20.7433  -11.6437   -3.1743 C   0  0  0  0  0  0  0  0  0  0  0  0
   20.2995   -9.3141   -4.2581 O   0  0  0  0  0  0  0  0  0  0  0  0
   20.9486   -9.4193   -1.8227 O   0  0  0  0  0  0  0  0  0  0  0  0
   12.5713   -6.8575   -3.9639 C   0  0  0  0  0  0  0  0  0  0  0  0
    9.7620   -6.6976   -1.8287 N   0  0  0  0  0  0  0  0  0  0  0  0
    8.8714   -5.6307   -1.6480 C   0  0  0  0  0  0  0  0  0  0  0  0
    8.1101   -5.2081   -0.4744 C   0  0  0  0  0  0  0  0  0  0  0  0
    4.6162   -1.6856    0.6218 C   0  0  0  0  0  0  0  0  0  0  0  0
    3.2424    2.3582    0.5733 H   0  0  0  0  0  0  0  0  0  0  0  0
    1.8515    1.4584   -0.0507 H   0  0  0  0  0  0  0  0  0  0  0  0
    3.3614    1.6250   -1.0169 H   0  0  0  0  0  0  0  0  0  0  0  0
    2.9246   -0.2499   -1.9750 H   0  0  0  0  0  0  0  0  0  0  0  0
    2.5024   -2.2900   -4.9798 H   0  0  0  0  0  0  0  0  0  0  0  0
    2.8183   -0.7529   -4.1730 H   0  0  0  0  0  0  0  0  0  0  0  0
    1.7170   -1.9736   -3.4270 H   0  0  0  0  0  0  0  0  0  0  0  0
    5.1149   -3.9236   -1.8693 H   0  0  0  0  0  0  0  0  0  0  0  0
    7.2038   -1.7886    1.3318 H   0  0  0  0  0  0  0  0  0  0  0  0
    8.0461   -3.2357    1.8143 H   0  0  0  0  0  0  0  0  0  0  0  0
    6.6475   -1.8330    3.5092 H   0  0  0  0  0  0  0  0  0  0  0  0
    6.7391   -3.8378    4.9658 H   0  0  0  0  0  0  0  0  0  0  0  0
    6.7265   -4.9492    3.5224 H   0  0  0  0  0  0  0  0  0  0  0  0
    4.5264   -2.9138    4.2529 H   0  0  0  0  0  0  0  0  0  0  0  0
    4.5183   -4.0171    2.8090 H   0  0  0  0  0  0  0  0  0  0  0  0
    7.2483   -2.0664   -1.4443 H   0  0  0  0  0  0  0  0  0  0  0  0
    8.1243   -2.9149   -3.5363 H   0  0  0  0  0  0  0  0  0  0  0  0
    9.9335   -6.5333   -5.2180 H   0  0  0  0  0  0  0  0  0  0  0  0
   11.4995   -9.7963   -3.0751 H   0  0  0  0  0  0  0  0  0  0  0  0
   15.0164   -6.6569   -5.1623 H   0  0  0  0  0  0  0  0  0  0  0  0
   15.5550   -8.2510   -4.6382 H   0  0  0  0  0  0  0  0  0  0  0  0
   15.1532   -5.7798   -2.8428 H   0  0  0  0  0  0  0  0  0  0  0  0
   16.7032   -6.3683   -3.3967 H   0  0  0  0  0  0  0  0  0  0  0  0
   14.7616   -7.7829   -1.4953 H   0  0  0  0  0  0  0  0  0  0  0  0
   16.2603   -7.0135   -1.0481 H   0  0  0  0  0  0  0  0  0  0  0  0
   15.9485   -9.4346   -2.6999 H   0  0  0  0  0  0  0  0  0  0  0  0
   18.3959   -8.1894   -1.5614 H   0  0  0  0  0  0  0  0  0  0  0  0
   18.0073   -8.1776   -3.2856 H   0  0  0  0  0  0  0  0  0  0  0  0
   18.0190  -10.6816   -3.3150 H   0  0  0  0  0  0  0  0  0  0  0  0
   18.4594  -10.6898   -1.5840 H   0  0  0  0  0  0  0  0  0  0  0  0
   20.1730  -12.0849   -3.9940 H   0  0  0  0  0  0  0  0  0  0  0  0
   20.5713  -12.1874   -2.2442 H   0  0  0  0  0  0  0  0  0  0  0  0
   21.8083  -11.6459   -3.4175 H   0  0  0  0  0  0  0  0  0  0  0  0
   12.6609   -5.8267   -4.2833 H   0  0  0  0  0  0  0  0  0  0  0  0
    8.0736   -5.8864    0.3830 H   0  0  0  0  0  0  0  0  0  0  0  0
    4.8033   -1.4522    1.6616 H   0  0  0  0  0  0  0  0  0  0  0  0
  1  2  1  0  0  0  0
  1 41  1  0  0  0  0
  1 42  1  0  0  0  0
  1 43  1  0  0  0  0
  2  3  1  0  0  0  0
  3  4  1  0  0  0  0
  3 40  2  0  0  0  0
  4  5  2  0  0  0  0
  4 44  1  0  0  0  0
  5  6  1  0  0  0  0
  5  8  1  0  0  0  0
  6  7  1  0  0  0  0
  7 45  1  0  0  0  0
  7 46  1  0  0  0  0
  7 47  1  0  0  0  0
  8  9  2  0  0  0  0
  8 48  1  0  0  0  0
  9 10  1  0  0  0  0
  9 40  1  0  0  0  0
 10 11  1  0  0  0  0
 10 15  1  0  0  0  0
 11 12  1  0  0  0  0
 11 49  1  0  0  0  0
 11 50  1  0  0  0  0
 12 13  1  0  0  0  0
 12 14  1  0  0  0  0
 12 51  1  0  0  0  0
 13 14  1  0  0  0  0
 13 52  1  0  0  0  0
 13 53  1  0  0  0  0
 14 54  1  0  0  0  0
 14 55  1  0  0  0  0
 15 16  1  0  0  0  0
 15 39  2  0  0  0  0
 16 17  2  0  0  0  0
 16 56  1  0  0  0  0
 17 18  1  0  0  0  0
 17 57  1  0  0  0  0
 18 19  1  0  0  0  0
 18 38  2  0  0  0  0
 19 20  2  0  0  0  0
 20 21  1  0  0  0  0
 20 58  1  0  0  0  0
 21 22  1  0  0  0  0
 21 37  2  0  0  0  0
 22 23  1  0  0  0  0
 22 36  2  0  0  0  0
 23 24  2  0  0  0  0
 23 59  1  0  0  0  0
 24 25  1  0  0  0  0
 25 26  1  0  0  0  0
 25 36  1  0  0  0  0
 26 27  1  0  0  0  0
 26 60  1  0  0  0  0
 26 61  1  0  0  0  0
 27 28  1  0  0  0  0
 27 62  1  0  0  0  0
 27 63  1  0  0  0  0
 28 29  1  0  0  0  0
 28 64  1  0  0  0  0
 28 65  1  0  0  0  0
 29 30  1  0  0  0  0
 29 66  1  0  0  0  0
 30 31  1  0  0  0  0
 30 67  1  0  0  0  0
 30 68  1  0  0  0  0
 31 32  1  0  0  0  0
 31 69  1  0  0  0  0
 31 70  1  0  0  0  0
 32 33  1  0  0  0  0
 32 34  2  0  0  0  0
 32 35  2  0  0  0  0
 33 71  1  0  0  0  0
 33 72  1  0  0  0  0
 33 73  1  0  0  0  0
 36 74  1  0  0  0  0
 37 38  1  0  0  0  0
 38 39  1  0  0  0  0
 39 75  1  0  0  0  0
 40 76  1  0  0  0  0
M  END
$$$$
