CHEMBL92461
 OpenBabel04072215383D

 35 38  0  0  0  0  0  0  0  0999 V2000
    2.7215    1.0756    0.2002 C   0  0  0  0  0  0  0  0  0  0  0  0
    2.1359   -0.1535   -0.2165 O   0  0  0  0  0  0  0  0  0  0  0  0
    2.9912   -1.0528   -0.7914 C   0  0  0  0  0  0  0  0  0  0  0  0
    4.3587   -1.1406   -0.5324 C   0  0  0  0  0  0  0  0  0  0  0  0
    5.1316   -2.1210   -1.1638 C   0  0  0  0  0  0  0  0  0  0  0  0
    4.5423   -3.0219   -2.0579 C   0  0  0  0  0  0  0  0  0  0  0  0
    5.3514   -4.0502   -2.7021 C   0  0  0  0  0  0  0  0  0  0  0  0
    6.0609   -3.8182   -3.9981 C   0  0  0  0  0  0  0  0  0  0  0  0
    6.8278   -4.6625   -4.6179 N   0  0  0  0  0  0  0  0  0  0  0  0
    6.9875   -5.8878   -4.0152 C   0  0  0  0  0  0  0  0  0  0  0  0
    7.7310   -7.0043   -4.3422 C   0  0  0  0  0  0  0  0  0  0  0  0
    8.6316   -7.2186   -5.4795 C   0  0  0  0  0  0  0  0  0  0  0  0
    9.3411   -8.4400   -5.6977 C   0  0  0  0  0  0  0  0  0  0  0  0
   10.1258   -8.3955   -6.8305 C   0  0  0  0  0  0  0  0  0  0  0  0
   10.0151   -6.8896   -7.6302 S   0  0  0  0  0  0  0  0  0  0  0  0
    8.9144   -6.2923   -6.4626 C   0  0  0  0  0  0  0  0  0  0  0  0
    7.4496   -7.9353   -3.3250 C   0  0  0  0  0  0  0  0  0  0  0  0
    6.6068   -7.4655   -2.4037 N   0  0  0  0  0  0  0  0  0  0  0  0
    6.3330   -6.2040   -2.8168 N   0  0  0  0  0  0  0  0  0  0  0  0
    5.5256   -5.2716   -2.1767 C   0  0  0  0  0  0  0  0  0  0  0  0
    3.1682   -2.9430   -2.3027 C   0  0  0  0  0  0  0  0  0  0  0  0
    2.3980   -1.9658   -1.6662 C   0  0  0  0  0  0  0  0  0  0  0  0
    1.9184    1.7211    0.5690 H   0  0  0  0  0  0  0  0  0  0  0  0
    3.2017    1.5825   -0.6438 H   0  0  0  0  0  0  0  0  0  0  0  0
    3.4257    0.9305    1.0250 H   0  0  0  0  0  0  0  0  0  0  0  0
    4.8488   -0.4778    0.1727 H   0  0  0  0  0  0  0  0  0  0  0  0
    6.1946   -2.1788   -0.9393 H   0  0  0  0  0  0  0  0  0  0  0  0
    5.9007   -2.8236   -4.4526 H   0  0  0  0  0  0  0  0  0  0  0  0
    9.2933   -9.3179   -5.0675 H   0  0  0  0  0  0  0  0  0  0  0  0
   10.7611   -9.1770   -7.2263 H   0  0  0  0  0  0  0  0  0  0  0  0
    8.5315   -5.2855   -6.5597 H   0  0  0  0  0  0  0  0  0  0  0  0
    7.8236   -8.9435   -3.2054 H   0  0  0  0  0  0  0  0  0  0  0  0
    5.0783   -5.5990   -1.2469 H   0  0  0  0  0  0  0  0  0  0  0  0
    2.6837   -3.6405   -2.9824 H   0  0  0  0  0  0  0  0  0  0  0  0
    1.3287   -1.9122   -1.8578 H   0  0  0  0  0  0  0  0  0  0  0  0
  1  2  1  0  0  0  0
  1 23  1  0  0  0  0
  1 24  1  0  0  0  0
  1 25  1  0  0  0  0
  2  3  1  0  0  0  0
  3  4  1  0  0  0  0
  3 22  2  0  0  0  0
  4  5  2  0  0  0  0
  4 26  1  0  0  0  0
  5  6  1  0  0  0  0
  5 27  1  0  0  0  0
  6  7  1  0  0  0  0
  6 21  2  0  0  0  0
  7  8  1  0  0  0  0
  7 20  2  0  0  0  0
  8  9  2  0  0  0  0
  8 28  1  0  0  0  0
  9 10  1  0  0  0  0
 10 11  2  0  0  0  0
 10 19  1  0  0  0  0
 11 12  1  0  0  0  0
 11 17  1  0  0  0  0
 12 13  1  0  0  0  0
 12 16  2  0  0  0  0
 13 14  2  0  0  0  0
 13 29  1  0  0  0  0
 14 15  1  0  0  0  0
 14 30  1  0  0  0  0
 15 16  1  0  0  0  0
 16 31  1  0  0  0  0
 17 18  2  0  0  0  0
 17 32  1  0  0  0  0
 18 19  1  0  0  0  0
 19 20  1  0  0  0  0
 20 33  1  0  0  0  0
 21 22  1  0  0  0  0
 21 34  1  0  0  0  0
 22 35  1  0  0  0  0
M  END
$$$$
