CHEMBL3970373
 OpenBabel04072215373D

 61 65  0  0  1  0  0  0  0  0999 V2000
    7.8320    4.7102   -2.8382 C   0  0  0  0  0  0  0  0  0  0  0  0
    7.2736    3.5761   -3.5550 N   0  0  0  0  0  0  0  0  0  0  0  0
    8.0772    2.3621   -3.4334 C   0  0  0  0  0  0  0  0  0  0  0  0
    7.5073    1.4498   -4.5144 C   0  0  0  0  0  0  0  0  0  0  0  0
    6.8980    2.3977   -5.5604 C   0  0  3  0  0  0  0  0  0  0  0  0
    5.4866    2.1067   -5.7717 N   0  0  0  0  0  0  0  0  0  0  0  0
    4.5011    2.2034   -4.8101 C   0  0  0  0  0  0  0  0  0  0  0  0
    3.3642    1.7519   -5.4073 C   0  0  0  0  0  0  0  0  0  0  0  0
    2.1559    1.6712   -4.8123 N   0  0  0  0  0  0  0  0  0  0  0  0
    0.9921    1.1862   -5.3939 C   0  0  0  0  0  0  0  0  0  0  0  0
   -0.1630    1.6571   -4.9082 N   0  0  0  0  0  0  0  0  0  0  0  0
   -1.2730    1.2135   -5.5260 C   0  0  0  0  0  0  0  0  0  0  0  0
   -1.2918    0.3004   -6.5626 C   0  0  0  0  0  0  0  0  0  0  0  0
   -2.8178   -0.0751   -7.2394 Cl  0  0  0  0  0  0  0  0  0  0  0  0
   -0.0583   -0.2006   -6.9422 C   0  0  0  0  0  0  0  0  0  0  0  0
    0.2045   -1.3468   -7.9183 C   0  0  0  0  0  0  0  0  0  0  0  0
   -0.3232   -1.0936   -9.3348 C   0  0  0  0  0  0  0  0  0  0  0  0
   -0.1176   -2.0993  -10.4466 C   0  0  0  0  0  0  0  0  0  0  0  0
    1.0095   -2.9520  -10.4328 C   0  0  0  0  0  0  0  0  0  0  0  0
    1.2443   -3.8612  -11.4674 C   0  0  0  0  0  0  0  0  0  0  0  0
    0.4044   -3.8687  -12.5664 C   0  0  0  0  0  0  0  0  0  0  0  0
   -0.6733   -2.9833  -12.6242 C   0  0  0  0  0  0  0  0  0  0  0  0
   -1.0099   -2.1090  -11.5592 C   0  0  0  0  0  0  0  0  0  0  0  0
   -2.3920   -1.3856  -11.6628 C   0  0  0  0  0  0  0  0  0  0  0  0
   -3.5472   -2.1679  -11.0760 C   0  0  0  0  0  0  0  0  0  0  0  0
   -4.2563   -2.9403  -11.9670 N   0  0  0  0  0  0  0  0  0  0  0  0
   -3.9032   -2.0329   -9.9237 O   0  0  0  0  0  0  0  0  0  0  0  0
   -2.5748   -0.6151  -12.9959 C   0  0  0  0  0  0  0  0  0  0  0  0
   -2.6858    0.1236  -11.7125 C   0  0  0  0  0  0  0  0  0  0  0  0
    1.0717    0.2807   -6.3809 N   0  0  0  0  0  0  0  0  0  0  0  0
    3.7326    1.4658   -6.7332 C   0  0  0  0  0  0  0  0  0  0  0  0
    5.0365    1.6957   -6.9564 N   0  0  0  0  0  0  0  0  0  0  0  0
    7.1450    3.8034   -5.0009 C   0  0  0  0  0  0  0  0  0  0  0  0
    7.8669    4.4984   -1.7639 H   0  0  0  0  0  0  0  0  0  0  0  0
    7.1952    5.5923   -2.9658 H   0  0  0  0  0  0  0  0  0  0  0  0
    8.8437    4.9635   -3.1731 H   0  0  0  0  0  0  0  0  0  0  0  0
    7.9884    1.9096   -2.4408 H   0  0  0  0  0  0  0  0  0  0  0  0
    9.1382    2.5570   -3.6349 H   0  0  0  0  0  0  0  0  0  0  0  0
    6.7599    0.7730   -4.0825 H   0  0  0  0  0  0  0  0  0  0  0  0
    8.2933    0.8270   -4.9533 H   0  0  0  0  0  0  0  0  0  0  0  0
    7.3899    2.2775   -6.5288 H   0  0  0  0  0  0  0  0  0  0  0  0
    4.7255    2.5297   -3.8011 H   0  0  0  0  0  0  0  0  0  0  0  0
    1.9398    2.1640   -3.9634 H   0  0  0  0  0  0  0  0  0  0  0  0
   -2.1979    1.6265   -5.1290 H   0  0  0  0  0  0  0  0  0  0  0  0
   -0.2456   -2.2557   -7.5063 H   0  0  0  0  0  0  0  0  0  0  0  0
    1.2832   -1.5368   -7.9413 H   0  0  0  0  0  0  0  0  0  0  0  0
    0.0940   -0.1542   -9.7109 H   0  0  0  0  0  0  0  0  0  0  0  0
   -1.3985   -1.0030   -9.2222 H   0  0  0  0  0  0  0  0  0  0  0  0
    1.7313   -2.9227   -9.6200 H   0  0  0  0  0  0  0  0  0  0  0  0
    2.0888   -4.5443  -11.4186 H   0  0  0  0  0  0  0  0  0  0  0  0
    0.5694   -4.5719  -13.3794 H   0  0  0  0  0  0  0  0  0  0  0  0
   -1.2905   -2.9942  -13.5191 H   0  0  0  0  0  0  0  0  0  0  0  0
   -4.0629   -2.9243  -12.9462 H   0  0  0  0  0  0  0  0  0  0  0  0
   -5.1699   -3.2381  -11.6486 H   0  0  0  0  0  0  0  0  0  0  0  0
   -3.4752   -0.7531  -13.5823 H   0  0  0  0  0  0  0  0  0  0  0  0
   -1.7020   -0.3951  -13.5979 H   0  0  0  0  0  0  0  0  0  0  0  0
   -3.6926    0.4491  -11.4446 H   0  0  0  0  0  0  0  0  0  0  0  0
   -1.9537    0.8960  -11.5121 H   0  0  0  0  0  0  0  0  0  0  0  0
    3.1154    1.1047   -7.5411 H   0  0  0  0  0  0  0  0  0  0  0  0
    6.3410    4.5109   -5.2306 H   0  0  0  0  0  0  0  0  0  0  0  0
    8.0824    4.1995   -5.4141 H   0  0  0  0  0  0  0  0  0  0  0  0
  1  2  1  0  0  0  0
  1 34  1  0  0  0  0
  1 35  1  0  0  0  0
  1 36  1  0  0  0  0
  2  3  1  0  0  0  0
  2 33  1  0  0  0  0
  3  4  1  0  0  0  0
  3 37  1  0  0  0  0
  3 38  1  0  0  0  0
  4  5  1  0  0  0  0
  4 39  1  0  0  0  0
  4 40  1  0  0  0  0
  5  6  1  0  0  0  0
  5 33  1  0  0  0  0
  5 41  1  0  0  0  0
  6  7  1  0  0  0  0
  6 32  1  0  0  0  0
  7  8  2  0  0  0  0
  7 42  1  0  0  0  0
  8  9  1  0  0  0  0
  8 31  1  0  0  0  0
  9 10  1  0  0  0  0
  9 43  1  0  0  0  0
 10 11  1  0  0  0  0
 10 30  2  0  0  0  0
 11 12  2  0  0  0  0
 12 13  1  0  0  0  0
 12 44  1  0  0  0  0
 13 14  1  0  0  0  0
 13 15  2  0  0  0  0
 15 16  1  0  0  0  0
 15 30  1  0  0  0  0
 16 17  1  0  0  0  0
 16 45  1  0  0  0  0
 16 46  1  0  0  0  0
 17 18  1  0  0  0  0
 17 47  1  0  0  0  0
 17 48  1  0  0  0  0
 18 19  1  0  0  0  0
 18 23  2  0  0  0  0
 19 20  2  0  0  0  0
 19 49  1  0  0  0  0
 20 21  1  0  0  0  0
 20 50  1  0  0  0  0
 21 22  2  0  0  0  0
 21 51  1  0  0  0  0
 22 23  1  0  0  0  0
 22 52  1  0  0  0  0
 23 24  1  0  0  0  0
 24 25  1  0  0  0  0
 24 28  1  0  0  0  0
 24 29  1  0  0  0  0
 25 26  1  0  0  0  0
 25 27  2  0  0  0  0
 26 53  1  0  0  0  0
 26 54  1  0  0  0  0
 28 29  1  0  0  0  0
 28 55  1  0  0  0  0
 28 56  1  0  0  0  0
 29 57  1  0  0  0  0
 29 58  1  0  0  0  0
 31 32  2  0  0  0  0
 31 59  1  0  0  0  0
 33 60  1  0  0  0  0
 33 61  1  0  0  0  0
M  END
$$$$
