CHEMBL1965988
 OpenBabel04072215363D

 52 55  0  0  0  0  0  0  0  0999 V2000
    2.4026   -0.3655    1.4230 C   0  0  0  0  0  0  0  0  0  0  0  0
    0.9037   -0.2839    1.3881 C   0  0  0  0  0  0  0  0  0  0  0  0
    0.2801    0.9069    1.7762 C   0  0  0  0  0  0  0  0  0  0  0  0
   -1.1022    1.0068    1.7501 C   0  0  0  0  0  0  0  0  0  0  0  0
   -1.8703   -0.0803    1.3371 C   0  0  0  0  0  0  0  0  0  0  0  0
   -1.2860   -1.2868    0.9328 C   0  0  0  0  0  0  0  0  0  0  0  0
   -2.0558   -2.4106    0.5070 N   0  0  0  0  0  0  0  0  0  0  0  0
   -3.4352   -2.4133    0.3467 C   0  0  0  0  0  0  0  0  0  0  0  0
   -4.1593   -1.4345    0.4889 O   0  0  0  0  0  0  0  0  0  0  0  0
   -3.9520   -3.6709    0.0425 N   0  0  0  0  0  0  0  0  0  0  0  0
   -5.3558   -3.8193   -0.1413 C   0  0  0  0  0  0  0  0  0  0  0  0
   -6.0883   -2.9109   -0.9092 C   0  0  0  0  0  0  0  0  0  0  0  0
   -7.4879   -2.9713   -0.9526 C   0  0  0  0  0  0  0  0  0  0  0  0
   -8.1962   -3.9669   -0.2603 C   0  0  0  0  0  0  0  0  0  0  0  0
   -9.6779   -3.9631   -0.2431 C   0  0  0  0  0  0  0  0  0  0  0  0
  -10.3527   -3.5674   -1.3838 C   0  0  0  0  0  0  0  0  0  0  0  0
  -12.0371   -3.5685   -1.2230 S   0  0  0  0  0  0  0  0  0  0  0  0
  -11.9644   -4.1226    0.4080 C   0  0  0  0  0  0  0  0  0  0  0  0
  -13.0585   -4.3811    1.2567 C   0  0  0  0  0  0  0  0  0  0  0  0
  -14.4129   -4.1998    0.8241 C   0  0  0  0  0  0  0  0  0  0  0  0
  -15.5505   -4.0541    0.4662 C   0  0  0  0  0  0  0  0  0  0  0  0
  -16.9444   -3.9228    0.0422 C   0  0  0  0  0  0  0  0  0  0  0  0
  -17.3090   -2.5130   -0.0887 N   0  0  0  0  0  0  0  0  0  0  0  0
  -12.7536   -4.8207    2.5251 C   0  0  0  0  0  0  0  0  0  0  0  0
  -11.5018   -4.9937    2.9836 N   0  0  0  0  0  0  0  0  0  0  0  0
  -10.4426   -4.7314    2.1860 C   0  0  0  0  0  0  0  0  0  0  0  0
   -9.2163   -4.9093    2.8141 N   0  0  0  0  0  0  0  0  0  0  0  0
  -10.6290   -4.2958    0.8389 C   0  0  0  0  0  0  0  0  0  0  0  0
   -7.4400   -4.9414    0.4048 C   0  0  0  0  0  0  0  0  0  0  0  0
   -6.0364   -4.8571    0.4906 C   0  0  0  0  0  0  0  0  0  0  0  0
    0.1157   -1.3782    0.9651 C   0  0  0  0  0  0  0  0  0  0  0  0
    2.8411    0.5687    1.7959 H   0  0  0  0  0  0  0  0  0  0  0  0
    2.7990   -0.5348    0.4177 H   0  0  0  0  0  0  0  0  0  0  0  0
    2.7284   -1.1683    2.0908 H   0  0  0  0  0  0  0  0  0  0  0  0
    0.8635    1.7644    2.1021 H   0  0  0  0  0  0  0  0  0  0  0  0
   -1.5950    1.9271    2.0489 H   0  0  0  0  0  0  0  0  0  0  0  0
   -2.9435    0.0693    1.3513 H   0  0  0  0  0  0  0  0  0  0  0  0
   -1.5487   -3.2238    0.1912 H   0  0  0  0  0  0  0  0  0  0  0  0
   -3.4699   -4.4453    0.4749 H   0  0  0  0  0  0  0  0  0  0  0  0
   -5.5827   -2.1168   -1.4555 H   0  0  0  0  0  0  0  0  0  0  0  0
   -8.0048   -2.2007   -1.5205 H   0  0  0  0  0  0  0  0  0  0  0  0
   -9.9372   -3.2632   -2.3348 H   0  0  0  0  0  0  0  0  0  0  0  0
  -17.6113   -4.4063    0.7562 H   0  0  0  0  0  0  0  0  0  0  0  0
  -17.0952   -4.4146   -0.9313 H   0  0  0  0  0  0  0  0  0  0  0  0
  -17.2156   -2.0650    0.8216 H   0  0  0  0  0  0  0  0  0  0  0  0
  -18.2890   -2.4400   -0.3449 H   0  0  0  0  0  0  0  0  0  0  0  0
  -13.5363   -5.0501    3.2435 H   0  0  0  0  0  0  0  0  0  0  0  0
   -9.3684   -5.0318    3.8094 H   0  0  0  0  0  0  0  0  0  0  0  0
   -8.5360   -4.1992    2.5721 H   0  0  0  0  0  0  0  0  0  0  0  0
   -7.9321   -5.7718    0.9064 H   0  0  0  0  0  0  0  0  0  0  0  0
   -5.5090   -5.5695    1.1185 H   0  0  0  0  0  0  0  0  0  0  0  0
    0.6153   -2.2961    0.6650 H   0  0  0  0  0  0  0  0  0  0  0  0
  1  2  1  0  0  0  0
  1 32  1  0  0  0  0
  1 33  1  0  0  0  0
  1 34  1  0  0  0  0
  2  3  1  0  0  0  0
  2 31  2  0  0  0  0
  3  4  2  0  0  0  0
  3 35  1  0  0  0  0
  4  5  1  0  0  0  0
  4 36  1  0  0  0  0
  5  6  2  0  0  0  0
  5 37  1  0  0  0  0
  6  7  1  0  0  0  0
  6 31  1  0  0  0  0
  7  8  1  0  0  0  0
  7 38  1  0  0  0  0
  8  9  2  0  0  0  0
  8 10  1  0  0  0  0
 10 11  1  0  0  0  0
 10 39  1  0  0  0  0
 11 12  1  0  0  0  0
 11 30  2  0  0  0  0
 12 13  2  0  0  0  0
 12 40  1  0  0  0  0
 13 14  1  0  0  0  0
 13 41  1  0  0  0  0
 14 15  1  0  0  0  0
 14 29  2  0  0  0  0
 15 16  2  0  0  0  0
 15 28  1  0  0  0  0
 16 17  1  0  0  0  0
 16 42  1  0  0  0  0
 17 18  1  0  0  0  0
 18 19  1  0  0  0  0
 18 28  2  0  0  0  0
 19 20  1  0  0  0  0
 19 24  2  0  0  0  0
 20 21  3  0  0  0  0
 21 22  1  0  0  0  0
 22 23  1  0  0  0  0
 22 43  1  0  0  0  0
 22 44  1  0  0  0  0
 23 45  1  0  0  0  0
 23 46  1  0  0  0  0
 24 25  1  0  0  0  0
 24 47  1  0  0  0  0
 25 26  2  0  0  0  0
 26 27  1  0  0  0  0
 26 28  1  0  0  0  0
 27 48  1  0  0  0  0
 27 49  1  0  0  0  0
 29 30  1  0  0  0  0
 29 50  1  0  0  0  0
 30 51  1  0  0  0  0
 31 52  1  0  0  0  0
M  END
$$$$
