CHEMBL411903
 OpenBabel04072215383D

 50 53  0  0  0  0  0  0  0  0999 V2000
    4.0869    1.5854    3.1096 N   0  0  0  0  0  0  0  0  0  0  0  0
    4.6541    1.3572    1.8448 C   0  0  0  0  0  0  0  0  0  0  0  0
    5.4640    0.2921    1.7472 N   0  0  0  0  0  0  0  0  0  0  0  0
    5.9500    0.0507    0.5241 C   0  0  0  0  0  0  0  0  0  0  0  0
    5.6966    0.7501   -0.5914 N   0  0  0  0  0  0  0  0  0  0  0  0
    4.8665    1.8036   -0.4619 C   0  0  0  0  0  0  0  0  0  0  0  0
    4.2978    2.1686    0.7644 C   0  0  0  0  0  0  0  0  0  0  0  0
    3.4710    3.3047    0.9916 N   0  0  0  0  0  0  0  0  0  0  0  0
    2.5079    3.5535    0.1585 C   0  0  0  0  0  0  0  0  0  0  0  0
    1.6432    4.7471    0.3851 C   0  0  0  0  0  0  0  0  0  0  0  0
    1.1000    5.4257   -0.7006 C   0  0  0  0  0  0  0  0  0  0  0  0
    0.2741    6.5281   -0.4947 C   0  0  0  0  0  0  0  0  0  0  0  0
   -0.0312    6.9833    0.7909 C   0  0  0  0  0  0  0  0  0  0  0  0
   -0.8773    8.0941    1.0259 N   0  0  0  0  0  0  0  0  0  0  0  0
   -1.6038    8.7596    0.0548 C   0  0  0  0  0  0  0  0  0  0  0  0
   -1.6777    8.4316   -1.1242 O   0  0  0  0  0  0  0  0  0  0  0  0
   -2.2384    9.8914    0.5490 N   0  0  0  0  0  0  0  0  0  0  0  0
   -2.9976   10.6870   -0.3495 C   0  0  0  0  0  0  0  0  0  0  0  0
   -3.9292   10.1104   -1.2240 C   0  0  0  0  0  0  0  0  0  0  0  0
   -4.5737   10.8852   -2.2013 C   0  0  0  0  0  0  0  0  0  0  0  0
   -5.5628   10.2604   -3.1571 C   0  0  0  0  0  0  0  0  0  0  0  0
   -5.7714    8.9313   -2.9464 F   0  0  0  0  0  0  0  0  0  0  0  0
   -6.7915   10.8443   -3.0750 F   0  0  0  0  0  0  0  0  0  0  0  0
   -5.1814   10.3795   -4.4587 F   0  0  0  0  0  0  0  0  0  0  0  0
   -4.2701   12.2538   -2.2876 C   0  0  0  0  0  0  0  0  0  0  0  0
   -3.3680   12.8386   -1.3942 C   0  0  0  0  0  0  0  0  0  0  0  0
   -2.7560   12.0571   -0.4185 C   0  0  0  0  0  0  0  0  0  0  0  0
   -1.8617   12.6173    0.4092 F   0  0  0  0  0  0  0  0  0  0  0  0
    0.5419    6.3206    1.8829 C   0  0  0  0  0  0  0  0  0  0  0  0
    1.3802    5.2091    1.6801 C   0  0  0  0  0  0  0  0  0  0  0  0
    2.2101    2.6679   -1.0401 C   0  0  0  0  0  0  0  0  0  0  0  0
    3.3038    2.8203   -2.0846 C   0  0  0  0  0  0  0  0  0  0  0  0
    4.6602    2.5016   -1.6491 N   0  0  0  0  0  0  0  0  0  0  0  0
    4.5752    1.0200    3.7918 H   0  0  0  0  0  0  0  0  0  0  0  0
    4.0813    2.5846    3.2982 H   0  0  0  0  0  0  0  0  0  0  0  0
    6.6110   -0.8037    0.4230 H   0  0  0  0  0  0  0  0  0  0  0  0
    1.3095    5.1360   -1.7243 H   0  0  0  0  0  0  0  0  0  0  0  0
   -0.1086    7.0089   -1.3880 H   0  0  0  0  0  0  0  0  0  0  0  0
   -1.0684    8.3392    1.9865 H   0  0  0  0  0  0  0  0  0  0  0  0
   -1.6863   10.4155    1.2170 H   0  0  0  0  0  0  0  0  0  0  0  0
   -4.1335    9.0417   -1.1682 H   0  0  0  0  0  0  0  0  0  0  0  0
   -4.7335   12.8662   -3.0604 H   0  0  0  0  0  0  0  0  0  0  0  0
   -3.1191   13.8926   -1.4707 H   0  0  0  0  0  0  0  0  0  0  0  0
    0.3487    6.6484    2.9014 H   0  0  0  0  0  0  0  0  0  0  0  0
    1.8152    4.7009    2.5392 H   0  0  0  0  0  0  0  0  0  0  0  0
    1.2390    2.9138   -1.4827 H   0  0  0  0  0  0  0  0  0  0  0  0
    2.1163    1.6287   -0.7036 H   0  0  0  0  0  0  0  0  0  0  0  0
    3.3176    3.8487   -2.4644 H   0  0  0  0  0  0  0  0  0  0  0  0
    3.0555    2.1802   -2.9400 H   0  0  0  0  0  0  0  0  0  0  0  0
    5.1943    2.0035   -2.3594 H   0  0  0  0  0  0  0  0  0  0  0  0
  1  2  1  0  0  0  0
  1 34  1  0  0  0  0
  1 35  1  0  0  0  0
  2  3  1  0  0  0  0
  2  7  2  0  0  0  0
  3  4  2  0  0  0  0
  4  5  1  0  0  0  0
  4 36  1  0  0  0  0
  5  6  2  0  0  0  0
  6  7  1  0  0  0  0
  6 33  1  0  0  0  0
  7  8  1  0  0  0  0
  8  9  2  0  0  0  0
  9 10  1  0  0  0  0
  9 31  1  0  0  0  0
 10 11  1  0  0  0  0
 10 30  2  0  0  0  0
 11 12  2  0  0  0  0
 11 37  1  0  0  0  0
 12 13  1  0  0  0  0
 12 38  1  0  0  0  0
 13 14  1  0  0  0  0
 13 29  2  0  0  0  0
 14 15  1  0  0  0  0
 14 39  1  0  0  0  0
 15 16  2  0  0  0  0
 15 17  1  0  0  0  0
 17 18  1  0  0  0  0
 17 40  1  0  0  0  0
 18 19  1  0  0  0  0
 18 27  2  0  0  0  0
 19 20  2  0  0  0  0
 19 41  1  0  0  0  0
 20 21  1  0  0  0  0
 20 25  1  0  0  0  0
 21 22  1  0  0  0  0
 21 23  1  0  0  0  0
 21 24  1  0  0  0  0
 25 26  2  0  0  0  0
 25 42  1  0  0  0  0
 26 27  1  0  0  0  0
 26 43  1  0  0  0  0
 27 28  1  0  0  0  0
 29 30  1  0  0  0  0
 29 44  1  0  0  0  0
 30 45  1  0  0  0  0
 31 32  1  0  0  0  0
 31 46  1  0  0  0  0
 31 47  1  0  0  0  0
 32 33  1  0  0  0  0
 32 48  1  0  0  0  0
 32 49  1  0  0  0  0
 33 50  1  0  0  0  0
M  END
$$$$
