CHEMBL345943
 OpenBabel04072215363D

 45 48  0  0  0  0  0  0  0  0999 V2000
    3.2709    1.2118    0.1613 C   0  0  0  0  0  0  0  0  0  0  0  0
    2.5367    0.2639   -0.6171 O   0  0  0  0  0  0  0  0  0  0  0  0
    3.1688   -0.9270   -0.8614 C   0  0  0  0  0  0  0  0  0  0  0  0
    4.1270   -1.4717   -0.0026 C   0  0  0  0  0  0  0  0  0  0  0  0
    4.8235   -2.6563   -0.3447 C   0  0  0  0  0  0  0  0  0  0  0  0
    5.8416   -3.2439    0.4239 C   0  0  0  0  0  0  0  0  0  0  0  0
    6.1775   -2.6672    1.6679 N   0  0  0  0  0  0  0  0  0  0  0  0
    7.4380   -2.6531    2.2950 C   0  0  0  0  0  0  0  0  0  0  0  0
    8.6301   -2.6585    1.5598 C   0  0  0  0  0  0  0  0  0  0  0  0
    9.8601   -2.4746    2.1962 C   0  0  0  0  0  0  0  0  0  0  0  0
    9.9078   -2.2872    3.5753 C   0  0  0  0  0  0  0  0  0  0  0  0
   11.4183   -1.9916    4.3423 Cl  0  0  0  0  0  0  0  0  0  0  0  0
    8.7412   -2.3099    4.3318 C   0  0  0  0  0  0  0  0  0  0  0  0
    7.5224   -2.4846    3.6847 C   0  0  0  0  0  0  0  0  0  0  0  0
    6.3936   -2.4735    4.4120 F   0  0  0  0  0  0  0  0  0  0  0  0
    6.5146   -4.3324    0.0133 N   0  0  0  0  0  0  0  0  0  0  0  0
    6.1607   -4.8493   -1.1657 C   0  0  0  0  0  0  0  0  0  0  0  0
    5.2075   -4.3800   -1.9723 N   0  0  0  0  0  0  0  0  0  0  0  0
    4.5598   -3.2872   -1.5573 C   0  0  0  0  0  0  0  0  0  0  0  0
    3.5750   -2.7647   -2.3726 C   0  0  0  0  0  0  0  0  0  0  0  0
    2.8246   -1.6323   -2.0204 C   0  0  0  0  0  0  0  0  0  0  0  0
    1.7637   -1.1781   -2.7759 O   0  0  0  0  0  0  0  0  0  0  0  0
    1.2042   -2.1609   -3.6594 C   0  0  0  0  0  0  0  0  0  0  0  0
   -0.2135   -1.8750   -4.0848 C   0  0  0  0  0  0  0  0  0  0  0  0
   -0.8247   -0.6349   -3.9134 C   0  0  0  0  0  0  0  0  0  0  0  0
   -2.1404   -0.4880   -4.3267 C   0  0  0  0  0  0  0  0  0  0  0  0
   -2.8699   -1.4714   -4.9007 N   0  0  0  0  0  0  0  0  0  0  0  0
   -2.2567   -2.6601   -5.0710 C   0  0  0  0  0  0  0  0  0  0  0  0
   -0.9482   -2.9035   -4.6934 C   0  0  0  0  0  0  0  0  0  0  0  0
    3.0032    2.2159   -0.1812 H   0  0  0  0  0  0  0  0  0  0  0  0
    4.3583    1.1194    0.0511 H   0  0  0  0  0  0  0  0  0  0  0  0
    2.9880    1.1210    1.2148 H   0  0  0  0  0  0  0  0  0  0  0  0
    4.3609   -0.9768    0.9363 H   0  0  0  0  0  0  0  0  0  0  0  0
    5.4034   -2.7142    2.3249 H   0  0  0  0  0  0  0  0  0  0  0  0
    8.6092   -2.7727    0.4786 H   0  0  0  0  0  0  0  0  0  0  0  0
   10.7708   -2.4550    1.6006 H   0  0  0  0  0  0  0  0  0  0  0  0
    8.7624   -2.1731    5.4069 H   0  0  0  0  0  0  0  0  0  0  0  0
    6.6931   -5.7320   -1.4985 H   0  0  0  0  0  0  0  0  0  0  0  0
    3.4005   -3.2877   -3.3073 H   0  0  0  0  0  0  0  0  0  0  0  0
    1.1715   -3.1369   -3.1562 H   0  0  0  0  0  0  0  0  0  0  0  0
    1.8257   -2.2184   -4.5613 H   0  0  0  0  0  0  0  0  0  0  0  0
   -0.2985    0.1979   -3.4612 H   0  0  0  0  0  0  0  0  0  0  0  0
   -2.6589    0.4580   -4.2035 H   0  0  0  0  0  0  0  0  0  0  0  0
   -2.8619   -3.4357   -5.5301 H   0  0  0  0  0  0  0  0  0  0  0  0
   -0.5149   -3.8845   -4.8603 H   0  0  0  0  0  0  0  0  0  0  0  0
  1  2  1  0  0  0  0
  1 30  1  0  0  0  0
  1 31  1  0  0  0  0
  1 32  1  0  0  0  0
  2  3  1  0  0  0  0
  3  4  1  0  0  0  0
  3 21  2  0  0  0  0
  4  5  2  0  0  0  0
  4 33  1  0  0  0  0
  5  6  1  0  0  0  0
  5 19  1  0  0  0  0
  6  7  1  0  0  0  0
  6 16  2  0  0  0  0
  7  8  1  0  0  0  0
  7 34  1  0  0  0  0
  8  9  1  0  0  0  0
  8 14  2  0  0  0  0
  9 10  2  0  0  0  0
  9 35  1  0  0  0  0
 10 11  1  0  0  0  0
 10 36  1  0  0  0  0
 11 12  1  0  0  0  0
 11 13  2  0  0  0  0
 13 14  1  0  0  0  0
 13 37  1  0  0  0  0
 14 15  1  0  0  0  0
 16 17  1  0  0  0  0
 17 18  2  0  0  0  0
 17 38  1  0  0  0  0
 18 19  1  0  0  0  0
 19 20  2  0  0  0  0
 20 21  1  0  0  0  0
 20 39  1  0  0  0  0
 21 22  1  0  0  0  0
 22 23  1  0  0  0  0
 23 24  1  0  0  0  0
 23 40  1  0  0  0  0
 23 41  1  0  0  0  0
 24 25  1  0  0  0  0
 24 29  2  0  0  0  0
 25 26  2  0  0  0  0
 25 42  1  0  0  0  0
 26 27  1  0  0  0  0
 26 43  1  0  0  0  0
 27 28  2  0  0  0  0
 28 29  1  0  0  0  0
 28 44  1  0  0  0  0
 29 45  1  0  0  0  0
M  END
$$$$
