CHEMBL231511
 OpenBabel04072215363D

 55 59  0  0  0  0  0  0  0  0999 V2000
    2.3763   -0.4236    1.5542 C   0  0  0  0  0  0  0  0  0  0  0  0
    0.8821   -0.3101    1.5254 C   0  0  0  0  0  0  0  0  0  0  0  0
    0.2667    0.8770    1.9493 C   0  0  0  0  0  0  0  0  0  0  0  0
   -1.1112    0.9878    1.9301 C   0  0  0  0  0  0  0  0  0  0  0  0
   -1.8959   -0.0787    1.4914 C   0  0  0  0  0  0  0  0  0  0  0  0
   -1.3159   -1.2746    1.0459 C   0  0  0  0  0  0  0  0  0  0  0  0
   -2.0693   -2.3809    0.5877 N   0  0  0  0  0  0  0  0  0  0  0  0
   -3.4386   -2.3890    0.3985 C   0  0  0  0  0  0  0  0  0  0  0  0
   -4.1744   -1.4176    0.5325 O   0  0  0  0  0  0  0  0  0  0  0  0
   -3.9213   -3.6535    0.0694 N   0  0  0  0  0  0  0  0  0  0  0  0
   -5.3109   -3.8296   -0.1460 C   0  0  0  0  0  0  0  0  0  0  0  0
   -6.0447   -2.9121   -0.9004 C   0  0  0  0  0  0  0  0  0  0  0  0
   -7.4381   -2.9804   -0.9371 C   0  0  0  0  0  0  0  0  0  0  0  0
   -8.1262   -3.9953   -0.2553 C   0  0  0  0  0  0  0  0  0  0  0  0
   -9.5984   -4.0110   -0.2375 C   0  0  0  0  0  0  0  0  0  0  0  0
  -10.2683   -3.6779   -1.3966 C   0  0  0  0  0  0  0  0  0  0  0  0
  -11.9431   -3.7928   -1.2571 S   0  0  0  0  0  0  0  0  0  0  0  0
  -11.8790   -4.1662    0.4344 C   0  0  0  0  0  0  0  0  0  0  0  0
  -12.9865   -4.3400    1.3102 C   0  0  0  0  0  0  0  0  0  0  0  0
  -14.4068   -4.1267    0.9458 C   0  0  0  0  0  0  0  0  0  0  0  0
  -15.4207   -4.9705    1.4413 C   0  0  0  0  0  0  0  0  0  0  0  0
  -16.7711   -4.7510    1.1434 C   0  0  0  0  0  0  0  0  0  0  0  0
  -17.1417   -3.6958    0.3176 C   0  0  0  0  0  0  0  0  0  0  0  0
  -16.1653   -2.8477   -0.1897 C   0  0  0  0  0  0  0  0  0  0  0  0
  -14.8215   -3.0475    0.1436 C   0  0  0  0  0  0  0  0  0  0  0  0
  -12.6195   -4.7320    2.5931 C   0  0  0  0  0  0  0  0  0  0  0  0
  -11.3646   -4.9095    3.0382 N   0  0  0  0  0  0  0  0  0  0  0  0
  -10.3250   -4.6798    2.2174 C   0  0  0  0  0  0  0  0  0  0  0  0
   -9.0903   -4.8147    2.8417 N   0  0  0  0  0  0  0  0  0  0  0  0
  -10.5370   -4.3102    0.8586 C   0  0  0  0  0  0  0  0  0  0  0  0
   -7.3697   -4.9819    0.3895 C   0  0  0  0  0  0  0  0  0  0  0  0
   -5.9715   -4.8939    0.4620 C   0  0  0  0  0  0  0  0  0  0  0  0
    0.0858   -1.3769    1.0737 C   0  0  0  0  0  0  0  0  0  0  0  0
    2.8398    0.4855    1.9520 H   0  0  0  0  0  0  0  0  0  0  0  0
    2.7649   -0.5778    0.5412 H   0  0  0  0  0  0  0  0  0  0  0  0
    2.6816   -1.2572    2.1946 H   0  0  0  0  0  0  0  0  0  0  0  0
    0.8643    1.7175    2.2975 H   0  0  0  0  0  0  0  0  0  0  0  0
   -1.5961    1.9045    2.2583 H   0  0  0  0  0  0  0  0  0  0  0  0
   -2.9703    0.0711    1.5099 H   0  0  0  0  0  0  0  0  0  0  0  0
   -1.5566   -3.1810    0.2571 H   0  0  0  0  0  0  0  0  0  0  0  0
   -3.4356   -4.4168    0.5160 H   0  0  0  0  0  0  0  0  0  0  0  0
   -5.5449   -2.1029   -1.4295 H   0  0  0  0  0  0  0  0  0  0  0  0
   -7.9677   -2.2036   -1.4841 H   0  0  0  0  0  0  0  0  0  0  0  0
   -9.8482   -3.3929   -2.3519 H   0  0  0  0  0  0  0  0  0  0  0  0
  -15.1743   -5.8201    2.0755 H   0  0  0  0  0  0  0  0  0  0  0  0
  -17.5317   -5.4084    1.5571 H   0  0  0  0  0  0  0  0  0  0  0  0
  -18.1877   -3.5296    0.0751 H   0  0  0  0  0  0  0  0  0  0  0  0
  -16.4429   -2.0205   -0.8379 H   0  0  0  0  0  0  0  0  0  0  0  0
  -14.1013   -2.3253   -0.2331 H   0  0  0  0  0  0  0  0  0  0  0  0
  -13.3731   -4.9081    3.3581 H   0  0  0  0  0  0  0  0  0  0  0  0
   -9.2466   -4.8870    3.8423 H   0  0  0  0  0  0  0  0  0  0  0  0
   -8.4291   -4.0975    2.5701 H   0  0  0  0  0  0  0  0  0  0  0  0
   -7.8612   -5.8145    0.8882 H   0  0  0  0  0  0  0  0  0  0  0  0
   -5.4319   -5.6196    1.0631 H   0  0  0  0  0  0  0  0  0  0  0  0
    0.5710   -2.2944    0.7420 H   0  0  0  0  0  0  0  0  0  0  0  0
  1  2  1  0  0  0  0
  1 34  1  0  0  0  0
  1 35  1  0  0  0  0
  1 36  1  0  0  0  0
  2  3  1  0  0  0  0
  2 33  2  0  0  0  0
  3  4  2  0  0  0  0
  3 37  1  0  0  0  0
  4  5  1  0  0  0  0
  4 38  1  0  0  0  0
  5  6  2  0  0  0  0
  5 39  1  0  0  0  0
  6  7  1  0  0  0  0
  6 33  1  0  0  0  0
  7  8  1  0  0  0  0
  7 40  1  0  0  0  0
  8  9  2  0  0  0  0
  8 10  1  0  0  0  0
 10 11  1  0  0  0  0
 10 41  1  0  0  0  0
 11 12  1  0  0  0  0
 11 32  2  0  0  0  0
 12 13  2  0  0  0  0
 12 42  1  0  0  0  0
 13 14  1  0  0  0  0
 13 43  1  0  0  0  0
 14 15  1  0  0  0  0
 14 31  2  0  0  0  0
 15 16  2  0  0  0  0
 15 30  1  0  0  0  0
 16 17  1  0  0  0  0
 16 44  1  0  0  0  0
 17 18  1  0  0  0  0
 18 19  1  0  0  0  0
 18 30  2  0  0  0  0
 19 20  1  0  0  0  0
 19 26  2  0  0  0  0
 20 21  1  0  0  0  0
 20 25  2  0  0  0  0
 21 22  2  0  0  0  0
 21 45  1  0  0  0  0
 22 23  1  0  0  0  0
 22 46  1  0  0  0  0
 23 24  2  0  0  0  0
 23 47  1  0  0  0  0
 24 25  1  0  0  0  0
 24 48  1  0  0  0  0
 25 49  1  0  0  0  0
 26 27  1  0  0  0  0
 26 50  1  0  0  0  0
 27 28  2  0  0  0  0
 28 29  1  0  0  0  0
 28 30  1  0  0  0  0
 29 51  1  0  0  0  0
 29 52  1  0  0  0  0
 31 32  1  0  0  0  0
 31 53  1  0  0  0  0
 32 54  1  0  0  0  0
 33 55  1  0  0  0  0
M  END
$$$$
