CHEMBL4520313
 OpenBabel04072215383D

 47 50  0  0  0  0  0  0  0  0999 V2000
    2.5414    1.1410    0.6159 O   0  0  0  0  0  0  0  0  0  0  0  0
    2.1227   -0.0098    0.5365 C   0  0  0  0  0  0  0  0  0  0  0  0
    0.7879   -0.3523    0.5064 N   0  0  0  0  0  0  0  0  0  0  0  0
   -0.3040    0.5606    0.6051 C   0  0  0  0  0  0  0  0  0  0  0  0
   -0.1620    1.9510    0.5322 C   0  0  0  0  0  0  0  0  0  0  0  0
   -1.2550    2.7974    0.7534 C   0  0  0  0  0  0  0  0  0  0  0  0
   -2.5035    2.2457    1.0272 C   0  0  0  0  0  0  0  0  0  0  0  0
   -3.8324    3.2898    1.3432 Cl  0  0  0  0  0  0  0  0  0  0  0  0
   -2.6760    0.8667    1.0625 C   0  0  0  0  0  0  0  0  0  0  0  0
   -1.5767    0.0224    0.8407 C   0  0  0  0  0  0  0  0  0  0  0  0
    2.9383   -1.1337    0.5085 N   0  0  0  0  0  0  0  0  0  0  0  0
    4.3454   -1.1273    0.6503 C   0  0  0  0  0  0  0  0  0  0  0  0
    5.0865    0.0222    0.9780 C   0  0  0  0  0  0  0  0  0  0  0  0
    6.4776   -0.0103    1.0506 C   0  0  0  0  0  0  0  0  0  0  0  0
    7.1461   -1.1940    0.7793 C   0  0  0  0  0  0  0  0  0  0  0  0
    8.6219   -1.1988    0.8228 C   0  0  0  0  0  0  0  0  0  0  0  0
    9.2072   -0.6951    1.7751 O   0  0  0  0  0  0  0  0  0  0  0  0
    9.2102   -1.8343   -0.2575 N   0  0  0  0  0  0  0  0  0  0  0  0
   10.2744   -2.6323    0.0191 N   0  0  0  0  0  0  0  0  0  0  0  0
   10.5652   -3.5273   -0.8692 C   0  0  0  0  0  0  0  0  0  0  0  0
   10.0325   -3.6930   -2.2934 C   0  0  0  0  0  0  0  0  0  0  0  0
    9.4968   -2.8275   -2.9501 O   0  0  0  0  0  0  0  0  0  0  0  0
   10.2048   -5.0286   -2.5824 N   0  0  0  0  0  0  0  0  0  0  0  0
   10.6126   -5.7027   -1.4339 C   0  0  0  0  0  0  0  0  0  0  0  0
   10.2967   -6.9962   -1.0782 C   0  0  0  0  0  0  0  0  0  0  0  0
   10.5469   -7.3719    0.2512 C   0  0  0  0  0  0  0  0  0  0  0  0
   11.1986   -6.5039    1.1534 C   0  0  0  0  0  0  0  0  0  0  0  0
   11.5023   -5.1992    0.7837 C   0  0  0  0  0  0  0  0  0  0  0  0
   11.1198   -4.8186   -0.4859 C   0  0  0  0  0  0  0  0  0  0  0  0
    6.4220   -2.3629    0.5029 C   0  0  0  0  0  0  0  0  0  0  0  0
    5.0270   -2.3277    0.4404 C   0  0  0  0  0  0  0  0  0  0  0  0
    0.5646   -1.3177    0.5925 H   0  0  0  0  0  0  0  0  0  0  0  0
    0.7917    2.4185    0.3097 H   0  0  0  0  0  0  0  0  0  0  0  0
   -1.1043    3.8764    0.7185 H   0  0  0  0  0  0  0  0  0  0  0  0
   -3.6465    0.4295    1.2712 H   0  0  0  0  0  0  0  0  0  0  0  0
   -1.7295   -1.0536    0.8860 H   0  0  0  0  0  0  0  0  0  0  0  0
    2.5056   -2.0058    0.2485 H   0  0  0  0  0  0  0  0  0  0  0  0
    4.6164    0.9780    1.1897 H   0  0  0  0  0  0  0  0  0  0  0  0
    7.0330    0.8871    1.3089 H   0  0  0  0  0  0  0  0  0  0  0  0
    8.6131   -2.1095   -1.0362 H   0  0  0  0  0  0  0  0  0  0  0  0
   10.0008   -5.4363   -3.4826 H   0  0  0  0  0  0  0  0  0  0  0  0
    9.7038   -7.6351   -1.7247 H   0  0  0  0  0  0  0  0  0  0  0  0
   10.1656   -8.3214    0.6234 H   0  0  0  0  0  0  0  0  0  0  0  0
   11.3663   -6.8141    2.1831 H   0  0  0  0  0  0  0  0  0  0  0  0
   11.8790   -4.4714    1.4955 H   0  0  0  0  0  0  0  0  0  0  0  0
    6.9366   -3.3127    0.3681 H   0  0  0  0  0  0  0  0  0  0  0  0
    4.4843   -3.2386    0.2108 H   0  0  0  0  0  0  0  0  0  0  0  0
  1  2  2  0  0  0  0
  2  3  1  0  0  0  0
  2 11  1  0  0  0  0
  3  4  1  0  0  0  0
  3 32  1  0  0  0  0
  4  5  1  0  0  0  0
  4 10  2  0  0  0  0
  5  6  2  0  0  0  0
  5 33  1  0  0  0  0
  6  7  1  0  0  0  0
  6 34  1  0  0  0  0
  7  8  1  0  0  0  0
  7  9  2  0  0  0  0
  9 10  1  0  0  0  0
  9 35  1  0  0  0  0
 10 36  1  0  0  0  0
 11 12  1  0  0  0  0
 11 37  1  0  0  0  0
 12 13  1  0  0  0  0
 12 31  2  0  0  0  0
 13 14  2  0  0  0  0
 13 38  1  0  0  0  0
 14 15  1  0  0  0  0
 14 39  1  0  0  0  0
 15 16  1  0  0  0  0
 15 30  2  0  0  0  0
 16 17  2  0  0  0  0
 16 18  1  0  0  0  0
 18 19  1  0  0  0  0
 18 40  1  0  0  0  0
 19 20  2  0  0  0  0
 20 21  1  0  0  0  0
 20 29  1  0  0  0  0
 21 22  2  0  0  0  0
 21 23  1  0  0  0  0
 23 24  1  0  0  0  0
 23 41  1  0  0  0  0
 24 25  1  0  0  0  0
 24 29  2  0  0  0  0
 25 26  2  0  0  0  0
 25 42  1  0  0  0  0
 26 27  1  0  0  0  0
 26 43  1  0  0  0  0
 27 28  2  0  0  0  0
 27 44  1  0  0  0  0
 28 29  1  0  0  0  0
 28 45  1  0  0  0  0
 30 31  1  0  0  0  0
 30 46  1  0  0  0  0
 31 47  1  0  0  0  0
M  END
$$$$
