CHEMBL75077
 OpenBabel04072215383D

 39 42  0  0  0  0  0  0  0  0999 V2000
    1.6148   -2.8838    4.7456 Cl  0  0  0  0  0  0  0  0  0  0  0  0
    2.2692   -2.0307    3.4033 C   0  0  0  0  0  0  0  0  0  0  0  0
    1.5958   -2.0302    2.1842 C   0  0  0  0  0  0  0  0  0  0  0  0
    2.1341   -1.3431    1.0897 C   0  0  0  0  0  0  0  0  0  0  0  0
    3.3366   -0.6322    1.2112 C   0  0  0  0  0  0  0  0  0  0  0  0
    3.8907    0.0243    0.0905 N   0  0  0  0  0  0  0  0  0  0  0  0
    4.6130    1.2486    0.1174 C   0  0  0  0  0  0  0  0  0  0  0  0
    4.5105    2.0627    1.1901 N   0  0  0  0  0  0  0  0  0  0  0  0
    5.1748    3.2463    1.2363 N   0  0  0  0  0  0  0  0  0  0  0  0
    5.9587    3.6166    0.1975 C   0  0  0  0  0  0  0  0  0  0  0  0
    6.6448    4.9531    0.3324 C   0  0  0  0  0  0  0  0  0  0  0  0
    7.9858    4.8964    1.0260 C   0  0  0  0  0  0  0  0  0  0  0  0
    9.1594    4.6777    0.2992 C   0  0  0  0  0  0  0  0  0  0  0  0
   10.3668    4.6368    0.9798 C   0  0  0  0  0  0  0  0  0  0  0  0
   10.4841    4.7970    2.3149 N   0  0  0  0  0  0  0  0  0  0  0  0
    9.3388    4.9985    3.0008 C   0  0  0  0  0  0  0  0  0  0  0  0
    8.0842    5.0520    2.4120 C   0  0  0  0  0  0  0  0  0  0  0  0
    6.1258    2.8270   -0.9340 C   0  0  0  0  0  0  0  0  0  0  0  0
    6.9259    3.2262   -1.9563 N   0  0  0  0  0  0  0  0  0  0  0  0
    7.0638    2.4234   -3.0329 C   0  0  0  0  0  0  0  0  0  0  0  0
    6.4283    1.2094   -3.1633 C   0  0  0  0  0  0  0  0  0  0  0  0
    5.6043    0.7971   -2.1237 C   0  0  0  0  0  0  0  0  0  0  0  0
    5.4273    1.6070   -0.9775 C   0  0  0  0  0  0  0  0  0  0  0  0
    4.0048   -0.6616    2.4443 C   0  0  0  0  0  0  0  0  0  0  0  0
    3.4747   -1.3511    3.5373 C   0  0  0  0  0  0  0  0  0  0  0  0
    0.6537   -2.5612    2.0788 H   0  0  0  0  0  0  0  0  0  0  0  0
    1.5915   -1.3585    0.1481 H   0  0  0  0  0  0  0  0  0  0  0  0
    3.2804    0.0056   -0.7194 H   0  0  0  0  0  0  0  0  0  0  0  0
    5.9842    5.6277    0.8946 H   0  0  0  0  0  0  0  0  0  0  0  0
    6.7528    5.4363   -0.6466 H   0  0  0  0  0  0  0  0  0  0  0  0
    9.1389    4.5416   -0.7774 H   0  0  0  0  0  0  0  0  0  0  0  0
   11.3003    4.4697    0.4504 H   0  0  0  0  0  0  0  0  0  0  0  0
    9.4579    5.1212    4.0736 H   0  0  0  0  0  0  0  0  0  0  0  0
    7.2042    5.2131    3.0267 H   0  0  0  0  0  0  0  0  0  0  0  0
    7.7246    2.7980   -3.8094 H   0  0  0  0  0  0  0  0  0  0  0  0
    6.5734    0.5949   -4.0447 H   0  0  0  0  0  0  0  0  0  0  0  0
    5.1133   -0.1693   -2.2047 H   0  0  0  0  0  0  0  0  0  0  0  0
    4.9565   -0.1485    2.5650 H   0  0  0  0  0  0  0  0  0  0  0  0
    4.0118   -1.3510    4.4817 H   0  0  0  0  0  0  0  0  0  0  0  0
  1  2  1  0  0  0  0
  2  3  1  0  0  0  0
  2 25  2  0  0  0  0
  3  4  2  0  0  0  0
  3 26  1  0  0  0  0
  4  5  1  0  0  0  0
  4 27  1  0  0  0  0
  5  6  1  0  0  0  0
  5 24  2  0  0  0  0
  6  7  1  0  0  0  0
  6 28  1  0  0  0  0
  7  8  1  0  0  0  0
  7 23  2  0  0  0  0
  8  9  2  0  0  0  0
  9 10  1  0  0  0  0
 10 11  1  0  0  0  0
 10 18  2  0  0  0  0
 11 12  1  0  0  0  0
 11 29  1  0  0  0  0
 11 30  1  0  0  0  0
 12 13  1  0  0  0  0
 12 17  2  0  0  0  0
 13 14  2  0  0  0  0
 13 31  1  0  0  0  0
 14 15  1  0  0  0  0
 14 32  1  0  0  0  0
 15 16  2  0  0  0  0
 16 17  1  0  0  0  0
 16 33  1  0  0  0  0
 17 34  1  0  0  0  0
 18 19  1  0  0  0  0
 18 23  1  0  0  0  0
 19 20  2  0  0  0  0
 20 21  1  0  0  0  0
 20 35  1  0  0  0  0
 21 22  2  0  0  0  0
 21 36  1  0  0  0  0
 22 23  1  0  0  0  0
 22 37  1  0  0  0  0
 24 25  1  0  0  0  0
 24 38  1  0  0  0  0
 25 39  1  0  0  0  0
M  END
$$$$
