CHEMBL213230
 OpenBabel04072215363D

 65 70  0  0  0  0  0  0  0  0999 V2000
    1.9222    0.0158   -1.0746 C   0  0  0  0  0  0  0  0  0  0  0  0
    0.4756    0.2040   -1.0824 N   0  0  0  0  0  0  0  0  0  0  0  0
   -0.2252   -1.0321   -0.6973 C   0  0  0  0  0  0  0  0  0  0  0  0
   -1.7534   -0.8116   -0.7399 C   0  0  0  0  0  0  0  0  0  0  0  0
   -2.2327    0.2157    0.2128 N   0  0  0  0  0  0  0  0  0  0  0  0
   -2.0600   -0.1375    1.6382 C   0  0  0  0  0  0  0  0  0  0  0  0
   -2.7740   -1.4022    2.0927 C   0  0  0  0  0  0  0  0  0  0  0  0
   -2.1158   -2.6578    2.0053 C   0  0  0  0  0  0  0  0  0  0  0  0
   -2.7493   -3.8581    2.3147 C   0  0  0  0  0  0  0  0  0  0  0  0
   -4.0291   -3.7704    2.8003 C   0  0  0  0  0  0  0  0  0  0  0  0
   -4.6968   -2.5314    2.9902 C   0  0  0  0  0  0  0  0  0  0  0  0
   -4.0847   -1.3441    2.6148 C   0  0  0  0  0  0  0  0  0  0  0  0
   -6.0832   -2.7009    3.6443 C   0  0  0  0  0  0  0  0  0  0  0  0
   -6.0725   -4.1887    3.7273 C   0  0  0  0  0  0  0  0  0  0  0  0
   -6.8278   -5.2745    4.1813 C   0  0  0  0  0  0  0  0  0  0  0  0
   -8.1445   -5.1643    4.7955 C   0  0  0  0  0  0  0  0  0  0  0  0
   -8.6395   -6.0426    5.7380 C   0  0  0  0  0  0  0  0  0  0  0  0
  -10.2170   -5.6263    6.2193 S   0  0  0  0  0  0  0  0  0  0  0  0
  -10.2621   -4.2698    5.1611 C   0  0  0  0  0  0  0  0  0  0  0  0
  -11.4901   -3.4178    5.1537 C   0  0  0  0  0  0  0  0  0  0  0  0
  -12.1068   -3.4059    3.8268 N   0  0  0  0  0  0  0  0  0  0  0  0
  -13.5137   -2.4569    3.7565 S   0  0  0  0  0  0  0  0  0  0  0  0
  -14.2754   -2.9235    2.6256 O   0  0  0  0  0  0  0  0  0  0  0  0
  -14.0756   -2.4224    5.0907 O   0  0  0  0  0  0  0  0  0  0  0  0
  -12.9062   -0.8398    3.3596 C   0  0  0  0  0  0  0  0  0  0  0  0
  -12.2119   -0.6449    2.1618 C   0  0  0  0  0  0  0  0  0  0  0  0
  -11.7764    0.6365    1.8220 C   0  0  0  0  0  0  0  0  0  0  0  0
  -12.0497    1.7154    2.6648 C   0  0  0  0  0  0  0  0  0  0  0  0
  -12.7558    1.5181    3.8534 C   0  0  0  0  0  0  0  0  0  0  0  0
  -13.1800    0.2374    4.2090 C   0  0  0  0  0  0  0  0  0  0  0  0
   -9.0681   -4.1257    4.4794 C   0  0  0  0  0  0  0  0  0  0  0  0
   -6.1882   -6.4393    3.9959 N   0  0  0  0  0  0  0  0  0  0  0  0
   -5.0198   -6.0934    3.3903 N   0  0  0  0  0  0  0  0  0  0  0  0
   -4.9298   -4.7598    3.2486 C   0  0  0  0  0  0  0  0  0  0  0  0
   -1.4883    1.4633   -0.1107 C   0  0  0  0  0  0  0  0  0  0  0  0
    0.0594    1.3107   -0.1983 C   0  0  0  0  0  0  0  0  0  0  0  0
    2.2065   -0.8110   -1.7359 H   0  0  0  0  0  0  0  0  0  0  0  0
    2.3087   -0.2000   -0.0727 H   0  0  0  0  0  0  0  0  0  0  0  0
    2.4250    0.9101   -1.4577 H   0  0  0  0  0  0  0  0  0  0  0  0
    0.0962   -1.3524    0.3006 H   0  0  0  0  0  0  0  0  0  0  0  0
    0.0309   -1.8433   -1.3884 H   0  0  0  0  0  0  0  0  0  0  0  0
   -2.2922   -1.7564   -0.6171 H   0  0  0  0  0  0  0  0  0  0  0  0
   -2.0222   -0.4825   -1.7563 H   0  0  0  0  0  0  0  0  0  0  0  0
   -2.4573    0.6929    2.2376 H   0  0  0  0  0  0  0  0  0  0  0  0
   -1.0044   -0.2182    1.9266 H   0  0  0  0  0  0  0  0  0  0  0  0
   -1.0787   -2.7053    1.6835 H   0  0  0  0  0  0  0  0  0  0  0  0
   -2.2482   -4.8083    2.1906 H   0  0  0  0  0  0  0  0  0  0  0  0
   -4.5944   -0.3937    2.7328 H   0  0  0  0  0  0  0  0  0  0  0  0
   -6.8746   -2.3188    2.9966 H   0  0  0  0  0  0  0  0  0  0  0  0
   -6.1023   -2.2432    4.6366 H   0  0  0  0  0  0  0  0  0  0  0  0
   -8.1423   -6.8998    6.1658 H   0  0  0  0  0  0  0  0  0  0  0  0
  -11.2440   -2.3987    5.4682 H   0  0  0  0  0  0  0  0  0  0  0  0
  -12.2190   -3.8449    5.8529 H   0  0  0  0  0  0  0  0  0  0  0  0
  -12.3105   -4.3319    3.4442 H   0  0  0  0  0  0  0  0  0  0  0  0
  -12.0270   -1.4776    1.4893 H   0  0  0  0  0  0  0  0  0  0  0  0
  -11.2392    0.7979    0.8902 H   0  0  0  0  0  0  0  0  0  0  0  0
  -11.7221    2.7151    2.3881 H   0  0  0  0  0  0  0  0  0  0  0  0
  -12.9862    2.3668    4.4936 H   0  0  0  0  0  0  0  0  0  0  0  0
  -13.7400    0.0948    5.1320 H   0  0  0  0  0  0  0  0  0  0  0  0
   -8.8827   -3.3289    3.7719 H   0  0  0  0  0  0  0  0  0  0  0  0
   -4.3618   -6.8169    3.1273 H   0  0  0  0  0  0  0  0  0  0  0  0
   -1.7435    2.2558    0.6030 H   0  0  0  0  0  0  0  0  0  0  0  0
   -1.8488    1.8227   -1.0848 H   0  0  0  0  0  0  0  0  0  0  0  0
    0.4629    1.1655    0.8118 H   0  0  0  0  0  0  0  0  0  0  0  0
    0.4744    2.2516   -0.5789 H   0  0  0  0  0  0  0  0  0  0  0  0
  1  2  1  0  0  0  0
  1 37  1  0  0  0  0
  1 38  1  0  0  0  0
  1 39  1  0  0  0  0
  2  3  1  0  0  0  0
  2 36  1  0  0  0  0
  3  4  1  0  0  0  0
  3 40  1  0  0  0  0
  3 41  1  0  0  0  0
  4  5  1  0  0  0  0
  4 42  1  0  0  0  0
  4 43  1  0  0  0  0
  5  6  1  0  0  0  0
  5 35  1  0  0  0  0
  6  7  1  0  0  0  0
  6 44  1  0  0  0  0
  6 45  1  0  0  0  0
  7  8  1  0  0  0  0
  7 12  2  0  0  0  0
  8  9  2  0  0  0  0
  8 46  1  0  0  0  0
  9 10  1  0  0  0  0
  9 47  1  0  0  0  0
 10 11  2  0  0  0  0
 10 34  1  0  0  0  0
 11 12  1  0  0  0  0
 11 13  1  0  0  0  0
 12 48  1  0  0  0  0
 13 14  1  0  0  0  0
 13 49  1  0  0  0  0
 13 50  1  0  0  0  0
 14 15  1  0  0  0  0
 14 34  2  0  0  0  0
 15 16  1  0  0  0  0
 15 32  2  0  0  0  0
 16 17  2  0  0  0  0
 16 31  1  0  0  0  0
 17 18  1  0  0  0  0
 17 51  1  0  0  0  0
 18 19  1  0  0  0  0
 19 20  1  0  0  0  0
 19 31  2  0  0  0  0
 20 21  1  0  0  0  0
 20 52  1  0  0  0  0
 20 53  1  0  0  0  0
 21 22  1  0  0  0  0
 21 54  1  0  0  0  0
 22 23  2  0  0  0  0
 22 24  2  0  0  0  0
 22 25  1  0  0  0  0
 25 26  1  0  0  0  0
 25 30  2  0  0  0  0
 26 27  2  0  0  0  0
 26 55  1  0  0  0  0
 27 28  1  0  0  0  0
 27 56  1  0  0  0  0
 28 29  2  0  0  0  0
 28 57  1  0  0  0  0
 29 30  1  0  0  0  0
 29 58  1  0  0  0  0
 30 59  1  0  0  0  0
 31 60  1  0  0  0  0
 32 33  1  0  0  0  0
 33 34  1  0  0  0  0
 33 61  1  0  0  0  0
 35 36  1  0  0  0  0
 35 62  1  0  0  0  0
 35 63  1  0  0  0  0
 36 64  1  0  0  0  0
 36 65  1  0  0  0  0
M  END
$$$$
