CHEMBL3977258
 OpenBabel04072215373D

 54 57  0  0  0  0  0  0  0  0999 V2000
   -3.5963   -8.5600   -0.5611 C   0  0  0  0  0  0  0  0  0  0  0  0
   -2.2888   -9.0775   -1.1431 C   0  0  0  0  0  0  0  0  0  0  0  0
   -1.8432  -10.0592   -0.2991 F   0  0  0  0  0  0  0  0  0  0  0  0
   -2.5644   -9.7324   -2.3060 F   0  0  0  0  0  0  0  0  0  0  0  0
   -1.2835   -7.9567   -1.2905 C   0  0  0  0  0  0  0  0  0  0  0  0
   -0.4291   -7.6951   -0.1999 C   0  0  0  0  0  0  0  0  0  0  0  0
    0.5152   -6.6619   -0.2217 C   0  0  0  0  0  0  0  0  0  0  0  0
    1.3671   -6.4060    0.8761 N   0  0  0  0  0  0  0  0  0  0  0  0
    1.7203   -7.3596    1.8182 C   0  0  0  0  0  0  0  0  0  0  0  0
    1.5016   -8.5615    1.7056 O   0  0  0  0  0  0  0  0  0  0  0  0
    2.3285   -6.7923    2.9234 N   0  0  0  0  0  0  0  0  0  0  0  0
    2.8079   -7.5762    4.0031 C   0  0  0  0  0  0  0  0  0  0  0  0
    3.4375   -8.8109    3.8175 C   0  0  0  0  0  0  0  0  0  0  0  0
    3.9066   -9.5372    4.9195 C   0  0  0  0  0  0  0  0  0  0  0  0
    3.7359   -9.0450    6.2172 C   0  0  0  0  0  0  0  0  0  0  0  0
    4.3054   -9.7798    7.2376 O   0  0  0  0  0  0  0  0  0  0  0  0
    3.6433   -9.8484    8.4581 C   0  0  0  0  0  0  0  0  0  0  0  0
    4.4137  -10.1159    9.5749 C   0  0  0  0  0  0  0  0  0  0  0  0
    3.7261  -10.2161   10.7658 C   0  0  0  0  0  0  0  0  0  0  0  0
    4.4335  -10.5224   11.9455 N   0  0  0  0  0  0  0  0  0  0  0  0
    3.8132  -10.7036   13.1718 C   0  0  0  0  0  0  0  0  0  0  0  0
    2.6274  -10.5728   13.4248 O   0  0  0  0  0  0  0  0  0  0  0  0
    4.7366  -11.1038   14.2838 C   0  0  0  0  0  0  0  0  0  0  0  0
    4.2391  -12.0837   15.3291 C   0  0  0  0  0  0  0  0  0  0  0  0
    4.4338  -10.6419   15.6954 C   0  0  0  0  0  0  0  0  0  0  0  0
    2.3987  -10.0481   10.8232 N   0  0  0  0  0  0  0  0  0  0  0  0
    1.7480   -9.8131    9.6858 C   0  0  0  0  0  0  0  0  0  0  0  0
    2.3058   -9.7148    8.4815 N   0  0  0  0  0  0  0  0  0  0  0  0
    3.1113   -7.8097    6.4065 C   0  0  0  0  0  0  0  0  0  0  0  0
    2.6585   -7.0892    5.3035 C   0  0  0  0  0  0  0  0  0  0  0  0
    2.0367   -5.9160    5.5023 F   0  0  0  0  0  0  0  0  0  0  0  0
    0.5897   -5.8471   -1.3491 C   0  0  0  0  0  0  0  0  0  0  0  0
   -0.2461   -6.0924   -2.4461 C   0  0  0  0  0  0  0  0  0  0  0  0
   -1.1790   -7.1368   -2.4168 C   0  0  0  0  0  0  0  0  0  0  0  0
   -2.1924   -7.3257   -3.8019 Cl  0  0  0  0  0  0  0  0  0  0  0  0
   -4.3232   -9.3754   -0.4910 H   0  0  0  0  0  0  0  0  0  0  0  0
   -4.0355   -7.7738   -1.1827 H   0  0  0  0  0  0  0  0  0  0  0  0
   -3.4483   -8.1647    0.4501 H   0  0  0  0  0  0  0  0  0  0  0  0
   -0.5342   -8.3199    0.6859 H   0  0  0  0  0  0  0  0  0  0  0  0
    1.9744   -5.6007    0.8227 H   0  0  0  0  0  0  0  0  0  0  0  0
    1.9874   -5.8723    3.1757 H   0  0  0  0  0  0  0  0  0  0  0  0
    3.5844   -9.2185    2.8198 H   0  0  0  0  0  0  0  0  0  0  0  0
    4.4003  -10.4929    4.7567 H   0  0  0  0  0  0  0  0  0  0  0  0
    5.4845  -10.2375    9.4959 H   0  0  0  0  0  0  0  0  0  0  0  0
    5.4300  -10.6564   11.8825 H   0  0  0  0  0  0  0  0  0  0  0  0
    5.7869  -11.1849   14.0251 H   0  0  0  0  0  0  0  0  0  0  0  0
    4.9326  -12.8081   15.7383 H   0  0  0  0  0  0  0  0  0  0  0  0
    3.2184  -12.4477   15.2499 H   0  0  0  0  0  0  0  0  0  0  0  0
    5.2605  -10.3921   16.3492 H   0  0  0  0  0  0  0  0  0  0  0  0
    3.5440  -10.0416   15.8591 H   0  0  0  0  0  0  0  0  0  0  0  0
    0.6713   -9.6873    9.7531 H   0  0  0  0  0  0  0  0  0  0  0  0
    2.9557   -7.3977    7.3971 H   0  0  0  0  0  0  0  0  0  0  0  0
    1.3029   -5.0292   -1.4066 H   0  0  0  0  0  0  0  0  0  0  0  0
   -0.1652   -5.4599   -3.3278 H   0  0  0  0  0  0  0  0  0  0  0  0
  1  2  1  0  0  0  0
  1 36  1  0  0  0  0
  1 37  1  0  0  0  0
  1 38  1  0  0  0  0
  2  3  1  0  0  0  0
  2  4  1  0  0  0  0
  2  5  1  0  0  0  0
  5  6  1  0  0  0  0
  5 34  2  0  0  0  0
  6  7  2  0  0  0  0
  6 39  1  0  0  0  0
  7  8  1  0  0  0  0
  7 32  1  0  0  0  0
  8  9  1  0  0  0  0
  8 40  1  0  0  0  0
  9 10  2  0  0  0  0
  9 11  1  0  0  0  0
 11 12  1  0  0  0  0
 11 41  1  0  0  0  0
 12 13  1  0  0  0  0
 12 30  2  0  0  0  0
 13 14  2  0  0  0  0
 13 42  1  0  0  0  0
 14 15  1  0  0  0  0
 14 43  1  0  0  0  0
 15 16  1  0  0  0  0
 15 29  2  0  0  0  0
 16 17  1  0  0  0  0
 17 18  1  0  0  0  0
 17 28  2  0  0  0  0
 18 19  2  0  0  0  0
 18 44  1  0  0  0  0
 19 20  1  0  0  0  0
 19 26  1  0  0  0  0
 20 21  1  0  0  0  0
 20 45  1  0  0  0  0
 21 22  2  0  0  0  0
 21 23  1  0  0  0  0
 23 24  1  0  0  0  0
 23 25  1  0  0  0  0
 23 46  1  0  0  0  0
 24 25  1  0  0  0  0
 24 47  1  0  0  0  0
 24 48  1  0  0  0  0
 25 49  1  0  0  0  0
 25 50  1  0  0  0  0
 26 27  2  0  0  0  0
 27 28  1  0  0  0  0
 27 51  1  0  0  0  0
 29 30  1  0  0  0  0
 29 52  1  0  0  0  0
 30 31  1  0  0  0  0
 32 33  2  0  0  0  0
 32 53  1  0  0  0  0
 33 34  1  0  0  0  0
 33 54  1  0  0  0  0
 34 35  1  0  0  0  0
M  END
$$$$
