CHEMBL198297
 OpenBabel04072215363D

 54 57  0  0  0  0  0  0  0  0999 V2000
    2.3761   -0.4441    1.5151 C   0  0  0  0  0  0  0  0  0  0  0  0
    0.8843   -0.3219    1.5018 C   0  0  0  0  0  0  0  0  0  0  0  0
    0.2789    0.8604    1.9317 C   0  0  0  0  0  0  0  0  0  0  0  0
   -1.1056    0.9795    1.9235 C   0  0  0  0  0  0  0  0  0  0  0  0
   -1.8951   -0.0874    1.4937 C   0  0  0  0  0  0  0  0  0  0  0  0
   -1.3213   -1.2831    1.0439 C   0  0  0  0  0  0  0  0  0  0  0  0
   -2.0855   -2.3946    0.5951 N   0  0  0  0  0  0  0  0  0  0  0  0
   -3.4545   -2.3947    0.4066 C   0  0  0  0  0  0  0  0  0  0  0  0
   -4.1683   -1.4011    0.5149 O   0  0  0  0  0  0  0  0  0  0  0  0
   -3.9621   -3.6568    0.1065 N   0  0  0  0  0  0  0  0  0  0  0  0
   -5.3558   -3.8187   -0.1122 C   0  0  0  0  0  0  0  0  0  0  0  0
   -6.0882   -2.8453   -0.7908 C   0  0  0  0  0  0  0  0  0  0  0  0
   -7.4825   -2.8644   -0.7795 C   0  0  0  0  0  0  0  0  0  0  0  0
   -8.1898   -3.9217   -0.1989 C   0  0  0  0  0  0  0  0  0  0  0  0
   -9.6683   -3.9099   -0.1515 C   0  0  0  0  0  0  0  0  0  0  0  0
  -10.4408   -3.5068   -1.2500 C   0  0  0  0  0  0  0  0  0  0  0  0
  -10.0808   -3.0369   -2.6438 C   0  0  0  0  0  0  0  0  0  0  0  0
   -9.2805   -4.0452   -3.4617 C   0  0  0  0  0  0  0  0  0  0  0  0
  -10.0635   -5.3154   -3.7617 C   0  0  0  0  0  0  0  0  0  0  0  0
   -9.2592   -6.1997   -4.5324 O   0  0  0  0  0  0  0  0  0  0  0  0
  -12.1210   -3.5617   -0.9019 S   0  0  0  0  0  0  0  0  0  0  0  0
  -11.8634   -4.1371    0.6636 C   0  0  0  0  0  0  0  0  0  0  0  0
  -12.9288   -4.3895    1.4416 N   0  0  0  0  0  0  0  0  0  0  0  0
  -12.5871   -4.8344    2.6453 C   0  0  0  0  0  0  0  0  0  0  0  0
  -11.3480   -5.0151    3.1183 N   0  0  0  0  0  0  0  0  0  0  0  0
  -10.3060   -4.7393    2.3142 C   0  0  0  0  0  0  0  0  0  0  0  0
   -9.0636   -4.9221    2.9136 N   0  0  0  0  0  0  0  0  0  0  0  0
  -10.5232   -4.2848    0.9901 C   0  0  0  0  0  0  0  0  0  0  0  0
   -7.4379   -4.9714    0.3535 C   0  0  0  0  0  0  0  0  0  0  0  0
   -6.0323   -4.9123    0.4230 C   0  0  0  0  0  0  0  0  0  0  0  0
    0.0772   -1.3913    1.0583 C   0  0  0  0  0  0  0  0  0  0  0  0
    2.8430    0.4665    1.9071 H   0  0  0  0  0  0  0  0  0  0  0  0
    2.7573   -0.6031    0.5018 H   0  0  0  0  0  0  0  0  0  0  0  0
    2.6828   -1.2750    2.1576 H   0  0  0  0  0  0  0  0  0  0  0  0
    0.8759    1.7036    2.2645 H   0  0  0  0  0  0  0  0  0  0  0  0
   -1.5813    1.8988    2.2574 H   0  0  0  0  0  0  0  0  0  0  0  0
   -2.9686    0.0639    1.5271 H   0  0  0  0  0  0  0  0  0  0  0  0
   -1.5772   -3.1943    0.2500 H   0  0  0  0  0  0  0  0  0  0  0  0
   -3.4760   -4.4306    0.5360 H   0  0  0  0  0  0  0  0  0  0  0  0
   -5.5863   -2.0168   -1.2862 H   0  0  0  0  0  0  0  0  0  0  0  0
   -7.9863   -2.0104   -1.2173 H   0  0  0  0  0  0  0  0  0  0  0  0
   -9.5388   -2.0875   -2.5826 H   0  0  0  0  0  0  0  0  0  0  0  0
  -10.9882   -2.7880   -3.2119 H   0  0  0  0  0  0  0  0  0  0  0  0
   -8.3365   -4.3113   -2.9770 H   0  0  0  0  0  0  0  0  0  0  0  0
   -8.9898   -3.5740   -4.4097 H   0  0  0  0  0  0  0  0  0  0  0  0
  -10.9753   -5.0939   -4.3254 H   0  0  0  0  0  0  0  0  0  0  0  0
  -10.3437   -5.8386   -2.8430 H   0  0  0  0  0  0  0  0  0  0  0  0
   -8.9629   -5.7175   -5.3227 H   0  0  0  0  0  0  0  0  0  0  0  0
  -13.4020   -5.0658    3.3238 H   0  0  0  0  0  0  0  0  0  0  0  0
   -9.1935   -5.0567    3.9126 H   0  0  0  0  0  0  0  0  0  0  0  0
   -8.3798   -4.2202    2.6616 H   0  0  0  0  0  0  0  0  0  0  0  0
   -7.9365   -5.8330    0.7942 H   0  0  0  0  0  0  0  0  0  0  0  0
   -5.5012   -5.6915    0.9624 H   0  0  0  0  0  0  0  0  0  0  0  0
    0.5574   -2.3075    0.7167 H   0  0  0  0  0  0  0  0  0  0  0  0
  1  2  1  0  0  0  0
  1 32  1  0  0  0  0
  1 33  1  0  0  0  0
  1 34  1  0  0  0  0
  2  3  1  0  0  0  0
  2 31  2  0  0  0  0
  3  4  2  0  0  0  0
  3 35  1  0  0  0  0
  4  5  1  0  0  0  0
  4 36  1  0  0  0  0
  5  6  2  0  0  0  0
  5 37  1  0  0  0  0
  6  7  1  0  0  0  0
  6 31  1  0  0  0  0
  7  8  1  0  0  0  0
  7 38  1  0  0  0  0
  8  9  2  0  0  0  0
  8 10  1  0  0  0  0
 10 11  1  0  0  0  0
 10 39  1  0  0  0  0
 11 12  1  0  0  0  0
 11 30  2  0  0  0  0
 12 13  2  0  0  0  0
 12 40  1  0  0  0  0
 13 14  1  0  0  0  0
 13 41  1  0  0  0  0
 14 15  1  0  0  0  0
 14 29  2  0  0  0  0
 15 16  2  0  0  0  0
 15 28  1  0  0  0  0
 16 17  1  0  0  0  0
 16 21  1  0  0  0  0
 17 18  1  0  0  0  0
 17 42  1  0  0  0  0
 17 43  1  0  0  0  0
 18 19  1  0  0  0  0
 18 44  1  0  0  0  0
 18 45  1  0  0  0  0
 19 20  1  0  0  0  0
 19 46  1  0  0  0  0
 19 47  1  0  0  0  0
 20 48  1  0  0  0  0
 21 22  1  0  0  0  0
 22 23  1  0  0  0  0
 22 28  2  0  0  0  0
 23 24  2  0  0  0  0
 24 25  1  0  0  0  0
 24 49  1  0  0  0  0
 25 26  2  0  0  0  0
 26 27  1  0  0  0  0
 26 28  1  0  0  0  0
 27 50  1  0  0  0  0
 27 51  1  0  0  0  0
 29 30  1  0  0  0  0
 29 52  1  0  0  0  0
 30 53  1  0  0  0  0
 31 54  1  0  0  0  0
M  END
$$$$
