CHEMBL2204533
 OpenBabel04072215363D

 61 65  0  0  0  0  0  0  0  0999 V2000
    0.8777    3.8177   -3.9906 C   0  0  0  0  0  0  0  0  0  0  0  0
   -0.5356    3.7711   -3.3626 C   0  0  0  0  0  0  0  0  0  0  0  0
   -1.5039    4.3945   -4.3893 C   0  0  0  0  0  0  0  0  0  0  0  0
   -0.6235    4.6582   -2.1842 C   0  0  0  0  0  0  0  0  0  0  0  0
   -0.6705    5.4174   -1.2976 N   0  0  0  0  0  0  0  0  0  0  0  0
   -1.0466    2.4220   -3.0847 O   0  0  0  0  0  0  0  0  0  0  0  0
   -0.1599    1.4223   -2.7687 C   0  0  0  0  0  0  0  0  0  0  0  0
   -0.4407    0.1506   -3.2875 C   0  0  0  0  0  0  0  0  0  0  0  0
    0.4897   -0.8834   -3.1452 C   0  0  0  0  0  0  0  0  0  0  0  0
    1.7493   -0.6049   -2.6159 C   0  0  0  0  0  0  0  0  0  0  0  0
    2.0232    0.6575   -2.0835 C   0  0  0  0  0  0  0  0  0  0  0  0
    3.4091    0.9420   -1.6144 C   0  0  0  0  0  0  0  0  0  0  0  0
    4.0497   -0.0168   -1.2241 O   0  0  0  0  0  0  0  0  0  0  0  0
    3.8724    2.2623   -1.6861 N   0  0  0  0  0  0  0  0  0  0  0  0
    5.1906    2.6710   -1.3567 C   0  0  0  0  0  0  0  0  0  0  0  0
    6.2607    1.7663   -1.2881 C   0  0  0  0  0  0  0  0  0  0  0  0
    7.5527    2.1850   -0.9633 C   0  0  0  0  0  0  0  0  0  0  0  0
    8.6017    1.2351   -0.8751 N   0  0  0  0  0  0  0  0  0  0  0  0
    9.7396    1.3351   -0.0317 C   0  0  0  0  0  0  0  0  0  0  0  0
    9.5755    1.9855    1.1978 C   0  0  0  0  0  0  0  0  0  0  0  0
   10.6716    2.2892    1.9861 C   0  0  0  0  0  0  0  0  0  0  0  0
   11.9139    1.8414    1.5477 C   0  0  0  0  0  0  0  0  0  0  0  0
   13.1119    2.0620    2.1724 N   0  0  0  0  0  0  0  0  0  0  0  0
   14.0665    1.4596    1.5180 C   0  0  0  0  0  0  0  0  0  0  0  0
   15.3986    1.4420    1.8598 N   0  0  0  0  0  0  0  0  0  0  0  0
   15.8861    2.3647    2.7670 C   0  0  0  0  0  0  0  0  0  0  0  0
   15.2617    3.2854    3.2775 O   0  0  0  0  0  0  0  0  0  0  0  0
   17.3347    2.2770    3.1247 C   0  0  0  0  0  0  0  0  0  0  0  0
   18.3870    2.5187    2.0669 C   0  0  0  0  0  0  0  0  0  0  0  0
   18.2964    1.1832    2.7475 C   0  0  0  0  0  0  0  0  0  0  0  0
   13.5924    0.5973    0.1119 S   0  0  0  0  0  0  0  0  0  0  0  0
   11.9647    1.1049    0.3677 C   0  0  0  0  0  0  0  0  0  0  0  0
   10.9243    0.8262   -0.4605 N   0  0  0  0  0  0  0  0  0  0  0  0
    7.7740    3.5531   -0.7548 C   0  0  0  0  0  0  0  0  0  0  0  0
    6.7261    4.4724   -0.7865 C   0  0  0  0  0  0  0  0  0  0  0  0
    5.4445    4.0283   -1.0945 C   0  0  0  0  0  0  0  0  0  0  0  0
    4.4419    4.9208   -1.1111 F   0  0  0  0  0  0  0  0  0  0  0  0
    0.9903    1.5791   -1.9855 C   0  0  0  0  0  0  0  0  0  0  0  0
    1.0741    2.7477   -0.7127 Cl  0  0  0  0  0  0  0  0  0  0  0  0
    1.2142    4.8468   -4.1540 H   0  0  0  0  0  0  0  0  0  0  0  0
    0.9197    3.2624   -4.9323 H   0  0  0  0  0  0  0  0  0  0  0  0
    1.6553    3.3867   -3.3634 H   0  0  0  0  0  0  0  0  0  0  0  0
   -1.2519    5.4478   -4.5709 H   0  0  0  0  0  0  0  0  0  0  0  0
   -2.5375    4.3596   -4.0266 H   0  0  0  0  0  0  0  0  0  0  0  0
   -1.4742    3.8656   -5.3462 H   0  0  0  0  0  0  0  0  0  0  0  0
   -1.3893   -0.0551   -3.7819 H   0  0  0  0  0  0  0  0  0  0  0  0
    0.2539   -1.8956   -3.4689 H   0  0  0  0  0  0  0  0  0  0  0  0
    2.5067   -1.3872   -2.5754 H   0  0  0  0  0  0  0  0  0  0  0  0
    3.2171    3.0180   -1.8512 H   0  0  0  0  0  0  0  0  0  0  0  0
    6.0989    0.7084   -1.4659 H   0  0  0  0  0  0  0  0  0  0  0  0
    8.8819    0.8593   -1.7760 H   0  0  0  0  0  0  0  0  0  0  0  0
    8.5965    2.3299    1.5162 H   0  0  0  0  0  0  0  0  0  0  0  0
   10.5774    2.8713    2.8943 H   0  0  0  0  0  0  0  0  0  0  0  0
   16.0032    0.7821    1.4019 H   0  0  0  0  0  0  0  0  0  0  0  0
   17.5285    2.7533    4.0859 H   0  0  0  0  0  0  0  0  0  0  0  0
   19.2114    3.1747    2.3269 H   0  0  0  0  0  0  0  0  0  0  0  0
   18.0804    2.5898    1.0303 H   0  0  0  0  0  0  0  0  0  0  0  0
   19.0719    0.9371    3.4678 H   0  0  0  0  0  0  0  0  0  0  0  0
   17.9712    0.3334    2.1648 H   0  0  0  0  0  0  0  0  0  0  0  0
    8.7756    3.9144   -0.5339 H   0  0  0  0  0  0  0  0  0  0  0  0
    6.9124    5.5180   -0.5639 H   0  0  0  0  0  0  0  0  0  0  0  0
  1  2  1  0  0  0  0
  1 40  1  0  0  0  0
  1 41  1  0  0  0  0
  1 42  1  0  0  0  0
  2  3  1  0  0  0  0
  2  4  1  0  0  0  0
  2  6  1  0  0  0  0
  3 43  1  0  0  0  0
  3 44  1  0  0  0  0
  3 45  1  0  0  0  0
  4  5  3  0  0  0  0
  6  7  1  0  0  0  0
  7  8  1  0  0  0  0
  7 38  2  0  0  0  0
  8  9  2  0  0  0  0
  8 46  1  0  0  0  0
  9 10  1  0  0  0  0
  9 47  1  0  0  0  0
 10 11  2  0  0  0  0
 10 48  1  0  0  0  0
 11 12  1  0  0  0  0
 11 38  1  0  0  0  0
 12 13  2  0  0  0  0
 12 14  1  0  0  0  0
 14 15  1  0  0  0  0
 14 49  1  0  0  0  0
 15 16  1  0  0  0  0
 15 36  2  0  0  0  0
 16 17  2  0  0  0  0
 16 50  1  0  0  0  0
 17 18  1  0  0  0  0
 17 34  1  0  0  0  0
 18 19  1  0  0  0  0
 18 51  1  0  0  0  0
 19 20  1  0  0  0  0
 19 33  2  0  0  0  0
 20 21  2  0  0  0  0
 20 52  1  0  0  0  0
 21 22  1  0  0  0  0
 21 53  1  0  0  0  0
 22 23  1  0  0  0  0
 22 32  2  0  0  0  0
 23 24  2  0  0  0  0
 24 25  1  0  0  0  0
 24 31  1  0  0  0  0
 25 26  1  0  0  0  0
 25 54  1  0  0  0  0
 26 27  2  0  0  0  0
 26 28  1  0  0  0  0
 28 29  1  0  0  0  0
 28 30  1  0  0  0  0
 28 55  1  0  0  0  0
 29 30  1  0  0  0  0
 29 56  1  0  0  0  0
 29 57  1  0  0  0  0
 30 58  1  0  0  0  0
 30 59  1  0  0  0  0
 31 32  1  0  0  0  0
 32 33  1  0  0  0  0
 34 35  2  0  0  0  0
 34 60  1  0  0  0  0
 35 36  1  0  0  0  0
 35 61  1  0  0  0  0
 36 37  1  0  0  0  0
 38 39  1  0  0  0  0
M  END
$$$$
