CHEMBL2086752
 OpenBabel04072215363D

 68 73  0  0  0  0  0  0  0  0999 V2000
    3.8406    3.2591    9.0805 C   0  0  0  0  0  0  0  0  0  0  0  0
    3.6926    2.8640    7.7184 O   0  0  0  0  0  0  0  0  0  0  0  0
    4.2503    3.8626    6.8625 C   0  0  0  0  0  0  0  0  0  0  0  0
    4.1938    3.4331    5.3875 C   0  0  0  0  0  0  0  0  0  0  0  0
    4.7002    4.4845    4.4770 N   0  0  0  0  0  0  0  0  0  0  0  0
    6.1180    4.7775    4.7458 C   0  0  0  0  0  0  0  0  0  0  0  0
    6.6151    5.9056    3.8533 C   0  0  0  0  0  0  0  0  0  0  0  0
    6.5005    5.5202    2.3786 C   0  0  0  0  0  0  0  0  0  0  0  0
    7.3863    4.3839    2.0364 N   0  0  0  0  0  0  0  0  0  0  0  0
    8.7696    4.4856    2.2664 C   0  0  0  0  0  0  0  0  0  0  0  0
    9.4643    5.7070    2.1753 C   0  0  0  0  0  0  0  0  0  0  0  0
   10.8356    5.7805    2.4182 C   0  0  0  0  0  0  0  0  0  0  0  0
   11.4917    4.6031    2.7102 C   0  0  0  0  0  0  0  0  0  0  0  0
   10.8634    3.3550    2.7544 C   0  0  0  0  0  0  0  0  0  0  0  0
    9.4945    3.2981    2.5169 C   0  0  0  0  0  0  0  0  0  0  0  0
   11.9353    2.3662    3.0642 C   0  0  0  0  0  0  0  0  0  0  0  0
   11.8977    1.0157    3.1851 C   0  0  0  0  0  0  0  0  0  0  0  0
   10.6495    0.2720    2.9135 C   0  0  0  0  0  0  0  0  0  0  0  0
   10.3520   -0.1119    1.5965 C   0  0  0  0  0  0  0  0  0  0  0  0
    9.2235   -0.8831    1.3276 C   0  0  0  0  0  0  0  0  0  0  0  0
    8.3834   -1.2684    2.3702 C   0  0  0  0  0  0  0  0  0  0  0  0
    8.6676   -0.8813    3.6810 C   0  0  0  0  0  0  0  0  0  0  0  0
    9.8023   -0.1163    3.9563 C   0  0  0  0  0  0  0  0  0  0  0  0
   13.0940    0.2660    3.4417 C   0  0  0  0  0  0  0  0  0  0  0  0
   13.6619   -0.1685    4.5539 N   0  0  0  0  0  0  0  0  0  0  0  0
   14.7986   -0.8475    4.1517 C   0  0  0  0  0  0  0  0  0  0  0  0
   15.8091   -1.4773    4.8990 C   0  0  0  0  0  0  0  0  0  0  0  0
   16.8916   -2.0617    4.2195 C   0  0  0  0  0  0  0  0  0  0  0  0
   16.9590   -2.0440    2.8246 C   0  0  0  0  0  0  0  0  0  0  0  0
   15.9439   -1.4602    2.0622 C   0  0  0  0  0  0  0  0  0  0  0  0
   14.8932   -0.8702    2.7652 C   0  0  0  0  0  0  0  0  0  0  0  0
   13.7747   -0.2049    2.3443 N   0  0  0  0  0  0  0  0  0  0  0  0
   13.2162    3.1757    3.1755 C   0  0  0  0  0  0  0  0  0  0  0  0
   14.3645    2.7930    3.3236 O   0  0  0  0  0  0  0  0  0  0  0  0
   12.8473    4.4879    2.9716 N   0  0  0  0  0  0  0  0  0  0  0  0
    5.0376    5.1462    2.1007 C   0  0  0  0  0  0  0  0  0  0  0  0
    4.5176    4.0796    3.0720 C   0  0  0  0  0  0  0  0  0  0  0  0
    3.4278    2.4769    9.7209 H   0  0  0  0  0  0  0  0  0  0  0  0
    3.2991    4.1925    9.2648 H   0  0  0  0  0  0  0  0  0  0  0  0
    4.8997    3.3909    9.3287 H   0  0  0  0  0  0  0  0  0  0  0  0
    5.2882    4.0156    7.1727 H   0  0  0  0  0  0  0  0  0  0  0  0
    3.6958    4.7992    6.9942 H   0  0  0  0  0  0  0  0  0  0  0  0
    3.1477    3.2058    5.1428 H   0  0  0  0  0  0  0  0  0  0  0  0
    4.7447    2.4917    5.2558 H   0  0  0  0  0  0  0  0  0  0  0  0
    6.7356    3.8780    4.6257 H   0  0  0  0  0  0  0  0  0  0  0  0
    6.2563    5.1279    5.7722 H   0  0  0  0  0  0  0  0  0  0  0  0
    7.6398    6.1629    4.1382 H   0  0  0  0  0  0  0  0  0  0  0  0
    6.0160    6.8070    4.0432 H   0  0  0  0  0  0  0  0  0  0  0  0
    6.7499    6.3809    1.7468 H   0  0  0  0  0  0  0  0  0  0  0  0
    7.2293    4.0614    1.0815 H   0  0  0  0  0  0  0  0  0  0  0  0
    8.9414    6.6269    1.9338 H   0  0  0  0  0  0  0  0  0  0  0  0
   11.3537    6.7308    2.3727 H   0  0  0  0  0  0  0  0  0  0  0  0
    8.9518    2.3598    2.5590 H   0  0  0  0  0  0  0  0  0  0  0  0
   11.0030    0.1774    0.7757 H   0  0  0  0  0  0  0  0  0  0  0  0
    9.0073   -1.1920    0.3085 H   0  0  0  0  0  0  0  0  0  0  0  0
    7.5093   -1.8801    2.1628 H   0  0  0  0  0  0  0  0  0  0  0  0
    8.0124   -1.1892    4.4921 H   0  0  0  0  0  0  0  0  0  0  0  0
   10.0301    0.1605    4.9837 H   0  0  0  0  0  0  0  0  0  0  0  0
   15.7601   -1.4933    5.9817 H   0  0  0  0  0  0  0  0  0  0  0  0
   17.6944   -2.5275    4.7870 H   0  0  0  0  0  0  0  0  0  0  0  0
   17.8159   -2.4859    2.3199 H   0  0  0  0  0  0  0  0  0  0  0  0
   15.9869   -1.4479    0.9787 H   0  0  0  0  0  0  0  0  0  0  0  0
   13.5070   -0.0592    1.3851 H   0  0  0  0  0  0  0  0  0  0  0  0
   13.5193    5.2421    2.9729 H   0  0  0  0  0  0  0  0  0  0  0  0
    4.9168    4.8003    1.0677 H   0  0  0  0  0  0  0  0  0  0  0  0
    4.4171    6.0481    2.2038 H   0  0  0  0  0  0  0  0  0  0  0  0
    5.0152    3.1229    2.8683 H   0  0  0  0  0  0  0  0  0  0  0  0
    3.4485    3.9359    2.8706 H   0  0  0  0  0  0  0  0  0  0  0  0
  1  2  1  0  0  0  0
  1 38  1  0  0  0  0
  1 39  1  0  0  0  0
  1 40  1  0  0  0  0
  2  3  1  0  0  0  0
  3  4  1  0  0  0  0
  3 41  1  0  0  0  0
  3 42  1  0  0  0  0
  4  5  1  0  0  0  0
  4 43  1  0  0  0  0
  4 44  1  0  0  0  0
  5  6  1  0  0  0  0
  5 37  1  0  0  0  0
  6  7  1  0  0  0  0
  6 45  1  0  0  0  0
  6 46  1  0  0  0  0
  7  8  1  0  0  0  0
  7 47  1  0  0  0  0
  7 48  1  0  0  0  0
  8  9  1  0  0  0  0
  8 36  1  0  0  0  0
  8 49  1  0  0  0  0
  9 10  1  0  0  0  0
  9 50  1  0  0  0  0
 10 11  1  0  0  0  0
 10 15  2  0  0  0  0
 11 12  2  0  0  0  0
 11 51  1  0  0  0  0
 12 13  1  0  0  0  0
 12 52  1  0  0  0  0
 13 14  2  0  0  0  0
 13 35  1  0  0  0  0
 14 15  1  0  0  0  0
 14 16  1  0  0  0  0
 15 53  1  0  0  0  0
 16 17  2  3  0  0  0
 16 33  1  0  0  0  0
 17 18  1  0  0  0  0
 17 24  1  0  0  0  0
 18 19  1  0  0  0  0
 18 23  2  0  0  0  0
 19 20  2  0  0  0  0
 19 54  1  0  0  0  0
 20 21  1  0  0  0  0
 20 55  1  0  0  0  0
 21 22  2  0  0  0  0
 21 56  1  0  0  0  0
 22 23  1  0  0  0  0
 22 57  1  0  0  0  0
 23 58  1  0  0  0  0
 24 25  2  0  0  0  0
 24 32  1  0  0  0  0
 25 26  1  0  0  0  0
 26 27  1  0  0  0  0
 26 31  2  0  0  0  0
 27 28  2  0  0  0  0
 27 59  1  0  0  0  0
 28 29  1  0  0  0  0
 28 60  1  0  0  0  0
 29 30  2  0  0  0  0
 29 61  1  0  0  0  0
 30 31  1  0  0  0  0
 30 62  1  0  0  0  0
 31 32  1  0  0  0  0
 32 63  1  0  0  0  0
 33 34  2  0  0  0  0
 33 35  1  0  0  0  0
 35 64  1  0  0  0  0
 36 37  1  0  0  0  0
 36 65  1  0  0  0  0
 36 66  1  0  0  0  0
 37 67  1  0  0  0  0
 37 68  1  0  0  0  0
M  END
$$$$
