CHEMBL372755
 OpenBabel04072215373D

 57 61  0  0  0  0  0  0  0  0999 V2000
    2.3657   -0.4621    1.6027 C   0  0  0  0  0  0  0  0  0  0  0  0
    0.8723   -0.3478    1.5664 C   0  0  0  0  0  0  0  0  0  0  0  0
    0.2590    0.8303    2.0114 C   0  0  0  0  0  0  0  0  0  0  0  0
   -1.1252    0.9438    1.9886 C   0  0  0  0  0  0  0  0  0  0  0  0
   -1.9090   -0.1032    1.5234 C   0  0  0  0  0  0  0  0  0  0  0  0
   -1.3317   -1.2935    1.0590 C   0  0  0  0  0  0  0  0  0  0  0  0
   -2.0954   -2.3860    0.5653 N   0  0  0  0  0  0  0  0  0  0  0  0
   -3.4721   -2.3933    0.4023 C   0  0  0  0  0  0  0  0  0  0  0  0
   -4.2239   -1.4557    0.5977 O   0  0  0  0  0  0  0  0  0  0  0  0
   -3.9369   -3.6548    0.0063 N   0  0  0  0  0  0  0  0  0  0  0  0
   -5.3360   -3.8316   -0.1473 C   0  0  0  0  0  0  0  0  0  0  0  0
   -6.0840   -3.0443   -1.0274 C   0  0  0  0  0  0  0  0  0  0  0  0
   -7.4742   -3.2058   -1.1211 C   0  0  0  0  0  0  0  0  0  0  0  0
   -8.1688   -4.0170   -0.2192 C   0  0  0  0  0  0  0  0  0  0  0  0
   -9.6520   -4.0316   -0.1704 C   0  0  0  0  0  0  0  0  0  0  0  0
  -10.3643   -5.2267    0.0186 C   0  0  0  0  0  0  0  0  0  0  0  0
   -9.9167   -6.6744    0.1296 C   0  0  0  0  0  0  0  0  0  0  0  0
   -9.5324   -7.1621    1.5178 C   0  0  0  0  0  0  0  0  0  0  0  0
  -10.1358   -6.6896    2.6931 C   0  0  0  0  0  0  0  0  0  0  0  0
   -9.6845   -7.1133    3.9462 C   0  0  0  0  0  0  0  0  0  0  0  0
   -8.6423   -8.0321    4.0432 C   0  0  0  0  0  0  0  0  0  0  0  0
   -8.0604   -8.5434    2.8868 C   0  0  0  0  0  0  0  0  0  0  0  0
   -8.5092   -8.1210    1.6341 C   0  0  0  0  0  0  0  0  0  0  0  0
  -12.0607   -4.9698    0.0349 S   0  0  0  0  0  0  0  0  0  0  0  0
  -11.8972   -3.3272   -0.3133 C   0  0  0  0  0  0  0  0  0  0  0  0
  -13.0159   -2.6093   -0.5072 N   0  0  0  0  0  0  0  0  0  0  0  0
  -12.7631   -1.3447   -0.8135 C   0  0  0  0  0  0  0  0  0  0  0  0
  -11.5637   -0.7659   -0.8854 N   0  0  0  0  0  0  0  0  0  0  0  0
  -10.4583   -1.4972   -0.6305 C   0  0  0  0  0  0  0  0  0  0  0  0
   -9.3064   -0.7525   -0.6760 N   0  0  0  0  0  0  0  0  0  0  0  0
  -10.5789   -2.8899   -0.3738 C   0  0  0  0  0  0  0  0  0  0  0  0
   -7.3874   -4.7883    0.6569 C   0  0  0  0  0  0  0  0  0  0  0  0
   -5.9882   -4.7672    0.6393 C   0  0  0  0  0  0  0  0  0  0  0  0
    0.0713   -1.4090    1.0934 C   0  0  0  0  0  0  0  0  0  0  0  0
    2.8240    0.4490    2.0219 H   0  0  0  0  0  0  0  0  0  0  0  0
    2.7611   -0.5932    0.5952 H   0  0  0  0  0  0  0  0  0  0  0  0
    2.6741   -1.3019    2.2334 H   0  0  0  0  0  0  0  0  0  0  0  0
    0.8512    1.6618    2.3778 H   0  0  0  0  0  0  0  0  0  0  0  0
   -1.6047    1.8587    2.3316 H   0  0  0  0  0  0  0  0  0  0  0  0
   -2.9752    0.0406    1.5421 H   0  0  0  0  0  0  0  0  0  0  0  0
   -1.5855   -3.1769    0.2071 H   0  0  0  0  0  0  0  0  0  0  0  0
   -3.4546   -4.4053    0.4663 H   0  0  0  0  0  0  0  0  0  0  0  0
   -5.5916   -2.2923   -1.6385 H   0  0  0  0  0  0  0  0  0  0  0  0
   -8.0061   -2.6399   -1.8824 H   0  0  0  0  0  0  0  0  0  0  0  0
   -9.0638   -6.8047   -0.5491 H   0  0  0  0  0  0  0  0  0  0  0  0
  -10.6959   -7.3470   -0.2533 H   0  0  0  0  0  0  0  0  0  0  0  0
  -10.9426   -5.9621    2.6588 H   0  0  0  0  0  0  0  0  0  0  0  0
  -10.1416   -6.7142    4.8486 H   0  0  0  0  0  0  0  0  0  0  0  0
   -8.2860   -8.3491    5.0198 H   0  0  0  0  0  0  0  0  0  0  0  0
   -7.2491   -9.2628    2.9596 H   0  0  0  0  0  0  0  0  0  0  0  0
   -8.0283   -8.5195    0.7428 H   0  0  0  0  0  0  0  0  0  0  0  0
  -13.6186   -0.7135   -1.0301 H   0  0  0  0  0  0  0  0  0  0  0  0
   -9.4173    0.1758   -1.0604 H   0  0  0  0  0  0  0  0  0  0  0  0
   -8.3868   -1.1171   -0.5102 H   0  0  0  0  0  0  0  0  0  0  0  0
   -7.8471   -5.4029    1.4176 H   0  0  0  0  0  0  0  0  0  0  0  0
   -5.4445   -5.4050    1.3306 H   0  0  0  0  0  0  0  0  0  0  0  0
    0.5578   -2.3175    0.7490 H   0  0  0  0  0  0  0  0  0  0  0  0
  1  2  1  0  0  0  0
  1 35  1  0  0  0  0
  1 36  1  0  0  0  0
  1 37  1  0  0  0  0
  2  3  1  0  0  0  0
  2 34  2  0  0  0  0
  3  4  2  0  0  0  0
  3 38  1  0  0  0  0
  4  5  1  0  0  0  0
  4 39  1  0  0  0  0
  5  6  2  0  0  0  0
  5 40  1  0  0  0  0
  6  7  1  0  0  0  0
  6 34  1  0  0  0  0
  7  8  1  0  0  0  0
  7 41  1  0  0  0  0
  8  9  2  0  0  0  0
  8 10  1  0  0  0  0
 10 11  1  0  0  0  0
 10 42  1  0  0  0  0
 11 12  1  0  0  0  0
 11 33  2  0  0  0  0
 12 13  2  0  0  0  0
 12 43  1  0  0  0  0
 13 14  1  0  0  0  0
 13 44  1  0  0  0  0
 14 15  1  0  0  0  0
 14 32  2  0  0  0  0
 15 16  2  0  0  0  0
 15 31  1  0  0  0  0
 16 17  1  0  0  0  0
 16 24  1  0  0  0  0
 17 18  1  0  0  0  0
 17 45  1  0  0  0  0
 17 46  1  0  0  0  0
 18 19  1  0  0  0  0
 18 23  2  0  0  0  0
 19 20  2  0  0  0  0
 19 47  1  0  0  0  0
 20 21  1  0  0  0  0
 20 48  1  0  0  0  0
 21 22  2  0  0  0  0
 21 49  1  0  0  0  0
 22 23  1  0  0  0  0
 22 50  1  0  0  0  0
 23 51  1  0  0  0  0
 24 25  1  0  0  0  0
 25 26  1  0  0  0  0
 25 31  2  0  0  0  0
 26 27  2  0  0  0  0
 27 28  1  0  0  0  0
 27 52  1  0  0  0  0
 28 29  2  0  0  0  0
 29 30  1  0  0  0  0
 29 31  1  0  0  0  0
 30 53  1  0  0  0  0
 30 54  1  0  0  0  0
 32 33  1  0  0  0  0
 32 55  1  0  0  0  0
 33 56  1  0  0  0  0
 34 57  1  0  0  0  0
M  END
$$$$
