CHEMBL3740923
 OpenBabel04072215373D

 52 57  0  0  0  0  0  0  0  0999 V2000
    1.0589    0.6774   -0.9767 O   0  0  0  0  0  0  0  0  0  0  0  0
    2.3908    0.4138   -0.8253 C   0  0  0  0  0  0  0  0  0  0  0  0
    3.1133    1.2552   -0.0446 N   0  0  0  0  0  0  0  0  0  0  0  0
    4.5405    1.0885    0.1905 N   0  0  0  0  0  0  0  0  0  0  0  0
    5.2781    0.0558   -0.3164 C   0  0  0  0  0  0  0  0  0  0  0  0
    6.7079   -0.0144   -0.0829 C   0  0  0  0  0  0  0  0  0  0  0  0
    7.5921   -0.5454   -1.0037 C   0  0  0  0  0  0  0  0  0  0  0  0
    8.8562   -0.4471   -0.5034 N   0  0  0  0  0  0  0  0  0  0  0  0
    8.8553    0.2173    0.7032 C   0  0  0  0  0  0  0  0  0  0  0  0
   10.1340    0.4817    1.3870 C   0  0  0  0  0  0  0  0  0  0  0  0
   11.2706    0.8538    0.6483 C   0  0  0  0  0  0  0  0  0  0  0  0
   12.4759    1.1542    1.2878 C   0  0  0  0  0  0  0  0  0  0  0  0
   12.5554    1.1120    2.6770 C   0  0  0  0  0  0  0  0  0  0  0  0
   11.4411    0.7395    3.4230 C   0  0  0  0  0  0  0  0  0  0  0  0
   10.2496    0.3982    2.7793 C   0  0  0  0  0  0  0  0  0  0  0  0
    7.5124    0.4965    1.0039 C   0  0  0  0  0  0  0  0  0  0  0  0
    7.0670    1.1705    2.2293 C   0  0  0  0  0  0  0  0  0  0  0  0
    7.7416    2.2922    2.7320 C   0  0  0  0  0  0  0  0  0  0  0  0
    7.3946    2.8422    3.9687 C   0  0  0  0  0  0  0  0  0  0  0  0
    6.3172    2.3259    4.6831 C   0  0  0  0  0  0  0  0  0  0  0  0
    5.5898    1.2589    4.1625 C   0  0  0  0  0  0  0  0  0  0  0  0
    5.9746    0.6727    2.9534 C   0  0  0  0  0  0  0  0  0  0  0  0
    4.5057   -0.8240   -1.0898 C   0  0  0  0  0  0  0  0  0  0  0  0
    4.8871   -2.0046   -1.6634 C   0  0  0  0  0  0  0  0  0  0  0  0
    3.8048   -2.4591   -2.3778 N   0  0  0  0  0  0  0  0  0  0  0  0
    3.7662   -3.6086   -3.2167 C   0  0  0  0  0  0  0  0  0  0  0  0
    4.8748   -4.4702   -3.3151 C   0  0  0  0  0  0  0  0  0  0  0  0
    4.8242   -5.6008   -4.1347 C   0  0  0  0  0  0  0  0  0  0  0  0
    3.6676   -5.8774   -4.8599 C   0  0  0  0  0  0  0  0  0  0  0  0
    2.5693   -5.0230   -4.7807 C   0  0  0  0  0  0  0  0  0  0  0  0
    2.6130   -3.8910   -3.9602 C   0  0  0  0  0  0  0  0  0  0  0  0
    2.7099   -1.6726   -2.2006 N   0  0  0  0  0  0  0  0  0  0  0  0
    3.0993   -0.6721   -1.3835 C   0  0  0  0  0  0  0  0  0  0  0  0
    0.9539    1.4727   -0.4259 H   0  0  0  0  0  0  0  0  0  0  0  0
    7.4447   -0.9854   -1.9805 H   0  0  0  0  0  0  0  0  0  0  0  0
    9.6857   -0.7897   -0.9610 H   0  0  0  0  0  0  0  0  0  0  0  0
   11.2274    0.9415   -0.4346 H   0  0  0  0  0  0  0  0  0  0  0  0
   13.3455    1.4395    0.7012 H   0  0  0  0  0  0  0  0  0  0  0  0
   13.4830    1.3745    3.1781 H   0  0  0  0  0  0  0  0  0  0  0  0
   11.4899    0.7232    4.5082 H   0  0  0  0  0  0  0  0  0  0  0  0
    9.3989    0.0968    3.3866 H   0  0  0  0  0  0  0  0  0  0  0  0
    8.5771    2.7238    2.1858 H   0  0  0  0  0  0  0  0  0  0  0  0
    7.9734    3.6680    4.3731 H   0  0  0  0  0  0  0  0  0  0  0  0
    6.0414    2.7574    5.6412 H   0  0  0  0  0  0  0  0  0  0  0  0
    4.7279    0.8725    4.6997 H   0  0  0  0  0  0  0  0  0  0  0  0
    5.4069   -0.1787    2.5874 H   0  0  0  0  0  0  0  0  0  0  0  0
    5.8216   -2.5368   -1.6451 H   0  0  0  0  0  0  0  0  0  0  0  0
    5.7934   -4.3024   -2.7623 H   0  0  0  0  0  0  0  0  0  0  0  0
    5.6710   -6.2739   -4.1882 H   0  0  0  0  0  0  0  0  0  0  0  0
    3.6209   -6.7638   -5.4886 H   0  0  0  0  0  0  0  0  0  0  0  0
    1.6710   -5.2376   -5.3508 H   0  0  0  0  0  0  0  0  0  0  0  0
    1.7446   -3.2342   -3.9203 H   0  0  0  0  0  0  0  0  0  0  0  0
  1  2  1  0  0  0  0
  1 34  1  0  0  0  0
  2  3  2  0  0  0  0
  2 33  1  0  0  0  0
  3  4  1  0  0  0  0
  4  5  2  0  0  0  0
  5  6  1  0  0  0  0
  5 23  1  0  0  0  0
  6  7  2  0  0  0  0
  6 16  1  0  0  0  0
  7  8  1  0  0  0  0
  7 35  1  0  0  0  0
  8  9  1  0  0  0  0
  8 36  1  0  0  0  0
  9 10  1  0  0  0  0
  9 16  2  0  0  0  0
 10 11  1  0  0  0  0
 10 15  2  0  0  0  0
 11 12  2  0  0  0  0
 11 37  1  0  0  0  0
 12 13  1  0  0  0  0
 12 38  1  0  0  0  0
 13 14  2  0  0  0  0
 13 39  1  0  0  0  0
 14 15  1  0  0  0  0
 14 40  1  0  0  0  0
 15 41  1  0  0  0  0
 16 17  1  0  0  0  0
 17 18  1  0  0  0  0
 17 22  2  0  0  0  0
 18 19  2  0  0  0  0
 18 42  1  0  0  0  0
 19 20  1  0  0  0  0
 19 43  1  0  0  0  0
 20 21  2  0  0  0  0
 20 44  1  0  0  0  0
 21 22  1  0  0  0  0
 21 45  1  0  0  0  0
 22 46  1  0  0  0  0
 23 24  2  0  0  0  0
 23 33  1  0  0  0  0
 24 25  1  0  0  0  0
 24 47  1  0  0  0  0
 25 26  1  0  0  0  0
 25 32  1  0  0  0  0
 26 27  1  0  0  0  0
 26 31  2  0  0  0  0
 27 28  2  0  0  0  0
 27 48  1  0  0  0  0
 28 29  1  0  0  0  0
 28 49  1  0  0  0  0
 29 30  2  0  0  0  0
 29 50  1  0  0  0  0
 30 31  1  0  0  0  0
 30 51  1  0  0  0  0
 31 52  1  0  0  0  0
 32 33  2  0  0  0  0
M  END
$$$$
