CHEMBL3702642
 OpenBabel04072215373D

 51 54  0  0  0  0  0  0  0  0999 V2000
    3.6002   -0.3499   -1.3231 C   0  0  0  0  0  0  0  0  0  0  0  0
    2.6957   -0.1025   -0.1167 C   0  0  0  0  0  0  0  0  0  0  0  0
    1.2185   -0.1911   -0.5136 C   0  0  0  0  0  0  0  0  0  0  0  0
    3.0218   -1.0404    1.0336 C   0  0  0  0  0  0  0  0  0  0  0  0
    3.5168   -0.5042    2.2294 C   0  0  0  0  0  0  0  0  0  0  0  0
    3.7883   -1.3315    3.3119 C   0  0  0  0  0  0  0  0  0  0  0  0
    3.5349   -2.7001    3.2258 C   0  0  0  0  0  0  0  0  0  0  0  0
    3.0054   -3.2603    2.0599 C   0  0  0  0  0  0  0  0  0  0  0  0
    2.6362   -4.6282    1.9677 N   0  0  0  0  0  0  0  0  0  0  0  0
    2.3746   -5.4370    3.0633 C   0  0  0  0  0  0  0  0  0  0  0  0
    2.3885   -5.0678    4.2368 O   0  0  0  0  0  0  0  0  0  0  0  0
    1.9993   -6.8580    2.8125 C   0  0  0  0  0  0  0  0  0  0  0  0
    2.4242   -7.5794    1.7023 C   0  0  0  0  0  0  0  0  0  0  0  0
    2.1334   -8.9428    1.6345 C   0  0  0  0  0  0  0  0  0  0  0  0
    1.4398   -9.5816    2.6789 C   0  0  0  0  0  0  0  0  0  0  0  0
    0.9985   -8.8880    3.8123 C   0  0  0  0  0  0  0  0  0  0  0  0
    0.3558   -9.5122    4.8581 N   0  0  0  0  0  0  0  0  0  0  0  0
    0.2948  -10.9738    5.0465 C   0  0  0  0  0  0  0  0  0  0  0  0
    0.0091  -11.1126    6.4980 C   0  0  0  0  0  0  0  0  0  0  0  0
   -0.0141  -12.1946    7.3239 C   0  0  0  0  0  0  0  0  0  0  0  0
   -0.2912  -12.0796    8.6407 N   0  0  0  0  0  0  0  0  0  0  0  0
   -0.5641  -10.8478    9.1089 C   0  0  0  0  0  0  0  0  0  0  0  0
   -0.8499  -10.7253   10.4524 N   0  0  0  0  0  0  0  0  0  0  0  0
   -0.5440   -9.7246    8.3833 N   0  0  0  0  0  0  0  0  0  0  0  0
   -0.2586   -9.9000    7.0839 C   0  0  0  0  0  0  0  0  0  0  0  0
   -0.1395   -8.8000    6.0615 C   0  0  0  0  0  0  0  0  0  0  0  0
    1.2714   -7.5124    3.8285 C   0  0  0  0  0  0  0  0  0  0  0  0
    2.8032   -2.4315    0.9488 C   0  0  0  0  0  0  0  0  0  0  0  0
    3.3494    0.3355   -2.1404 H   0  0  0  0  0  0  0  0  0  0  0  0
    3.5060   -1.3698   -1.7048 H   0  0  0  0  0  0  0  0  0  0  0  0
    4.6504   -0.1852   -1.0602 H   0  0  0  0  0  0  0  0  0  0  0  0
    2.8707    0.9305    0.2128 H   0  0  0  0  0  0  0  0  0  0  0  0
    0.9626   -1.1736   -0.9241 H   0  0  0  0  0  0  0  0  0  0  0  0
    0.9798    0.5589   -1.2755 H   0  0  0  0  0  0  0  0  0  0  0  0
    0.5686   -0.0090    0.3499 H   0  0  0  0  0  0  0  0  0  0  0  0
    3.6863    0.5653    2.3333 H   0  0  0  0  0  0  0  0  0  0  0  0
    4.1765   -0.9165    4.2400 H   0  0  0  0  0  0  0  0  0  0  0  0
    3.7629   -3.3082    4.0960 H   0  0  0  0  0  0  0  0  0  0  0  0
    2.3563   -4.9620    1.0541 H   0  0  0  0  0  0  0  0  0  0  0  0
    3.0210   -7.1244    0.9192 H   0  0  0  0  0  0  0  0  0  0  0  0
    2.4747   -9.5264    0.7840 H   0  0  0  0  0  0  0  0  0  0  0  0
    1.2640  -10.6484    2.5786 H   0  0  0  0  0  0  0  0  0  0  0  0
    1.2416  -11.4640    4.7982 H   0  0  0  0  0  0  0  0  0  0  0  0
   -0.5255  -11.3916    4.4534 H   0  0  0  0  0  0  0  0  0  0  0  0
    0.1965  -13.1994    6.9754 H   0  0  0  0  0  0  0  0  0  0  0  0
   -0.4381  -11.4931   10.9626 H   0  0  0  0  0  0  0  0  0  0  0  0
   -0.6341   -9.7890   10.7626 H   0  0  0  0  0  0  0  0  0  0  0  0
    0.5590   -8.0466    6.4367 H   0  0  0  0  0  0  0  0  0  0  0  0
   -1.1232   -8.3633    5.8607 H   0  0  0  0  0  0  0  0  0  0  0  0
    0.9524   -6.9068    4.6734 H   0  0  0  0  0  0  0  0  0  0  0  0
    2.4223   -2.8528    0.0228 H   0  0  0  0  0  0  0  0  0  0  0  0
  1  2  1  0  0  0  0
  1 29  1  0  0  0  0
  1 30  1  0  0  0  0
  1 31  1  0  0  0  0
  2  3  1  0  0  0  0
  2  4  1  0  0  0  0
  2 32  1  0  0  0  0
  3 33  1  0  0  0  0
  3 34  1  0  0  0  0
  3 35  1  0  0  0  0
  4  5  1  0  0  0  0
  4 28  2  0  0  0  0
  5  6  2  0  0  0  0
  5 36  1  0  0  0  0
  6  7  1  0  0  0  0
  6 37  1  0  0  0  0
  7  8  2  0  0  0  0
  7 38  1  0  0  0  0
  8  9  1  0  0  0  0
  8 28  1  0  0  0  0
  9 10  1  0  0  0  0
  9 39  1  0  0  0  0
 10 11  2  0  0  0  0
 10 12  1  0  0  0  0
 12 13  1  0  0  0  0
 12 27  2  0  0  0  0
 13 14  2  0  0  0  0
 13 40  1  0  0  0  0
 14 15  1  0  0  0  0
 14 41  1  0  0  0  0
 15 16  2  0  0  0  0
 15 42  1  0  0  0  0
 16 17  1  0  0  0  0
 16 27  1  0  0  0  0
 17 18  1  0  0  0  0
 17 26  1  0  0  0  0
 18 19  1  0  0  0  0
 18 43  1  0  0  0  0
 18 44  1  0  0  0  0
 19 20  1  0  0  0  0
 19 25  2  0  0  0  0
 20 21  2  0  0  0  0
 20 45  1  0  0  0  0
 21 22  1  0  0  0  0
 22 23  1  0  0  0  0
 22 24  2  0  0  0  0
 23 46  1  0  0  0  0
 23 47  1  0  0  0  0
 24 25  1  0  0  0  0
 25 26  1  0  0  0  0
 26 48  1  0  0  0  0
 26 49  1  0  0  0  0
 27 50  1  0  0  0  0
 28 51  1  0  0  0  0
M  END
$$$$
