CHEMBL3900264
 OpenBabel04072215373D

 45 48  0  0  0  0  0  0  0  0999 V2000
   -2.0466    0.0351   -0.8068 Cl  0  0  0  0  0  0  0  0  0  0  0  0
   -0.3285    0.1090   -0.7433 C   0  0  0  0  0  0  0  0  0  0  0  0
    0.3106    1.3419   -0.7338 C   0  0  0  0  0  0  0  0  0  0  0  0
    1.7104    1.4090   -0.6718 C   0  0  0  0  0  0  0  0  0  0  0  0
    2.4836    0.2384   -0.6140 C   0  0  0  0  0  0  0  0  0  0  0  0
    3.9624    0.2583   -0.5481 C   0  0  0  0  0  0  0  0  0  0  0  0
    4.6863    1.2229    0.0343 C   0  0  0  0  0  0  0  0  0  0  0  0
    6.1892    1.1842    0.1013 C   0  0  0  0  0  0  0  0  0  0  0  0
    6.7854    0.0214    0.1611 N   0  0  0  0  0  0  0  0  0  0  0  0
    8.1374   -0.0109    0.2362 N   0  0  0  0  0  0  0  0  0  0  0  0
    8.8747   -1.0495   -0.3639 C   0  0  0  0  0  0  0  0  0  0  0  0
   10.0663   -1.3328    0.2230 N   0  0  0  0  0  0  0  0  0  0  0  0
   10.8448   -2.3458   -0.2333 N   0  0  0  0  0  0  0  0  0  0  0  0
   10.4209   -3.0645   -1.2837 C   0  0  0  0  0  0  0  0  0  0  0  0
    9.2403   -2.8047   -1.9708 C   0  0  0  0  0  0  0  0  0  0  0  0
    8.8355   -3.5709   -3.0782 C   0  0  0  0  0  0  0  0  0  0  0  0
    7.6552   -3.2814   -3.7616 C   0  0  0  0  0  0  0  0  0  0  0  0
    6.8712   -2.2121   -3.3639 C   0  0  0  0  0  0  0  0  0  0  0  0
    7.2730   -1.4463   -2.2714 C   0  0  0  0  0  0  0  0  0  0  0  0
    8.4403   -1.7386   -1.5222 C   0  0  0  0  0  0  0  0  0  0  0  0
    6.8708    2.5204    0.1130 C   0  0  0  0  0  0  0  0  0  0  0  0
    6.2464    3.6477    0.6685 C   0  0  0  0  0  0  0  0  0  0  0  0
    6.9291    4.8414    0.7901 C   0  0  0  0  0  0  0  0  0  0  0  0
    8.2539    4.9242    0.3857 C   0  0  0  0  0  0  0  0  0  0  0  0
    8.8814    3.8353   -0.1962 C   0  0  0  0  0  0  0  0  0  0  0  0
    8.1845    2.6643   -0.3634 C   0  0  0  0  0  0  0  0  0  0  0  0
    1.8193   -0.9966   -0.6461 C   0  0  0  0  0  0  0  0  0  0  0  0
    0.4193   -1.0658   -0.7042 C   0  0  0  0  0  0  0  0  0  0  0  0
   -0.2684    2.2623   -0.7678 H   0  0  0  0  0  0  0  0  0  0  0  0
    2.1733    2.3886   -0.6710 H   0  0  0  0  0  0  0  0  0  0  0  0
    4.4670   -0.5943   -0.9957 H   0  0  0  0  0  0  0  0  0  0  0  0
    4.1846    2.0635    0.4908 H   0  0  0  0  0  0  0  0  0  0  0  0
    8.6001    0.2680    1.1062 H   0  0  0  0  0  0  0  0  0  0  0  0
   11.0858   -3.8700   -1.5791 H   0  0  0  0  0  0  0  0  0  0  0  0
    9.4444   -4.4060   -3.4197 H   0  0  0  0  0  0  0  0  0  0  0  0
    7.3513   -3.8843   -4.6120 H   0  0  0  0  0  0  0  0  0  0  0  0
    5.9550   -1.9617   -3.8865 H   0  0  0  0  0  0  0  0  0  0  0  0
    6.6453   -0.6010   -2.0076 H   0  0  0  0  0  0  0  0  0  0  0  0
    5.2280    3.6124    1.0475 H   0  0  0  0  0  0  0  0  0  0  0  0
    6.4354    5.7046    1.2362 H   0  0  0  0  0  0  0  0  0  0  0  0
    8.7974    5.8595    0.5202 H   0  0  0  0  0  0  0  0  0  0  0  0
    9.9290    3.8959   -0.4999 H   0  0  0  0  0  0  0  0  0  0  0  0
    8.6968    1.8424   -0.8545 H   0  0  0  0  0  0  0  0  0  0  0  0
    2.3827   -1.9300   -0.6069 H   0  0  0  0  0  0  0  0  0  0  0  0
   -0.0762   -2.0311   -0.7098 H   0  0  0  0  0  0  0  0  0  0  0  0
  1  2  1  0  0  0  0
  2  3  1  0  0  0  0
  2 28  2  0  0  0  0
  3  4  2  0  0  0  0
  3 29  1  0  0  0  0
  4  5  1  0  0  0  0
  4 30  1  0  0  0  0
  5  6  1  0  0  0  0
  5 27  2  0  0  0  0
  6  7  2  0  0  0  0
  6 31  1  0  0  0  0
  7  8  1  0  0  0  0
  7 32  1  0  0  0  0
  8  9  2  0  0  0  0
  8 21  1  0  0  0  0
  9 10  1  0  0  0  0
 10 11  1  0  0  0  0
 10 33  1  0  0  0  0
 11 12  1  0  0  0  0
 11 20  2  0  0  0  0
 12 13  2  0  0  0  0
 13 14  1  0  0  0  0
 14 15  2  0  0  0  0
 14 34  1  0  0  0  0
 15 16  1  0  0  0  0
 15 20  1  0  0  0  0
 16 17  2  0  0  0  0
 16 35  1  0  0  0  0
 17 18  1  0  0  0  0
 17 36  1  0  0  0  0
 18 19  2  0  0  0  0
 18 37  1  0  0  0  0
 19 20  1  0  0  0  0
 19 38  1  0  0  0  0
 21 22  1  0  0  0  0
 21 26  2  0  0  0  0
 22 23  2  0  0  0  0
 22 39  1  0  0  0  0
 23 24  1  0  0  0  0
 23 40  1  0  0  0  0
 24 25  2  0  0  0  0
 24 41  1  0  0  0  0
 25 26  1  0  0  0  0
 25 42  1  0  0  0  0
 26 43  1  0  0  0  0
 27 28  1  0  0  0  0
 27 44  1  0  0  0  0
 28 45  1  0  0  0  0
M  END
$$$$
