CHEMBL3702607
 OpenBabel04072215373D

 49 52  0  0  0  0  0  0  0  0999 V2000
    1.2133   -0.1821    0.3098 C   0  0  0  0  0  0  0  0  0  0  0  0
    2.4523    0.2520   -0.2451 O   0  0  0  0  0  0  0  0  0  0  0  0
    3.0269    1.3547    0.3293 C   0  0  0  0  0  0  0  0  0  0  0  0
    2.4692    2.0916    1.3779 C   0  0  0  0  0  0  0  0  0  0  0  0
    3.1477    3.1925    1.8892 C   0  0  0  0  0  0  0  0  0  0  0  0
    4.3943    3.5449    1.3760 C   0  0  0  0  0  0  0  0  0  0  0  0
    4.9960    2.7963    0.3598 C   0  0  0  0  0  0  0  0  0  0  0  0
    6.3034    3.0715   -0.1239 N   0  0  0  0  0  0  0  0  0  0  0  0
    7.2416    3.8308    0.5637 C   0  0  0  0  0  0  0  0  0  0  0  0
    7.0814    4.3072    1.6844 O   0  0  0  0  0  0  0  0  0  0  0  0
    8.5756    4.0478   -0.0620 C   0  0  0  0  0  0  0  0  0  0  0  0
    8.7899    4.0736   -1.4374 C   0  0  0  0  0  0  0  0  0  0  0  0
   10.0580    4.4091   -1.9181 C   0  0  0  0  0  0  0  0  0  0  0  0
   11.1001    4.7261   -1.0311 C   0  0  0  0  0  0  0  0  0  0  0  0
   10.9144    4.7218    0.3572 C   0  0  0  0  0  0  0  0  0  0  0  0
   11.9162    5.0994    1.2313 N   0  0  0  0  0  0  0  0  0  0  0  0
   11.6155    5.7042    2.5368 C   0  0  0  0  0  0  0  0  0  0  0  0
   11.8947    4.7018    3.6500 C   0  0  0  0  0  0  0  0  0  0  0  0
   13.2688    4.1069    3.4990 C   0  0  0  0  0  0  0  0  0  0  0  0
   13.8240    3.5786    4.6143 N   0  0  0  0  0  0  0  0  0  0  0  0
   15.0383    3.0372    4.4924 C   0  0  0  0  0  0  0  0  0  0  0  0
   15.6135    2.5016    5.6257 N   0  0  0  0  0  0  0  0  0  0  0  0
   15.7183    2.9420    3.3479 N   0  0  0  0  0  0  0  0  0  0  0  0
   15.1322    3.4727    2.2565 C   0  0  0  0  0  0  0  0  0  0  0  0
   13.8932    4.0773    2.2632 C   0  0  0  0  0  0  0  0  0  0  0  0
   13.3099    4.6988    1.0244 C   0  0  0  0  0  0  0  0  0  0  0  0
    9.6386    4.3607    0.8092 C   0  0  0  0  0  0  0  0  0  0  0  0
    4.2790    1.7238   -0.1889 C   0  0  0  0  0  0  0  0  0  0  0  0
    0.9276   -1.1145   -0.1859 H   0  0  0  0  0  0  0  0  0  0  0  0
    0.4237    0.5535    0.1217 H   0  0  0  0  0  0  0  0  0  0  0  0
    1.3041   -0.3962    1.3808 H   0  0  0  0  0  0  0  0  0  0  0  0
    1.5123    1.8390    1.8208 H   0  0  0  0  0  0  0  0  0  0  0  0
    2.7164    3.7758    2.6986 H   0  0  0  0  0  0  0  0  0  0  0  0
    4.8754    4.4217    1.7987 H   0  0  0  0  0  0  0  0  0  0  0  0
    6.6161    2.5382   -0.9222 H   0  0  0  0  0  0  0  0  0  0  0  0
    7.9860    3.8920   -2.1430 H   0  0  0  0  0  0  0  0  0  0  0  0
   10.2347    4.4662   -2.9899 H   0  0  0  0  0  0  0  0  0  0  0  0
   12.0526    5.0416   -1.4512 H   0  0  0  0  0  0  0  0  0  0  0  0
   10.5891    6.0826    2.6046 H   0  0  0  0  0  0  0  0  0  0  0  0
   12.2589    6.5856    2.6629 H   0  0  0  0  0  0  0  0  0  0  0  0
   11.1638    3.8855    3.6239 H   0  0  0  0  0  0  0  0  0  0  0  0
   11.8077    5.1997    4.6223 H   0  0  0  0  0  0  0  0  0  0  0  0
   14.8880    2.2453    6.2805 H   0  0  0  0  0  0  0  0  0  0  0  0
   16.2769    1.7876    5.3625 H   0  0  0  0  0  0  0  0  0  0  0  0
   15.7198    3.3937    1.3459 H   0  0  0  0  0  0  0  0  0  0  0  0
   13.4067    3.9823    0.2006 H   0  0  0  0  0  0  0  0  0  0  0  0
   13.8955    5.5909    0.7704 H   0  0  0  0  0  0  0  0  0  0  0  0
    9.4442    4.3147    1.8785 H   0  0  0  0  0  0  0  0  0  0  0  0
    4.6986    1.1309   -0.9960 H   0  0  0  0  0  0  0  0  0  0  0  0
  1  2  1  0  0  0  0
  1 29  1  0  0  0  0
  1 30  1  0  0  0  0
  1 31  1  0  0  0  0
  2  3  1  0  0  0  0
  3  4  1  0  0  0  0
  3 28  2  0  0  0  0
  4  5  2  0  0  0  0
  4 32  1  0  0  0  0
  5  6  1  0  0  0  0
  5 33  1  0  0  0  0
  6  7  2  0  0  0  0
  6 34  1  0  0  0  0
  7  8  1  0  0  0  0
  7 28  1  0  0  0  0
  8  9  1  0  0  0  0
  8 35  1  0  0  0  0
  9 10  2  0  0  0  0
  9 11  1  0  0  0  0
 11 12  1  0  0  0  0
 11 27  2  0  0  0  0
 12 13  2  0  0  0  0
 12 36  1  0  0  0  0
 13 14  1  0  0  0  0
 13 37  1  0  0  0  0
 14 15  2  0  0  0  0
 14 38  1  0  0  0  0
 15 16  1  0  0  0  0
 15 27  1  0  0  0  0
 16 17  1  0  0  0  0
 16 26  1  0  0  0  0
 17 18  1  0  0  0  0
 17 39  1  0  0  0  0
 17 40  1  0  0  0  0
 18 19  1  0  0  0  0
 18 41  1  0  0  0  0
 18 42  1  0  0  0  0
 19 20  1  0  0  0  0
 19 25  2  0  0  0  0
 20 21  2  0  0  0  0
 21 22  1  0  0  0  0
 21 23  1  0  0  0  0
 22 43  1  0  0  0  0
 22 44  1  0  0  0  0
 23 24  2  0  0  0  0
 24 25  1  0  0  0  0
 24 45  1  0  0  0  0
 25 26  1  0  0  0  0
 26 46  1  0  0  0  0
 26 47  1  0  0  0  0
 27 48  1  0  0  0  0
 28 49  1  0  0  0  0
M  END
$$$$
