CHEMBL233823
 OpenBabel04072215363D

 41 43  0  0  0  0  0  0  0  0999 V2000
    2.2660    1.0557    0.3815 O   0  0  0  0  0  0  0  0  0  0  0  0
    2.2350   -0.0823   -0.0760 C   0  0  0  0  0  0  0  0  0  0  0  0
    1.4153   -0.4647   -1.1321 N   0  0  0  0  0  0  0  0  0  0  0  0
    0.4201    0.3213   -1.7639 C   0  0  0  0  0  0  0  0  0  0  0  0
    0.0906    1.6142   -1.3582 C   0  0  0  0  0  0  0  0  0  0  0  0
   -0.9330    2.3278   -1.9874 C   0  0  0  0  0  0  0  0  0  0  0  0
   -1.6639    1.7680   -3.0428 C   0  0  0  0  0  0  0  0  0  0  0  0
   -2.7856    2.5551   -3.6681 C   0  0  0  0  0  0  0  0  0  0  0  0
   -2.9723    3.7723   -3.0759 F   0  0  0  0  0  0  0  0  0  0  0  0
   -2.5813    2.8254   -4.9856 F   0  0  0  0  0  0  0  0  0  0  0  0
   -3.9900    1.9281   -3.5810 F   0  0  0  0  0  0  0  0  0  0  0  0
   -1.3212    0.4804   -3.4671 C   0  0  0  0  0  0  0  0  0  0  0  0
   -2.1446   -0.2923   -4.7745 Cl  0  0  0  0  0  0  0  0  0  0  0  0
   -0.2900   -0.2372   -2.8333 C   0  0  0  0  0  0  0  0  0  0  0  0
    3.0718   -1.1373    0.4653 C   0  0  0  0  0  0  0  0  0  0  0  0
    2.9401   -2.5152    0.3549 C   0  0  0  0  0  0  0  0  0  0  0  0
    3.9861   -3.0626    1.1096 C   0  0  0  0  0  0  0  0  0  0  0  0
    4.7406   -2.1240    1.6701 N   0  0  0  0  0  0  0  0  0  0  0  0
    4.1675   -0.9563    1.2939 N   0  0  0  0  0  0  0  0  0  0  0  0
    4.7325    0.2699    1.8532 C   0  0  0  0  0  0  0  0  0  0  0  0
    6.2276    0.4270    1.5488 C   0  0  0  0  0  0  0  0  0  0  0  0
    6.9571    1.6107    2.1523 C   0  0  0  0  0  0  0  0  0  0  0  0
    6.3637    2.5886    2.9537 C   0  0  0  0  0  0  0  0  0  0  0  0
    7.1637    3.5965    3.4839 C   0  0  0  0  0  0  0  0  0  0  0  0
    8.4924    3.7024    3.2706 N   0  0  0  0  0  0  0  0  0  0  0  0
    9.0491    2.7591    2.4864 C   0  0  0  0  0  0  0  0  0  0  0  0
    8.3351    1.7176    1.9126 C   0  0  0  0  0  0  0  0  0  0  0  0
    1.5467   -1.3983   -1.4960 H   0  0  0  0  0  0  0  0  0  0  0  0
    0.5997    2.1115   -0.5404 H   0  0  0  0  0  0  0  0  0  0  0  0
   -1.1589    3.3325   -1.6285 H   0  0  0  0  0  0  0  0  0  0  0  0
   -0.0572   -1.2399   -3.1853 H   0  0  0  0  0  0  0  0  0  0  0  0
    2.1694   -3.0673   -0.1642 H   0  0  0  0  0  0  0  0  0  0  0  0
    4.2242   -4.1040    1.2864 H   0  0  0  0  0  0  0  0  0  0  0  0
    4.5530    0.2151    2.9337 H   0  0  0  0  0  0  0  0  0  0  0  0
    4.1937    1.1359    1.4728 H   0  0  0  0  0  0  0  0  0  0  0  0
    6.3568    0.4709    0.4592 H   0  0  0  0  0  0  0  0  0  0  0  0
    6.7549   -0.4711    1.8956 H   0  0  0  0  0  0  0  0  0  0  0  0
    5.3051    2.5892    3.1867 H   0  0  0  0  0  0  0  0  0  0  0  0
    6.7418    4.3688    4.1217 H   0  0  0  0  0  0  0  0  0  0  0  0
   10.1194    2.8570    2.3284 H   0  0  0  0  0  0  0  0  0  0  0  0
    8.8534    0.9901    1.2954 H   0  0  0  0  0  0  0  0  0  0  0  0
  1  2  2  0  0  0  0
  2  3  1  0  0  0  0
  2 15  1  0  0  0  0
  3  4  1  0  0  0  0
  3 28  1  0  0  0  0
  4  5  1  0  0  0  0
  4 14  2  0  0  0  0
  5  6  2  0  0  0  0
  5 29  1  0  0  0  0
  6  7  1  0  0  0  0
  6 30  1  0  0  0  0
  7  8  1  0  0  0  0
  7 12  2  0  0  0  0
  8  9  1  0  0  0  0
  8 10  1  0  0  0  0
  8 11  1  0  0  0  0
 12 13  1  0  0  0  0
 12 14  1  0  0  0  0
 14 31  1  0  0  0  0
 15 16  2  0  0  0  0
 15 19  1  0  0  0  0
 16 17  1  0  0  0  0
 16 32  1  0  0  0  0
 17 18  2  0  0  0  0
 17 33  1  0  0  0  0
 18 19  1  0  0  0  0
 19 20  1  0  0  0  0
 20 21  1  0  0  0  0
 20 34  1  0  0  0  0
 20 35  1  0  0  0  0
 21 22  1  0  0  0  0
 21 36  1  0  0  0  0
 21 37  1  0  0  0  0
 22 23  1  0  0  0  0
 22 27  2  0  0  0  0
 23 24  2  0  0  0  0
 23 38  1  0  0  0  0
 24 25  1  0  0  0  0
 24 39  1  0  0  0  0
 25 26  2  0  0  0  0
 26 27  1  0  0  0  0
 26 40  1  0  0  0  0
 27 41  1  0  0  0  0
M  END
$$$$
