CHEMBL3706816
 OpenBabel04072215373D

 70 74  0  0  1  0  0  0  0  0999 V2000
    9.2840   -6.1706    8.7040 C   0  0  0  0  0  0  0  0  0  0  0  0
    9.1510   -5.1317    7.9274 C   0  0  0  0  0  0  0  0  0  0  0  0
    8.9960   -3.9207    7.0220 C   0  0  3  0  0  0  0  0  0  0  0  0
    7.7169   -3.2999    7.2413 O   0  0  0  0  0  0  0  0  0  0  0  0
    6.6546   -3.8002    6.4899 C   0  0  0  0  0  0  0  0  0  0  0  0
    6.5929   -5.0249    5.9524 C   0  0  0  0  0  0  0  0  0  0  0  0
    5.5064   -5.4490    5.0479 C   0  0  0  0  0  0  0  0  0  0  0  0
    5.5906   -6.5000    4.4280 O   0  0  0  0  0  0  0  0  0  0  0  0
    4.3299   -4.5627    4.9267 C   0  0  0  0  0  0  0  0  0  0  0  0
    3.2779   -5.0626    4.1700 N   0  0  0  0  0  0  0  0  0  0  0  0
    1.9747   -5.2223    4.7200 C   0  0  0  0  0  0  0  0  0  0  0  0
    1.7574   -4.8806    6.0033 N   0  0  0  0  0  0  0  0  0  0  0  0
    0.4985   -4.9781    6.4430 C   0  0  0  0  0  0  0  0  0  0  0  0
   -0.5602   -5.3715    5.7257 N   0  0  0  0  0  0  0  0  0  0  0  0
   -0.3315   -5.7071    4.4490 C   0  0  0  0  0  0  0  0  0  0  0  0
   -1.3833   -6.1125    3.6366 C   0  0  0  0  0  0  0  0  0  0  0  0
   -1.2195   -6.5135    2.2851 C   0  0  0  0  0  0  0  0  0  0  0  0
   -2.4263   -6.9412    1.7785 O   0  0  0  0  0  0  0  0  0  0  0  0
   -2.3358   -7.9029    0.7543 C   0  0  0  0  0  0  0  0  0  0  0  0
   -2.9355   -9.2499    1.0495 C   0  0  0  0  0  0  0  0  0  0  0  0
   -4.4457   -9.2838    1.1661 C   0  0  0  0  0  0  0  0  0  0  0  0
   -4.8815  -10.6856    1.2880 N   0  0  0  0  0  0  0  0  0  0  0  0
   -6.3446  -10.7944    1.3490 C   0  0  0  0  0  0  0  0  0  0  0  0
   -6.6888  -10.6018    2.8131 C   0  0  0  0  0  0  0  0  0  0  0  0
   -5.5138  -11.2159    3.5512 C   0  0  0  0  0  0  0  0  0  0  0  0
   -4.4026  -11.3304    2.5222 C   0  0  0  0  0  0  0  0  0  0  0  0
    0.0600   -6.4717    1.7082 C   0  0  0  0  0  0  0  0  0  0  0  0
    0.6124   -6.7818    0.5047 O   0  0  0  0  0  0  0  0  0  0  0  0
    0.0142   -7.0458   -0.7480 C   0  0  0  0  0  0  0  0  0  0  0  0
    1.1113   -6.0544    2.5401 C   0  0  0  0  0  0  0  0  0  0  0  0
    0.9398   -5.6696    3.8866 C   0  0  0  0  0  0  0  0  0  0  0  0
    4.3687   -3.3532    5.4937 C   0  0  0  0  0  0  0  0  0  0  0  0
    5.5084   -2.8550    6.2845 C   0  0  0  0  0  0  0  0  0  0  0  0
    5.4989   -1.7178    6.7313 O   0  0  0  0  0  0  0  0  0  0  0  0
   10.1259   -2.9410    7.2877 C   0  0  0  0  0  0  0  0  0  0  0  0
   11.3297   -3.0726    6.5722 C   0  0  0  0  0  0  0  0  0  0  0  0
   12.4017   -2.2144    6.8142 C   0  0  0  0  0  0  0  0  0  0  0  0
   12.2854   -1.2118    7.7732 C   0  0  0  0  0  0  0  0  0  0  0  0
   11.1028   -1.0747    8.4987 C   0  0  0  0  0  0  0  0  0  0  0  0
   10.0313   -1.9399    8.2662 C   0  0  0  0  0  0  0  0  0  0  0  0
    9.3960   -7.0150    9.3447 H   0  0  0  0  0  0  0  0  0  0  0  0
    9.0834   -4.2266    5.9703 H   0  0  0  0  0  0  0  0  0  0  0  0
    7.3500   -5.7823    6.1102 H   0  0  0  0  0  0  0  0  0  0  0  0
    3.5653   -5.9248    3.7039 H   0  0  0  0  0  0  0  0  0  0  0  0
    0.3188   -4.7020    7.4768 H   0  0  0  0  0  0  0  0  0  0  0  0
   -2.3787   -6.1476    4.0810 H   0  0  0  0  0  0  0  0  0  0  0  0
   -1.3108   -8.2109    0.6738 H   0  0  0  0  0  0  0  0  0  0  0  0
   -2.7206   -7.4699   -0.1723 H   0  0  0  0  0  0  0  0  0  0  0  0
   -2.4548   -9.5978    1.9676 H   0  0  0  0  0  0  0  0  0  0  0  0
   -2.6181   -9.9246    0.2418 H   0  0  0  0  0  0  0  0  0  0  0  0
   -4.8706   -8.8587    0.2469 H   0  0  0  0  0  0  0  0  0  0  0  0
   -4.7807   -8.6656    2.0049 H   0  0  0  0  0  0  0  0  0  0  0  0
   -6.6354  -11.8033    1.0309 H   0  0  0  0  0  0  0  0  0  0  0  0
   -6.8650  -10.0886    0.6928 H   0  0  0  0  0  0  0  0  0  0  0  0
   -7.6326  -11.0816    3.0850 H   0  0  0  0  0  0  0  0  0  0  0  0
   -6.7687   -9.5352    3.0546 H   0  0  0  0  0  0  0  0  0  0  0  0
   -5.7661  -12.2092    3.9346 H   0  0  0  0  0  0  0  0  0  0  0  0
   -5.2132  -10.5868    4.3958 H   0  0  0  0  0  0  0  0  0  0  0  0
   -4.1898  -12.3837    2.3055 H   0  0  0  0  0  0  0  0  0  0  0  0
   -3.4752  -10.9275    2.9345 H   0  0  0  0  0  0  0  0  0  0  0  0
    0.8102   -7.0117   -1.4985 H   0  0  0  0  0  0  0  0  0  0  0  0
   -0.7521   -6.3172   -1.0159 H   0  0  0  0  0  0  0  0  0  0  0  0
   -0.3366   -8.0786   -0.8306 H   0  0  0  0  0  0  0  0  0  0  0  0
    2.1097   -6.0384    2.1039 H   0  0  0  0  0  0  0  0  0  0  0  0
    3.5243   -2.6594    5.4076 H   0  0  0  0  0  0  0  0  0  0  0  0
   11.4414   -3.8542    5.8233 H   0  0  0  0  0  0  0  0  0  0  0  0
   13.3271   -2.3307    6.2563 H   0  0  0  0  0  0  0  0  0  0  0  0
   13.1184   -0.5390    7.9584 H   0  0  0  0  0  0  0  0  0  0  0  0
   11.0146   -0.2933    9.2493 H   0  0  0  0  0  0  0  0  0  0  0  0
    9.1219   -1.8284    8.8543 H   0  0  0  0  0  0  0  0  0  0  0  0
  1  2  3  0  0  0  0
  1 41  1  0  0  0  0
  2  3  1  0  0  0  0
  3  4  1  0  0  0  0
  3 35  1  0  0  0  0
  3 42  1  0  0  0  0
  4  5  1  0  0  0  0
  5  6  2  0  0  0  0
  5 33  1  0  0  0  0
  6  7  1  0  0  0  0
  6 43  1  0  0  0  0
  7  8  2  0  0  0  0
  7  9  1  0  0  0  0
  9 10  1  0  0  0  0
  9 32  2  0  0  0  0
 10 11  1  0  0  0  0
 10 44  1  0  0  0  0
 11 12  1  0  0  0  0
 11 31  2  0  0  0  0
 12 13  2  0  0  0  0
 13 14  1  0  0  0  0
 13 45  1  0  0  0  0
 14 15  2  0  0  0  0
 15 16  1  0  0  0  0
 15 31  1  0  0  0  0
 16 17  2  0  0  0  0
 16 46  1  0  0  0  0
 17 18  1  0  0  0  0
 17 27  1  0  0  0  0
 18 19  1  0  0  0  0
 19 20  1  0  0  0  0
 19 47  1  0  0  0  0
 19 48  1  0  0  0  0
 20 21  1  0  0  0  0
 20 49  1  0  0  0  0
 20 50  1  0  0  0  0
 21 22  1  0  0  0  0
 21 51  1  0  0  0  0
 21 52  1  0  0  0  0
 22 23  1  0  0  0  0
 22 26  1  0  0  0  0
 23 24  1  0  0  0  0
 23 53  1  0  0  0  0
 23 54  1  0  0  0  0
 24 25  1  0  0  0  0
 24 55  1  0  0  0  0
 24 56  1  0  0  0  0
 25 26  1  0  0  0  0
 25 57  1  0  0  0  0
 25 58  1  0  0  0  0
 26 59  1  0  0  0  0
 26 60  1  0  0  0  0
 27 28  1  0  0  0  0
 27 30  2  0  0  0  0
 28 29  1  0  0  0  0
 29 61  1  0  0  0  0
 29 62  1  0  0  0  0
 29 63  1  0  0  0  0
 30 31  1  0  0  0  0
 30 64  1  0  0  0  0
 32 33  1  0  0  0  0
 32 65  1  0  0  0  0
 33 34  2  0  0  0  0
 35 36  1  0  0  0  0
 35 40  2  0  0  0  0
 36 37  2  0  0  0  0
 36 66  1  0  0  0  0
 37 38  1  0  0  0  0
 37 67  1  0  0  0  0
 38 39  2  0  0  0  0
 38 68  1  0  0  0  0
 39 40  1  0  0  0  0
 39 69  1  0  0  0  0
 40 70  1  0  0  0  0
M  END
$$$$
