CHEMBL3903198
 OpenBabel04072215373D

 64 68  0  0  0  0  0  0  0  0999 V2000
    0.6699   -2.4847   -3.4506 C   0  0  0  0  0  0  0  0  0  0  0  0
    1.9449   -3.0446   -3.1916 O   0  0  0  0  0  0  0  0  0  0  0  0
    2.7622   -2.2554   -2.4381 C   0  0  0  0  0  0  0  0  0  0  0  0
    2.5018   -1.0309   -1.9290 C   0  0  0  0  0  0  0  0  0  0  0  0
    3.4294   -0.4034   -1.0938 C   0  0  0  0  0  0  0  0  0  0  0  0
    3.2144    0.8244   -0.5315 O   0  0  0  0  0  0  0  0  0  0  0  0
    1.9604    1.4063   -0.8730 C   0  0  0  0  0  0  0  0  0  0  0  0
    4.6357   -1.0279   -0.7521 C   0  0  0  0  0  0  0  0  0  0  0  0
    4.9112   -2.3239   -1.1607 C   0  0  0  0  0  0  0  0  0  0  0  0
    6.0889   -3.0006   -0.6976 N   0  0  0  0  0  0  0  0  0  0  0  0
    6.6419   -2.6567    0.6738 C   0  0  0  0  0  0  0  0  0  0  0  0
    5.6812   -2.9043    1.8172 C   0  0  0  0  0  0  0  0  0  0  0  0
    6.1008   -2.6012    3.2166 C   0  0  0  0  0  0  0  0  0  0  0  0
    5.0186   -2.9152    4.1432 N   0  0  0  0  0  0  0  0  0  0  0  0
    4.0198   -1.9660    4.5209 C   0  0  0  0  0  0  0  0  0  0  0  0
    3.0201   -2.8148    5.2697 C   0  0  0  0  0  0  0  0  0  0  0  0
    3.6761   -4.0636    5.5218 O   0  0  0  0  0  0  0  0  0  0  0  0
    4.8117   -4.1242    4.7618 C   0  0  0  0  0  0  0  0  0  0  0  0
    5.5160   -5.1164    4.6774 O   0  0  0  0  0  0  0  0  0  0  0  0
    7.0998   -3.6041   -1.5754 C   0  0  0  0  0  0  0  0  0  0  0  0
    7.7646   -4.6925   -1.0822 C   0  0  0  0  0  0  0  0  0  0  0  0
    8.7734   -5.1812   -1.8373 C   0  0  0  0  0  0  0  0  0  0  0  0
    9.2670   -4.6035   -2.9645 C   0  0  0  0  0  0  0  0  0  0  0  0
   10.5049   -4.7113   -2.7510 N   0  0  0  0  0  0  0  0  0  0  0  0
   10.9764   -5.7378   -3.3909 C   0  0  0  0  0  0  0  0  0  0  0  0
   11.3981   -5.5734   -4.6400 C   0  0  0  0  0  0  0  0  0  0  0  0
   12.6896   -6.7737   -4.2134 C   0  0  0  0  0  0  0  0  0  0  0  0
   12.8189   -7.9908   -3.2561 C   0  0  0  0  0  0  0  0  0  0  0  0
   13.9200   -8.7910   -3.3508 N   0  0  0  0  0  0  0  0  0  0  0  0
   14.6509   -8.2750   -4.3475 N   0  0  0  0  0  0  0  0  0  0  0  0
   15.8883   -8.9799   -4.8292 C   0  0  0  0  0  0  0  0  0  0  0  0
   13.9824   -7.0699   -4.8262 C   0  0  0  0  0  0  0  0  0  0  0  0
   10.1944   -4.5498   -4.8920 N   0  0  0  0  0  0  0  0  0  0  0  0
    8.9066   -3.8419   -3.9316 C   0  0  0  0  0  0  0  0  0  0  0  0
    7.6083   -3.1261   -2.9668 C   0  0  0  0  0  0  0  0  0  0  0  0
    3.9732   -2.8111   -2.1026 C   0  0  0  0  0  0  0  0  0  0  0  0
    0.0963   -3.2044   -4.0401 H   0  0  0  0  0  0  0  0  0  0  0  0
    0.7695   -1.5648   -4.0346 H   0  0  0  0  0  0  0  0  0  0  0  0
    0.1263   -2.3034   -2.5208 H   0  0  0  0  0  0  0  0  0  0  0  0
    1.5781   -0.5714   -2.2160 H   0  0  0  0  0  0  0  0  0  0  0  0
    1.8857    2.3671   -0.3674 H   0  0  0  0  0  0  0  0  0  0  0  0
    1.1218    0.7806   -0.5379 H   0  0  0  0  0  0  0  0  0  0  0  0
    1.8995    1.5836   -1.9536 H   0  0  0  0  0  0  0  0  0  0  0  0
    5.3727   -0.4836   -0.1711 H   0  0  0  0  0  0  0  0  0  0  0  0
    6.9761   -1.6157    0.7620 H   0  0  0  0  0  0  0  0  0  0  0  0
    7.4862   -3.3235    0.8330 H   0  0  0  0  0  0  0  0  0  0  0  0
    5.5426   -3.9925    1.8316 H   0  0  0  0  0  0  0  0  0  0  0  0
    4.7876   -2.2794    1.6567 H   0  0  0  0  0  0  0  0  0  0  0  0
    6.3374   -1.5423    3.2773 H   0  0  0  0  0  0  0  0  0  0  0  0
    6.9539   -3.2424    3.4262 H   0  0  0  0  0  0  0  0  0  0  0  0
    3.5754   -1.4754    3.6509 H   0  0  0  0  0  0  0  0  0  0  0  0
    4.4838   -1.2024    5.1530 H   0  0  0  0  0  0  0  0  0  0  0  0
    2.1269   -3.0058    4.6661 H   0  0  0  0  0  0  0  0  0  0  0  0
    2.7082   -2.3639    6.2163 H   0  0  0  0  0  0  0  0  0  0  0  0
    7.6976   -5.1074   -0.0819 H   0  0  0  0  0  0  0  0  0  0  0  0
    9.4111   -5.9617   -1.4338 H   0  0  0  0  0  0  0  0  0  0  0  0
   11.2274   -6.4699   -2.6548 H   0  0  0  0  0  0  0  0  0  0  0  0
   12.1680   -8.3816   -2.4749 H   0  0  0  0  0  0  0  0  0  0  0  0
   16.1787   -9.8742   -4.2315 H   0  0  0  0  0  0  0  0  0  0  0  0
   16.7666   -8.3173   -4.8257 H   0  0  0  0  0  0  0  0  0  0  0  0
   15.7371   -9.3461   -5.8546 H   0  0  0  0  0  0  0  0  0  0  0  0
   14.5666   -6.6002   -5.5917 H   0  0  0  0  0  0  0  0  0  0  0  0
    7.0240   -2.1863   -3.1490 H   0  0  0  0  0  0  0  0  0  0  0  0
    4.0591   -3.6479   -2.7565 H   0  0  0  0  0  0  0  0  0  0  0  0
  1  2  1  0  0  0  0
  1 37  1  0  0  0  0
  1 38  1  0  0  0  0
  1 39  1  0  0  0  0
  2  3  1  0  0  0  0
  3  4  1  0  0  0  0
  3 36  2  0  0  0  0
  4  5  2  0  0  0  0
  4 40  1  0  0  0  0
  5  6  1  0  0  0  0
  5  8  1  0  0  0  0
  6  7  1  0  0  0  0
  7 41  1  0  0  0  0
  7 42  1  0  0  0  0
  7 43  1  0  0  0  0
  8  9  2  0  0  0  0
  8 44  1  0  0  0  0
  9 10  1  0  0  0  0
  9 36  1  0  0  0  0
 10 11  1  0  0  0  0
 10 20  1  0  0  0  0
 11 12  1  0  0  0  0
 11 45  1  0  0  0  0
 11 46  1  0  0  0  0
 12 13  1  0  0  0  0
 12 47  1  0  0  0  0
 12 48  1  0  0  0  0
 13 14  1  0  0  0  0
 13 49  1  0  0  0  0
 13 50  1  0  0  0  0
 14 15  1  0  0  0  0
 14 18  1  0  0  0  0
 15 16  1  0  0  0  0
 15 51  1  0  0  0  0
 15 52  1  0  0  0  0
 16 17  1  0  0  0  0
 16 53  1  0  0  0  0
 16 54  1  0  0  0  0
 17 18  1  0  0  0  0
 18 19  2  0  0  0  0
 20 21  1  0  0  0  0
 20 35  2  0  0  0  0
 21 22  2  0  0  0  0
 21 55  1  0  0  0  0
 22 23  1  0  0  0  0
 22 56  1  0  0  0  0
 23 24  1  0  0  0  0
 23 34  2  0  0  0  0
 24 25  2  0  0  0  0
 25 26  1  0  0  0  0
 25 57  1  0  0  0  0
 26 27  1  0  0  0  0
 26 33  2  0  0  0  0
 27 28  1  0  0  0  0
 27 32  2  0  0  0  0
 28 29  2  0  0  0  0
 28 58  1  0  0  0  0
 29 30  1  0  0  0  0
 30 31  1  0  0  0  0
 30 32  1  0  0  0  0
 31 59  1  0  0  0  0
 31 60  1  0  0  0  0
 31 61  1  0  0  0  0
 32 62  1  0  0  0  0
 33 34  1  0  0  0  0
 34 35  1  0  0  0  0
 35 63  1  0  0  0  0
 36 64  1  0  0  0  0
M  END
$$$$
