CHEMBL460077
 OpenBabel04072215383D

 58 62  0  0  0  0  0  0  0  0999 V2000
    4.3484    5.9762   -3.8968 C   0  0  0  0  0  0  0  0  0  0  0  0
    4.9113    5.0079   -3.0115 O   0  0  0  0  0  0  0  0  0  0  0  0
    4.8964    3.7081   -3.4571 C   0  0  0  0  0  0  0  0  0  0  0  0
    4.3806    3.2828   -4.6856 C   0  0  0  0  0  0  0  0  0  0  0  0
    4.5087    1.9570   -5.1091 C   0  0  0  0  0  0  0  0  0  0  0  0
    5.1470    1.0137   -4.3164 C   0  0  0  0  0  0  0  0  0  0  0  0
    5.2912   -0.3237   -4.7760 N   0  0  0  0  0  0  0  0  0  0  0  0
    4.9331   -0.8122   -6.0191 C   0  0  0  0  0  0  0  0  0  0  0  0
    4.5751   -2.1180   -6.0595 N   0  0  0  0  0  0  0  0  0  0  0  0
    5.3627   -2.5797   -7.0300 N   0  0  0  0  0  0  0  0  0  0  0  0
    5.6248   -3.9576   -7.3620 C   0  0  0  0  0  0  0  0  0  0  0  0
    6.0388   -1.6273   -7.7120 C   0  0  0  0  0  0  0  0  0  0  0  0
    6.9542   -1.9144   -8.7159 C   0  0  0  0  0  0  0  0  0  0  0  0
    7.2297   -0.9825   -9.6765 C   0  0  0  0  0  0  0  0  0  0  0  0
    7.4794   -1.6945  -10.8922 O   0  0  0  0  0  0  0  0  0  0  0  0
    7.2543   -1.2085  -12.2537 C   0  0  0  0  0  0  0  0  0  0  0  0
    6.6233    0.2605  -12.8496 C   0  0  0  0  0  0  0  0  0  0  0  0
    6.9851    0.9287  -14.0018 C   0  0  0  0  0  0  0  0  0  0  0  0
    7.5999   -0.1053  -14.1078 N   0  0  0  0  0  0  0  0  0  0  0  0
    8.3219   -1.1468  -14.2809 C   0  0  0  0  0  0  0  0  0  0  0  0
    9.1054   -1.1805  -15.3514 C   0  0  0  0  0  0  0  0  0  0  0  0
   10.0746   -2.1121  -15.3555 C   0  0  0  0  0  0  0  0  0  0  0  0
   10.9346   -2.0895  -16.4176 O   0  0  0  0  0  0  0  0  0  0  0  0
   10.3683   -1.6031  -17.6487 C   0  0  0  0  0  0  0  0  0  0  0  0
   10.1626   -2.9948  -14.2396 C   0  0  0  0  0  0  0  0  0  0  0  0
   11.0874   -4.0108  -14.1525 O   0  0  0  0  0  0  0  0  0  0  0  0
   11.4659   -4.5426  -15.4266 C   0  0  0  0  0  0  0  0  0  0  0  0
    9.2725   -2.8587  -13.1109 C   0  0  0  0  0  0  0  0  0  0  0  0
    8.2542   -1.8697  -13.1315 C   0  0  0  0  0  0  0  0  0  0  0  0
    6.8158    0.3348   -9.3415 C   0  0  0  0  0  0  0  0  0  0  0  0
    6.0069    0.6676   -8.1106 C   0  0  0  0  0  0  0  0  0  0  0  0
    5.5636   -0.4103   -7.2881 C   0  0  0  0  0  0  0  0  0  0  0  0
    5.6795    1.4442   -3.0800 C   0  0  0  0  0  0  0  0  0  0  0  0
    5.5243    2.7725   -2.6395 C   0  0  0  0  0  0  0  0  0  0  0  0
    4.5250    6.9685   -3.4747 H   0  0  0  0  0  0  0  0  0  0  0  0
    3.2682    5.8218   -3.9691 H   0  0  0  0  0  0  0  0  0  0  0  0
    4.8068    5.9753   -4.8944 H   0  0  0  0  0  0  0  0  0  0  0  0
    3.9251    4.0083   -5.3510 H   0  0  0  0  0  0  0  0  0  0  0  0
    4.0893    1.6755   -6.0625 H   0  0  0  0  0  0  0  0  0  0  0  0
    4.6959   -0.8493   -4.1469 H   0  0  0  0  0  0  0  0  0  0  0  0
    5.0910   -4.6584   -6.7436 H   0  0  0  0  0  0  0  0  0  0  0  0
    6.7117   -4.0869   -7.2415 H   0  0  0  0  0  0  0  0  0  0  0  0
    5.3897   -4.0893   -8.4303 H   0  0  0  0  0  0  0  0  0  0  0  0
    7.2494   -2.9366   -8.8844 H   0  0  0  0  0  0  0  0  0  0  0  0
    5.8333    0.8771  -12.4114 H   0  0  0  0  0  0  0  0  0  0  0  0
    7.3825    1.3086  -14.9504 H   0  0  0  0  0  0  0  0  0  0  0  0
    8.9415   -0.3812  -16.0519 H   0  0  0  0  0  0  0  0  0  0  0  0
   11.1323   -1.6960  -18.4162 H   0  0  0  0  0  0  0  0  0  0  0  0
   10.0983   -0.5446  -17.5584 H   0  0  0  0  0  0  0  0  0  0  0  0
    9.5051   -2.2090  -17.9554 H   0  0  0  0  0  0  0  0  0  0  0  0
   12.0635   -5.4444  -15.2841 H   0  0  0  0  0  0  0  0  0  0  0  0
   12.1020   -3.8325  -15.9641 H   0  0  0  0  0  0  0  0  0  0  0  0
   10.5867   -4.8371  -16.0176 H   0  0  0  0  0  0  0  0  0  0  0  0
    9.4257   -3.4203  -12.1944 H   0  0  0  0  0  0  0  0  0  0  0  0
    7.0919    1.2068   -9.9429 H   0  0  0  0  0  0  0  0  0  0  0  0
    5.6500    1.6946   -7.9321 H   0  0  0  0  0  0  0  0  0  0  0  0
    6.2438    0.7674   -2.4450 H   0  0  0  0  0  0  0  0  0  0  0  0
    5.9051    3.0753   -1.6651 H   0  0  0  0  0  0  0  0  0  0  0  0
  1  2  1  0  0  0  0
  1 35  1  0  0  0  0
  1 36  1  0  0  0  0
  1 37  1  0  0  0  0
  2  3  1  0  0  0  0
  3  4  1  0  0  0  0
  3 34  2  0  0  0  0
  4  5  2  0  0  0  0
  4 38  1  0  0  0  0
  5  6  1  0  0  0  0
  5 39  1  0  0  0  0
  6  7  1  0  0  0  0
  6 33  2  0  0  0  0
  7  8  1  0  0  0  0
  7 40  1  0  0  0  0
  8  9  2  0  0  0  0
  8 32  1  0  0  0  0
  9 10  1  0  0  0  0
 10 11  1  0  0  0  0
 10 12  1  0  0  0  0
 11 41  1  0  0  0  0
 11 42  1  0  0  0  0
 11 43  1  0  0  0  0
 12 13  1  0  0  0  0
 12 32  2  0  0  0  0
 13 14  2  0  0  0  0
 13 44  1  0  0  0  0
 14 15  1  0  0  0  0
 14 30  1  0  0  0  0
 15 16  1  0  0  0  0
 16 17  1  0  0  0  0
 16 29  2  0  0  0  0
 17 18  2  0  0  0  0
 17 45  1  0  0  0  0
 18 19  1  0  0  0  0
 18 46  1  0  0  0  0
 19 20  2  0  0  0  0
 20 21  1  0  0  0  0
 20 29  1  0  0  0  0
 21 22  2  0  0  0  0
 21 47  1  0  0  0  0
 22 23  1  0  0  0  0
 22 25  1  0  0  0  0
 23 24  1  0  0  0  0
 24 48  1  0  0  0  0
 24 49  1  0  0  0  0
 24 50  1  0  0  0  0
 25 26  1  0  0  0  0
 25 28  2  0  0  0  0
 26 27  1  0  0  0  0
 27 51  1  0  0  0  0
 27 52  1  0  0  0  0
 27 53  1  0  0  0  0
 28 29  1  0  0  0  0
 28 54  1  0  0  0  0
 30 31  2  0  0  0  0
 30 55  1  0  0  0  0
 31 32  1  0  0  0  0
 31 56  1  0  0  0  0
 33 34  1  0  0  0  0
 33 57  1  0  0  0  0
 34 58  1  0  0  0  0
M  END
$$$$
