CHEMBL4437058
 OpenBabel04072215383D

 63 67  0  0  0  0  0  0  0  0999 V2000
    3.2170   -0.5280   10.3986 C   0  0  0  0  0  0  0  0  0  0  0  0
    3.8767   -0.5701    9.1370 O   0  0  0  0  0  0  0  0  0  0  0  0
    4.9007    0.3224    8.9514 C   0  0  0  0  0  0  0  0  0  0  0  0
    5.2186    1.3714    9.8191 C   0  0  0  0  0  0  0  0  0  0  0  0
    6.2978    2.2050    9.5393 C   0  0  0  0  0  0  0  0  0  0  0  0
    6.7419    3.2440   10.3093 O   0  0  0  0  0  0  0  0  0  0  0  0
    6.1440    3.3943   11.5893 C   0  0  0  0  0  0  0  0  0  0  0  0
    7.0589    1.9806    8.3942 C   0  0  0  0  0  0  0  0  0  0  0  0
    6.8144    0.8897    7.5425 C   0  0  0  0  0  0  0  0  0  0  0  0
    7.7950    0.5297    6.4961 C   0  0  0  0  0  0  0  0  0  0  0  0
    9.1698    0.6707    6.7464 C   0  0  0  0  0  0  0  0  0  0  0  0
   10.1228    0.2843    5.7982 C   0  0  0  0  0  0  0  0  0  0  0  0
    9.6328   -0.2600    4.6003 C   0  0  0  0  0  0  0  0  0  0  0  0
   10.1610   -0.7999    3.3944 C   0  0  0  0  0  0  0  0  0  0  0  0
   11.5097   -0.9219    3.0842 N   0  0  0  0  0  0  0  0  0  0  0  0
   11.9501   -1.4492    1.8817 C   0  0  0  0  0  0  0  0  0  0  0  0
   11.2435   -1.8342    0.9537 O   0  0  0  0  0  0  0  0  0  0  0  0
   13.4215   -1.5503    1.6681 C   0  0  0  0  0  0  0  0  0  0  0  0
   14.3581   -1.6431    2.6934 C   0  0  0  0  0  0  0  0  0  0  0  0
   15.7108   -1.8412    2.3745 C   0  0  0  0  0  0  0  0  0  0  0  0
   16.1656   -1.9594    1.0470 C   0  0  0  0  0  0  0  0  0  0  0  0
   17.4901   -2.2456    0.7891 N   0  0  0  0  0  0  0  0  0  0  0  0
   17.9329   -2.8854   -0.4607 C   0  0  0  0  0  0  0  0  0  0  0  0
   19.1602   -3.7829   -0.1579 C   0  0  0  0  0  0  0  0  0  0  0  0
   20.2634   -3.0456    0.5048 N   0  0  0  0  0  0  0  0  0  0  0  0
   21.3652   -3.9477    0.8264 C   0  0  0  0  0  0  0  0  0  0  0  0
   19.7497   -2.3999    1.7353 C   0  0  0  0  0  0  0  0  0  0  0  0
   18.5501   -1.4706    1.4521 C   0  0  0  0  0  0  0  0  0  0  0  0
   15.2075   -1.8547    0.0376 C   0  0  0  0  0  0  0  0  0  0  0  0
   13.8604   -1.6484    0.3403 C   0  0  0  0  0  0  0  0  0  0  0  0
    9.1740   -1.1925    2.5861 N   0  0  0  0  0  0  0  0  0  0  0  0
    8.0461   -0.9102    3.2496 N   0  0  0  0  0  0  0  0  0  0  0  0
    8.2541   -0.3542    4.4720 C   0  0  0  0  0  0  0  0  0  0  0  0
    7.2994    0.0076    5.3503 N   0  0  0  0  0  0  0  0  0  0  0  0
    5.6835    0.1015    7.8096 C   0  0  0  0  0  0  0  0  0  0  0  0
    2.5238   -1.3728   10.4489 H   0  0  0  0  0  0  0  0  0  0  0  0
    2.6321    0.3921   10.5007 H   0  0  0  0  0  0  0  0  0  0  0  0
    3.9276   -0.6360   11.2261 H   0  0  0  0  0  0  0  0  0  0  0  0
    4.6290    1.5378   10.7100 H   0  0  0  0  0  0  0  0  0  0  0  0
    6.6810    4.1883   12.1163 H   0  0  0  0  0  0  0  0  0  0  0  0
    6.2360    2.4796   12.1853 H   0  0  0  0  0  0  0  0  0  0  0  0
    5.0983    3.7007   11.4915 H   0  0  0  0  0  0  0  0  0  0  0  0
    7.8886    2.6552    8.1930 H   0  0  0  0  0  0  0  0  0  0  0  0
    9.5156    1.0565    7.7017 H   0  0  0  0  0  0  0  0  0  0  0  0
   11.1798    0.3882    6.0053 H   0  0  0  0  0  0  0  0  0  0  0  0
   12.1627   -0.5634    3.7608 H   0  0  0  0  0  0  0  0  0  0  0  0
   14.0750   -1.6288    3.7394 H   0  0  0  0  0  0  0  0  0  0  0  0
   16.4143   -1.9810    3.1930 H   0  0  0  0  0  0  0  0  0  0  0  0
   18.1944   -2.1232   -1.2060 H   0  0  0  0  0  0  0  0  0  0  0  0
   17.1520   -3.5249   -0.8888 H   0  0  0  0  0  0  0  0  0  0  0  0
   19.5171   -4.2154   -1.0998 H   0  0  0  0  0  0  0  0  0  0  0  0
   18.8293   -4.6145    0.4804 H   0  0  0  0  0  0  0  0  0  0  0  0
   21.7692   -4.3979   -0.0865 H   0  0  0  0  0  0  0  0  0  0  0  0
   21.0614   -4.7528    1.5050 H   0  0  0  0  0  0  0  0  0  0  0  0
   22.1855   -3.3932    1.2953 H   0  0  0  0  0  0  0  0  0  0  0  0
   20.5444   -1.8068    2.2015 H   0  0  0  0  0  0  0  0  0  0  0  0
   19.4363   -3.1633    2.4613 H   0  0  0  0  0  0  0  0  0  0  0  0
   18.8604   -0.6436    0.7996 H   0  0  0  0  0  0  0  0  0  0  0  0
   18.2247   -1.0211    2.3957 H   0  0  0  0  0  0  0  0  0  0  0  0
   15.4850   -1.9378   -1.0099 H   0  0  0  0  0  0  0  0  0  0  0  0
   13.1420   -1.5938   -0.4774 H   0  0  0  0  0  0  0  0  0  0  0  0
    7.1605   -1.1298    2.8182 H   0  0  0  0  0  0  0  0  0  0  0  0
    5.4366   -0.7331    7.1540 H   0  0  0  0  0  0  0  0  0  0  0  0
  1  2  1  0  0  0  0
  1 36  1  0  0  0  0
  1 37  1  0  0  0  0
  1 38  1  0  0  0  0
  2  3  1  0  0  0  0
  3  4  1  0  0  0  0
  3 35  2  0  0  0  0
  4  5  2  0  0  0  0
  4 39  1  0  0  0  0
  5  6  1  0  0  0  0
  5  8  1  0  0  0  0
  6  7  1  0  0  0  0
  7 40  1  0  0  0  0
  7 41  1  0  0  0  0
  7 42  1  0  0  0  0
  8  9  2  0  0  0  0
  8 43  1  0  0  0  0
  9 10  1  0  0  0  0
  9 35  1  0  0  0  0
 10 11  1  0  0  0  0
 10 34  2  0  0  0  0
 11 12  2  0  0  0  0
 11 44  1  0  0  0  0
 12 13  1  0  0  0  0
 12 45  1  0  0  0  0
 13 14  1  0  0  0  0
 13 33  2  0  0  0  0
 14 15  1  0  0  0  0
 14 31  2  0  0  0  0
 15 16  1  0  0  0  0
 15 46  1  0  0  0  0
 16 17  2  0  0  0  0
 16 18  1  0  0  0  0
 18 19  1  0  0  0  0
 18 30  2  0  0  0  0
 19 20  2  0  0  0  0
 19 47  1  0  0  0  0
 20 21  1  0  0  0  0
 20 48  1  0  0  0  0
 21 22  1  0  0  0  0
 21 29  2  0  0  0  0
 22 23  1  0  0  0  0
 22 28  1  0  0  0  0
 23 24  1  0  0  0  0
 23 49  1  0  0  0  0
 23 50  1  0  0  0  0
 24 25  1  0  0  0  0
 24 51  1  0  0  0  0
 24 52  1  0  0  0  0
 25 26  1  0  0  0  0
 25 27  1  0  0  0  0
 26 53  1  0  0  0  0
 26 54  1  0  0  0  0
 26 55  1  0  0  0  0
 27 28  1  0  0  0  0
 27 56  1  0  0  0  0
 27 57  1  0  0  0  0
 28 58  1  0  0  0  0
 28 59  1  0  0  0  0
 29 30  1  0  0  0  0
 29 60  1  0  0  0  0
 30 61  1  0  0  0  0
 31 32  1  0  0  0  0
 32 33  1  0  0  0  0
 32 62  1  0  0  0  0
 33 34  1  0  0  0  0
 35 63  1  0  0  0  0
M  END
$$$$
