CHEMBL4559188
 OpenBabel04072215383D

 47 50  0  0  0  0  0  0  0  0999 V2000
    2.5637    1.2888    0.0661 O   0  0  0  0  0  0  0  0  0  0  0  0
    2.1548    0.2582    0.5548 C   0  0  0  0  0  0  0  0  0  0  0  0
    0.8227   -0.0807    0.7229 N   0  0  0  0  0  0  0  0  0  0  0  0
   -0.2685    0.7593    0.4128 C   0  0  0  0  0  0  0  0  0  0  0  0
   -0.1573    1.9437   -0.3237 C   0  0  0  0  0  0  0  0  0  0  0  0
   -1.2640    2.7771   -0.5116 C   0  0  0  0  0  0  0  0  0  0  0  0
   -2.4971    2.4164    0.0184 C   0  0  0  0  0  0  0  0  0  0  0  0
   -3.8487    3.4616   -0.1735 Cl  0  0  0  0  0  0  0  0  0  0  0  0
   -2.6361    1.2180    0.7125 C   0  0  0  0  0  0  0  0  0  0  0  0
   -1.5257    0.3873    0.9022 C   0  0  0  0  0  0  0  0  0  0  0  0
    2.9959   -0.7395    1.0508 N   0  0  0  0  0  0  0  0  0  0  0  0
    4.4131   -0.6630    1.1619 C   0  0  0  0  0  0  0  0  0  0  0  0
    5.1473    0.5013    0.9231 C   0  0  0  0  0  0  0  0  0  0  0  0
    6.5412    0.5062    1.0148 C   0  0  0  0  0  0  0  0  0  0  0  0
    7.2074   -0.6730    1.3357 C   0  0  0  0  0  0  0  0  0  0  0  0
    8.6835   -0.6788    1.3970 C   0  0  0  0  0  0  0  0  0  0  0  0
    9.2699    0.2190    1.9886 O   0  0  0  0  0  0  0  0  0  0  0  0
    9.2813   -1.7583    0.7455 N   0  0  0  0  0  0  0  0  0  0  0  0
   10.3424   -2.3262    1.3731 N   0  0  0  0  0  0  0  0  0  0  0  0
   10.6415   -3.5235    0.9846 C   0  0  0  0  0  0  0  0  0  0  0  0
   10.1009   -4.3212   -0.2040 C   0  0  0  0  0  0  0  0  0  0  0  0
    9.5636   -3.8604   -1.1846 O   0  0  0  0  0  0  0  0  0  0  0  0
   10.2888   -5.6395    0.1522 N   0  0  0  0  0  0  0  0  0  0  0  0
   10.7294   -5.7161    1.4669 C   0  0  0  0  0  0  0  0  0  0  0  0
   10.4485   -6.7119    2.3791 C   0  0  0  0  0  0  0  0  0  0  0  0
   10.7224   -6.4369    3.7299 C   0  0  0  0  0  0  0  0  0  0  0  0
   11.3611   -5.2403    4.1209 C   0  0  0  0  0  0  0  0  0  0  0  0
   11.6928   -4.9077    5.9510 Br  0  0  0  0  0  0  0  0  0  0  0  0
   11.6312   -4.2411    3.1963 C   0  0  0  0  0  0  0  0  0  0  0  0
   11.2310   -4.4894    1.8984 C   0  0  0  0  0  0  0  0  0  0  0  0
    6.4818   -1.8278    1.6484 C   0  0  0  0  0  0  0  0  0  0  0  0
    5.0880   -1.8243    1.5550 C   0  0  0  0  0  0  0  0  0  0  0  0
    0.6261   -0.8981    1.2757 H   0  0  0  0  0  0  0  0  0  0  0  0
    0.7823    2.2657   -0.7630 H   0  0  0  0  0  0  0  0  0  0  0  0
   -1.1435    3.7077   -1.0601 H   0  0  0  0  0  0  0  0  0  0  0  0
   -3.6014    0.9319    1.1229 H   0  0  0  0  0  0  0  0  0  0  0  0
   -1.6568   -0.5329    1.4643 H   0  0  0  0  0  0  0  0  0  0  0  0
    2.5831   -1.6424    1.2281 H   0  0  0  0  0  0  0  0  0  0  0  0
    4.6728    1.4406    0.6569 H   0  0  0  0  0  0  0  0  0  0  0  0
    7.0978    1.4193    0.8203 H   0  0  0  0  0  0  0  0  0  0  0  0
    8.6701   -2.3535    0.1892 H   0  0  0  0  0  0  0  0  0  0  0  0
   10.1922   -6.4071   -0.4979 H   0  0  0  0  0  0  0  0  0  0  0  0
    9.8613   -7.5834    2.1052 H   0  0  0  0  0  0  0  0  0  0  0  0
   10.3670   -7.1253    4.4945 H   0  0  0  0  0  0  0  0  0  0  0  0
   12.0018   -3.2605    3.4833 H   0  0  0  0  0  0  0  0  0  0  0  0
    6.9938   -2.7276    1.9829 H   0  0  0  0  0  0  0  0  0  0  0  0
    4.5468   -2.7363    1.7912 H   0  0  0  0  0  0  0  0  0  0  0  0
  1  2  2  0  0  0  0
  2  3  1  0  0  0  0
  2 11  1  0  0  0  0
  3  4  1  0  0  0  0
  3 33  1  0  0  0  0
  4  5  1  0  0  0  0
  4 10  2  0  0  0  0
  5  6  2  0  0  0  0
  5 34  1  0  0  0  0
  6  7  1  0  0  0  0
  6 35  1  0  0  0  0
  7  8  1  0  0  0  0
  7  9  2  0  0  0  0
  9 10  1  0  0  0  0
  9 36  1  0  0  0  0
 10 37  1  0  0  0  0
 11 12  1  0  0  0  0
 11 38  1  0  0  0  0
 12 13  1  0  0  0  0
 12 32  2  0  0  0  0
 13 14  2  0  0  0  0
 13 39  1  0  0  0  0
 14 15  1  0  0  0  0
 14 40  1  0  0  0  0
 15 16  1  0  0  0  0
 15 31  2  0  0  0  0
 16 17  2  0  0  0  0
 16 18  1  0  0  0  0
 18 19  1  0  0  0  0
 18 41  1  0  0  0  0
 19 20  2  0  0  0  0
 20 21  1  0  0  0  0
 20 30  1  0  0  0  0
 21 22  2  0  0  0  0
 21 23  1  0  0  0  0
 23 24  1  0  0  0  0
 23 42  1  0  0  0  0
 24 25  1  0  0  0  0
 24 30  2  0  0  0  0
 25 26  2  0  0  0  0
 25 43  1  0  0  0  0
 26 27  1  0  0  0  0
 26 44  1  0  0  0  0
 27 28  1  0  0  0  0
 27 29  2  0  0  0  0
 29 30  1  0  0  0  0
 29 45  1  0  0  0  0
 31 32  1  0  0  0  0
 31 46  1  0  0  0  0
 32 47  1  0  0  0  0
M  END
$$$$
