CHEMBL3323597
 OpenBabel04072215363D

 43 47  0  0  0  0  0  0  0  0999 V2000
    1.5457    0.3671   -1.9116 O   0  0  0  0  0  0  0  0  0  0  0  0
    0.5621    0.1609   -0.9744 C   0  0  0  0  0  0  0  0  0  0  0  0
   -0.1253   -1.0564   -0.9735 C   0  0  0  0  0  0  0  0  0  0  0  0
   -1.1181   -1.2933   -0.0219 C   0  0  0  0  0  0  0  0  0  0  0  0
   -1.4248   -0.3182    0.9229 C   0  0  0  0  0  0  0  0  0  0  0  0
   -0.7387    0.8972    0.9160 C   0  0  0  0  0  0  0  0  0  0  0  0
    0.2652    1.1589   -0.0316 C   0  0  0  0  0  0  0  0  0  0  0  0
    0.9648    2.4466    0.0261 C   0  0  0  0  0  0  0  0  0  0  0  0
    0.7909    3.3890    0.9358 N   0  0  0  0  0  0  0  0  0  0  0  0
    1.6885    4.3768    0.6312 C   0  0  0  0  0  0  0  0  0  0  0  0
    1.9518    5.5704    1.3045 C   0  0  0  0  0  0  0  0  0  0  0  0
    2.9484    6.4089    0.7940 C   0  0  0  0  0  0  0  0  0  0  0  0
    3.6381    6.1178   -0.3972 C   0  0  0  0  0  0  0  0  0  0  0  0
    4.6472    6.9889   -0.8789 N   0  0  0  0  0  0  0  0  0  0  0  0
    4.7225    8.3882   -0.6279 C   0  0  0  0  0  0  0  0  0  0  0  0
    3.5597    9.1641   -0.6328 C   0  0  0  0  0  0  0  0  0  0  0  0
    3.6515   10.4946   -0.2901 C   0  0  0  0  0  0  0  0  0  0  0  0
    4.8098   11.1076    0.0179 N   0  0  0  0  0  0  0  0  0  0  0  0
    5.9405   10.3851   -0.0361 C   0  0  0  0  0  0  0  0  0  0  0  0
    7.1342   11.0119    0.2905 C   0  0  0  0  0  0  0  0  0  0  0  0
    8.3570   10.3386    0.2557 C   0  0  0  0  0  0  0  0  0  0  0  0
    8.3970    9.0030   -0.1203 C   0  0  0  0  0  0  0  0  0  0  0  0
    7.2100    8.3420   -0.4334 C   0  0  0  0  0  0  0  0  0  0  0  0
    5.9674    9.0149   -0.3854 C   0  0  0  0  0  0  0  0  0  0  0  0
    3.3973    4.8992   -1.0545 C   0  0  0  0  0  0  0  0  0  0  0  0
    2.4125    4.0646   -0.5115 C   0  0  0  0  0  0  0  0  0  0  0  0
    1.9305    2.8365   -0.8745 N   0  0  0  0  0  0  0  0  0  0  0  0
    1.6682   -0.4609   -2.4078 H   0  0  0  0  0  0  0  0  0  0  0  0
    0.0968   -1.8302   -1.7011 H   0  0  0  0  0  0  0  0  0  0  0  0
   -1.6524   -2.2397   -0.0154 H   0  0  0  0  0  0  0  0  0  0  0  0
   -2.1948   -0.4994    1.6686 H   0  0  0  0  0  0  0  0  0  0  0  0
   -0.9856    1.6512    1.6633 H   0  0  0  0  0  0  0  0  0  0  0  0
    1.4103    5.8240    2.2085 H   0  0  0  0  0  0  0  0  0  0  0  0
    3.1787    7.3117    1.3556 H   0  0  0  0  0  0  0  0  0  0  0  0
    4.9806    6.7607   -1.8083 H   0  0  0  0  0  0  0  0  0  0  0  0
    2.5924    8.7316   -0.8638 H   0  0  0  0  0  0  0  0  0  0  0  0
    2.7647   11.1189   -0.2372 H   0  0  0  0  0  0  0  0  0  0  0  0
    7.1076   12.0566    0.5920 H   0  0  0  0  0  0  0  0  0  0  0  0
    9.2698   10.8617    0.5271 H   0  0  0  0  0  0  0  0  0  0  0  0
    9.3449    8.4725   -0.1548 H   0  0  0  0  0  0  0  0  0  0  0  0
    7.2543    7.2894   -0.7034 H   0  0  0  0  0  0  0  0  0  0  0  0
    3.9446    4.6124   -1.9450 H   0  0  0  0  0  0  0  0  0  0  0  0
    2.2279    2.2666   -1.6539 H   0  0  0  0  0  0  0  0  0  0  0  0
  1  2  1  0  0  0  0
  1 28  1  0  0  0  0
  2  3  1  0  0  0  0
  2  7  2  0  0  0  0
  3  4  2  0  0  0  0
  3 29  1  0  0  0  0
  4  5  1  0  0  0  0
  4 30  1  0  0  0  0
  5  6  2  0  0  0  0
  5 31  1  0  0  0  0
  6  7  1  0  0  0  0
  6 32  1  0  0  0  0
  7  8  1  0  0  0  0
  8  9  2  0  0  0  0
  8 27  1  0  0  0  0
  9 10  1  0  0  0  0
 10 11  1  0  0  0  0
 10 26  2  0  0  0  0
 11 12  2  0  0  0  0
 11 33  1  0  0  0  0
 12 13  1  0  0  0  0
 12 34  1  0  0  0  0
 13 14  1  0  0  0  0
 13 25  2  0  0  0  0
 14 15  1  0  0  0  0
 14 35  1  0  0  0  0
 15 16  1  0  0  0  0
 15 24  2  0  0  0  0
 16 17  2  0  0  0  0
 16 36  1  0  0  0  0
 17 18  1  0  0  0  0
 17 37  1  0  0  0  0
 18 19  2  0  0  0  0
 19 20  1  0  0  0  0
 19 24  1  0  0  0  0
 20 21  2  0  0  0  0
 20 38  1  0  0  0  0
 21 22  1  0  0  0  0
 21 39  1  0  0  0  0
 22 23  2  0  0  0  0
 22 40  1  0  0  0  0
 23 24  1  0  0  0  0
 23 41  1  0  0  0  0
 25 26  1  0  0  0  0
 25 42  1  0  0  0  0
 26 27  1  0  0  0  0
 27 43  1  0  0  0  0
M  END
$$$$
