CHEMBL462667
 OpenBabel04072215383D

 63 68  0  0  0  0  0  0  0  0999 V2000
    3.4423   -2.1283   -2.0172 C   0  0  0  0  0  0  0  0  0  0  0  0
    3.7619   -0.7221   -1.7733 N   0  0  0  0  0  0  0  0  0  0  0  0
    3.1741    0.3417   -2.5043 C   0  0  0  0  0  0  0  0  0  0  0  0
    3.4340    1.5241   -2.3444 O   0  0  0  0  0  0  0  0  0  0  0  0
    2.1945    0.0270   -3.6277 C   0  0  0  0  0  0  0  0  0  0  0  0
    0.8491   -0.5062   -3.2783 C   0  0  0  0  0  0  0  0  0  0  0  0
    0.6240   -1.7036   -3.4535 O   0  0  0  0  0  0  0  0  0  0  0  0
   -0.0702    0.3833   -2.7683 N   0  0  0  0  0  0  0  0  0  0  0  0
   -1.3053   -0.0799   -2.2825 C   0  0  0  0  0  0  0  0  0  0  0  0
   -1.6676    0.1810   -0.9604 C   0  0  0  0  0  0  0  0  0  0  0  0
   -2.7860   -0.4613   -0.4110 C   0  0  0  0  0  0  0  0  0  0  0  0
   -3.5624   -1.3334   -1.1865 C   0  0  0  0  0  0  0  0  0  0  0  0
   -4.6123   -1.9319   -0.5334 O   0  0  0  0  0  0  0  0  0  0  0  0
   -5.7148   -2.3434   -1.2499 C   0  0  0  0  0  0  0  0  0  0  0  0
   -6.2907   -1.5852   -2.2676 C   0  0  0  0  0  0  0  0  0  0  0  0
   -7.3822   -2.0971   -2.9406 C   0  0  0  0  0  0  0  0  0  0  0  0
   -7.9851   -3.2710   -2.6748 N   0  0  0  0  0  0  0  0  0  0  0  0
   -7.4620   -3.9809   -1.6373 C   0  0  0  0  0  0  0  0  0  0  0  0
   -7.9453   -5.2436   -1.1788 C   0  0  0  0  0  0  0  0  0  0  0  0
   -7.2387   -5.7102   -0.0938 C   0  0  0  0  0  0  0  0  0  0  0  0
   -7.5135   -7.0059    0.5902 C   0  0  0  0  0  0  0  0  0  0  0  0
   -6.8971   -7.4429    1.7426 C   0  0  0  0  0  0  0  0  0  0  0  0
   -7.4266   -8.6757    1.9838 N   0  0  0  0  0  0  0  0  0  0  0  0
   -7.0941   -9.5400    3.0864 C   0  0  0  0  0  0  0  0  0  0  0  0
   -8.3239   -8.9451    0.9919 C   0  0  0  0  0  0  0  0  0  0  0  0
   -8.4164   -7.9432    0.1440 N   0  0  0  0  0  0  0  0  0  0  0  0
   -5.9953   -4.6386    0.3666 S   0  0  0  0  0  0  0  0  0  0  0  0
   -6.3599   -3.5421   -0.9029 C   0  0  0  0  0  0  0  0  0  0  0  0
   -3.1736   -1.5812   -2.5076 C   0  0  0  0  0  0  0  0  0  0  0  0
   -3.8222   -2.4717   -3.2747 F   0  0  0  0  0  0  0  0  0  0  0  0
   -2.0755   -0.9460   -3.0574 C   0  0  0  0  0  0  0  0  0  0  0  0
    2.7763   -0.4612   -4.9641 C   0  0  0  0  0  0  0  0  0  0  0  0
    2.2943    0.9468   -4.8535 C   0  0  0  0  0  0  0  0  0  0  0  0
    4.7986   -0.4836   -0.7857 C   0  0  0  0  0  0  0  0  0  0  0  0
    4.9246    0.7356   -0.1062 C   0  0  0  0  0  0  0  0  0  0  0  0
    5.9489    0.9517    0.8239 C   0  0  0  0  0  0  0  0  0  0  0  0
    6.8718   -0.0501    1.0999 C   0  0  0  0  0  0  0  0  0  0  0  0
    6.7561   -1.2783    0.4615 C   0  0  0  0  0  0  0  0  0  0  0  0
    5.7284   -1.4925   -0.4624 C   0  0  0  0  0  0  0  0  0  0  0  0
    2.4828   -2.2670   -2.4896 H   0  0  0  0  0  0  0  0  0  0  0  0
    3.3847   -2.6700   -1.0654 H   0  0  0  0  0  0  0  0  0  0  0  0
    4.2018   -2.5693   -2.6690 H   0  0  0  0  0  0  0  0  0  0  0  0
    0.0392    1.3721   -2.9646 H   0  0  0  0  0  0  0  0  0  0  0  0
   -1.0430    0.7994   -0.3188 H   0  0  0  0  0  0  0  0  0  0  0  0
   -3.0365   -0.3127    0.6372 H   0  0  0  0  0  0  0  0  0  0  0  0
   -5.8799   -0.6258   -2.5581 H   0  0  0  0  0  0  0  0  0  0  0  0
   -7.8190   -1.5401   -3.7664 H   0  0  0  0  0  0  0  0  0  0  0  0
   -8.7785   -5.7711   -1.6274 H   0  0  0  0  0  0  0  0  0  0  0  0
   -6.1524   -6.9921    2.3836 H   0  0  0  0  0  0  0  0  0  0  0  0
   -6.4432   -9.0048    3.7835 H   0  0  0  0  0  0  0  0  0  0  0  0
   -6.5759  -10.4179    2.6938 H   0  0  0  0  0  0  0  0  0  0  0  0
   -8.0168   -9.8300    3.5948 H   0  0  0  0  0  0  0  0  0  0  0  0
   -8.8749   -9.8752    0.9319 H   0  0  0  0  0  0  0  0  0  0  0  0
   -1.7954   -1.1746   -4.0829 H   0  0  0  0  0  0  0  0  0  0  0  0
    2.1719   -1.1525   -5.5541 H   0  0  0  0  0  0  0  0  0  0  0  0
    3.8388   -0.6414   -5.0305 H   0  0  0  0  0  0  0  0  0  0  0  0
    1.3808    1.2255   -5.3743 H   0  0  0  0  0  0  0  0  0  0  0  0
    3.0438    1.7192   -4.8781 H   0  0  0  0  0  0  0  0  0  0  0  0
    4.2131    1.5421   -0.2531 H   0  0  0  0  0  0  0  0  0  0  0  0
    6.0209    1.9115    1.3295 H   0  0  0  0  0  0  0  0  0  0  0  0
    7.6753    0.1248    1.8095 H   0  0  0  0  0  0  0  0  0  0  0  0
    7.4719   -2.0699    0.6706 H   0  0  0  0  0  0  0  0  0  0  0  0
    5.7054   -2.4655   -0.9481 H   0  0  0  0  0  0  0  0  0  0  0  0
  1  2  1  0  0  0  0
  1 40  1  0  0  0  0
  1 41  1  0  0  0  0
  1 42  1  0  0  0  0
  2  3  1  0  0  0  0
  2 34  1  0  0  0  0
  3  4  2  0  0  0  0
  3  5  1  0  0  0  0
  5  6  1  0  0  0  0
  5 32  1  0  0  0  0
  5 33  1  0  0  0  0
  6  7  2  0  0  0  0
  6  8  1  0  0  0  0
  8  9  1  0  0  0  0
  8 43  1  0  0  0  0
  9 10  1  0  0  0  0
  9 31  2  0  0  0  0
 10 11  2  0  0  0  0
 10 44  1  0  0  0  0
 11 12  1  0  0  0  0
 11 45  1  0  0  0  0
 12 13  1  0  0  0  0
 12 29  2  0  0  0  0
 13 14  1  0  0  0  0
 14 15  1  0  0  0  0
 14 28  2  0  0  0  0
 15 16  2  0  0  0  0
 15 46  1  0  0  0  0
 16 17  1  0  0  0  0
 16 47  1  0  0  0  0
 17 18  2  0  0  0  0
 18 19  1  0  0  0  0
 18 28  1  0  0  0  0
 19 20  2  0  0  0  0
 19 48  1  0  0  0  0
 20 21  1  0  0  0  0
 20 27  1  0  0  0  0
 21 22  2  0  0  0  0
 21 26  1  0  0  0  0
 22 23  1  0  0  0  0
 22 49  1  0  0  0  0
 23 24  1  0  0  0  0
 23 25  1  0  0  0  0
 24 50  1  0  0  0  0
 24 51  1  0  0  0  0
 24 52  1  0  0  0  0
 25 26  2  0  0  0  0
 25 53  1  0  0  0  0
 27 28  1  0  0  0  0
 29 30  1  0  0  0  0
 29 31  1  0  0  0  0
 31 54  1  0  0  0  0
 32 33  1  0  0  0  0
 32 55  1  0  0  0  0
 32 56  1  0  0  0  0
 33 57  1  0  0  0  0
 33 58  1  0  0  0  0
 34 35  1  0  0  0  0
 34 39  2  0  0  0  0
 35 36  2  0  0  0  0
 35 59  1  0  0  0  0
 36 37  1  0  0  0  0
 36 60  1  0  0  0  0
 37 38  2  0  0  0  0
 37 61  1  0  0  0  0
 38 39  1  0  0  0  0
 38 62  1  0  0  0  0
 39 63  1  0  0  0  0
M  END
$$$$
