CHEMBL216039
 OpenBabel04072215363D

 52 55  0  0  0  0  0  0  0  0999 V2000
    2.2536    0.2902    5.6064 C   0  0  0  0  0  0  0  0  0  0  0  0
    3.5586   -0.0663    5.1687 O   0  0  0  0  0  0  0  0  0  0  0  0
    3.6808   -1.2191    4.4426 C   0  0  0  0  0  0  0  0  0  0  0  0
    2.6490   -2.0846    4.0911 C   0  0  0  0  0  0  0  0  0  0  0  0
    2.9331   -3.2418    3.3588 C   0  0  0  0  0  0  0  0  0  0  0  0
    4.2467   -3.5388    2.9704 C   0  0  0  0  0  0  0  0  0  0  0  0
    5.2994   -2.6765    3.3013 C   0  0  0  0  0  0  0  0  0  0  0  0
    6.7585   -2.8961    2.9255 C   0  0  0  0  0  0  0  0  0  0  0  0
    6.9973   -4.0850    2.1125 N   0  0  0  0  0  0  0  0  0  0  0  0
    8.2940   -4.0564    1.5004 C   0  0  0  0  0  0  0  0  0  0  0  0
    9.3469   -3.5255    2.1210 N   0  0  0  0  0  0  0  0  0  0  0  0
   10.4821   -3.4951    1.3957 C   0  0  0  0  0  0  0  0  0  0  0  0
   10.5998   -3.7558    0.0795 N   0  0  0  0  0  0  0  0  0  0  0  0
    9.5187   -4.2539   -0.5347 C   0  0  0  0  0  0  0  0  0  0  0  0
    8.3852   -4.6048    0.2101 C   0  0  0  0  0  0  0  0  0  0  0  0
    7.3489   -5.4927   -0.1881 N   0  0  0  0  0  0  0  0  0  0  0  0
    6.7748   -5.1035   -1.4411 C   0  0  0  0  0  0  0  0  0  0  0  0
    7.6238   -5.6004   -2.5554 C   0  0  0  0  0  0  0  0  0  0  0  0
    7.2377   -6.7305   -3.2607 C   0  0  0  0  0  0  0  0  0  0  0  0
    7.7970   -6.9687   -4.4986 C   0  0  0  0  0  0  0  0  0  0  0  0
    7.6182   -8.1605   -5.1372 O   0  0  0  0  0  0  0  0  0  0  0  0
    7.8842   -9.2671   -4.2652 C   0  0  0  0  0  0  0  0  0  0  0  0
    8.4995   -5.9265   -5.0998 C   0  0  0  0  0  0  0  0  0  0  0  0
    8.6430   -5.7844   -6.4563 O   0  0  0  0  0  0  0  0  0  0  0  0
    7.4817   -6.2220   -7.1847 C   0  0  0  0  0  0  0  0  0  0  0  0
    9.1047   -4.9715   -4.2682 C   0  0  0  0  0  0  0  0  0  0  0  0
    8.8000   -4.9559   -2.9028 C   0  0  0  0  0  0  0  0  0  0  0  0
    9.5874   -4.2947   -1.9494 N   0  0  0  0  0  0  0  0  0  0  0  0
    4.9888   -1.5181    4.0417 C   0  0  0  0  0  0  0  0  0  0  0  0
    2.3378    1.2134    6.1886 H   0  0  0  0  0  0  0  0  0  0  0  0
    1.8275   -0.4767    6.2617 H   0  0  0  0  0  0  0  0  0  0  0  0
    1.5966    0.4926    4.7545 H   0  0  0  0  0  0  0  0  0  0  0  0
    1.6190   -1.8956    4.3749 H   0  0  0  0  0  0  0  0  0  0  0  0
    2.1248   -3.9197    3.0929 H   0  0  0  0  0  0  0  0  0  0  0  0
    4.4276   -4.4574    2.4176 H   0  0  0  0  0  0  0  0  0  0  0  0
    7.3395   -2.9736    3.8523 H   0  0  0  0  0  0  0  0  0  0  0  0
    7.0758   -1.9974    2.3779 H   0  0  0  0  0  0  0  0  0  0  0  0
    6.3462   -4.1363    1.3247 H   0  0  0  0  0  0  0  0  0  0  0  0
   11.3828   -3.2322    1.9337 H   0  0  0  0  0  0  0  0  0  0  0  0
    7.7895   -6.4111   -0.2832 H   0  0  0  0  0  0  0  0  0  0  0  0
    6.6230   -4.0175   -1.5117 H   0  0  0  0  0  0  0  0  0  0  0  0
    5.7712   -5.5388   -1.5127 H   0  0  0  0  0  0  0  0  0  0  0  0
    6.4935   -7.4014   -2.8467 H   0  0  0  0  0  0  0  0  0  0  0  0
    8.1160  -10.1421   -4.8775 H   0  0  0  0  0  0  0  0  0  0  0  0
    6.9944   -9.4958   -3.6699 H   0  0  0  0  0  0  0  0  0  0  0  0
    8.7443   -9.0863   -3.6048 H   0  0  0  0  0  0  0  0  0  0  0  0
    7.4350   -5.6828   -8.1357 H   0  0  0  0  0  0  0  0  0  0  0  0
    6.5395   -6.0168   -6.6560 H   0  0  0  0  0  0  0  0  0  0  0  0
    7.5642   -7.2884   -7.4157 H   0  0  0  0  0  0  0  0  0  0  0  0
    9.7945   -4.2475   -4.6945 H   0  0  0  0  0  0  0  0  0  0  0  0
   10.5330   -4.0653   -2.2421 H   0  0  0  0  0  0  0  0  0  0  0  0
    5.7852   -0.8303    4.3237 H   0  0  0  0  0  0  0  0  0  0  0  0
  1  2  1  0  0  0  0
  1 30  1  0  0  0  0
  1 31  1  0  0  0  0
  1 32  1  0  0  0  0
  2  3  1  0  0  0  0
  3  4  1  0  0  0  0
  3 29  2  0  0  0  0
  4  5  2  0  0  0  0
  4 33  1  0  0  0  0
  5  6  1  0  0  0  0
  5 34  1  0  0  0  0
  6  7  2  0  0  0  0
  6 35  1  0  0  0  0
  7  8  1  0  0  0  0
  7 29  1  0  0  0  0
  8  9  1  0  0  0  0
  8 36  1  0  0  0  0
  8 37  1  0  0  0  0
  9 10  1  0  0  0  0
  9 38  1  0  0  0  0
 10 11  1  0  0  0  0
 10 15  2  0  0  0  0
 11 12  2  0  0  0  0
 12 13  1  0  0  0  0
 12 39  1  0  0  0  0
 13 14  2  0  0  0  0
 14 15  1  0  0  0  0
 14 28  1  0  0  0  0
 15 16  1  0  0  0  0
 16 17  1  0  0  0  0
 16 40  1  0  0  0  0
 17 18  1  0  0  0  0
 17 41  1  0  0  0  0
 17 42  1  0  0  0  0
 18 19  1  0  0  0  0
 18 27  2  0  0  0  0
 19 20  2  0  0  0  0
 19 43  1  0  0  0  0
 20 21  1  0  0  0  0
 20 23  1  0  0  0  0
 21 22  1  0  0  0  0
 22 44  1  0  0  0  0
 22 45  1  0  0  0  0
 22 46  1  0  0  0  0
 23 24  1  0  0  0  0
 23 26  2  0  0  0  0
 24 25  1  0  0  0  0
 25 47  1  0  0  0  0
 25 48  1  0  0  0  0
 25 49  1  0  0  0  0
 26 27  1  0  0  0  0
 26 50  1  0  0  0  0
 27 28  1  0  0  0  0
 28 51  1  0  0  0  0
 29 52  1  0  0  0  0
M  END
$$$$
