CHEMBL3892018
 OpenBabel04072215373D

 57 60  0  0  0  0  0  0  0  0999 V2000
    4.8977    2.7356   -0.3723 C   0  0  0  0  0  0  0  0  0  0  0  0
    4.4047    1.3808   -0.1451 N   0  0  0  0  0  0  0  0  0  0  0  0
    4.9144    0.5266   -1.2260 C   0  0  0  0  0  0  0  0  0  0  0  0
    4.4770   -0.9355   -1.0994 C   0  0  0  0  0  0  0  0  0  0  0  0
    4.9713   -1.7668   -2.2964 N   0  0  0  0  0  0  0  0  0  0  0  0
    3.9754   -2.4287   -3.0432 C   0  0  0  0  0  0  0  0  0  0  0  0
    2.6180   -2.2779   -2.7588 C   0  0  0  0  0  0  0  0  0  0  0  0
    1.6030   -2.8357   -3.5031 C   0  0  0  0  0  0  0  0  0  0  0  0
    0.2772   -2.6565   -3.2257 O   0  0  0  0  0  0  0  0  0  0  0  0
   -0.0250   -1.8210   -2.1011 C   0  0  0  0  0  0  0  0  0  0  0  0
    1.9486   -3.5572   -4.6230 C   0  0  0  0  0  0  0  0  0  0  0  0
    3.2770   -3.6661   -5.0103 C   0  0  0  0  0  0  0  0  0  0  0  0
    3.6813   -4.1311   -6.2336 O   0  0  0  0  0  0  0  0  0  0  0  0
    2.6187   -4.4613   -7.1316 C   0  0  0  0  0  0  0  0  0  0  0  0
    4.2713   -3.2317   -4.1402 C   0  0  0  0  0  0  0  0  0  0  0  0
    6.3924   -1.9636   -2.4085 C   0  0  0  0  0  0  0  0  0  0  0  0
    7.0743   -1.8521   -1.2291 C   0  0  0  0  0  0  0  0  0  0  0  0
    8.3747   -2.1287   -1.1912 C   0  0  0  0  0  0  0  0  0  0  0  0
    9.1239   -2.3700   -2.2827 C   0  0  0  0  0  0  0  0  0  0  0  0
   10.1392   -1.6510   -2.1346 N   0  0  0  0  0  0  0  0  0  0  0  0
   11.0942   -2.3531   -1.6264 C   0  0  0  0  0  0  0  0  0  0  0  0
   11.9351   -2.9462   -2.4614 C   0  0  0  0  0  0  0  0  0  0  0  0
   13.1274   -2.6859   -1.0852 C   0  0  0  0  0  0  0  0  0  0  0  0
   13.0164   -2.5829    0.4917 C   0  0  0  0  0  0  0  0  0  0  0  0
   14.1117   -2.3039    1.2368 N   0  0  0  0  0  0  0  0  0  0  0  0
   15.1042   -2.1759    0.3507 N   0  0  0  0  0  0  0  0  0  0  0  0
   16.5050   -1.9664    0.8495 C   0  0  0  0  0  0  0  0  0  0  0  0
   14.5511   -2.3540   -1.0153 C   0  0  0  0  0  0  0  0  0  0  0  0
   10.6995   -3.1440   -3.5369 N   0  0  0  0  0  0  0  0  0  0  0  0
    8.9901   -2.7454   -3.5681 C   0  0  0  0  0  0  0  0  0  0  0  0
    7.2806   -2.3488   -3.5648 C   0  0  0  0  0  0  0  0  0  0  0  0
    4.5415    3.3903    0.4244 H   0  0  0  0  0  0  0  0  0  0  0  0
    4.5400    3.1234   -1.3319 H   0  0  0  0  0  0  0  0  0  0  0  0
    5.9942    2.7659   -0.3695 H   0  0  0  0  0  0  0  0  0  0  0  0
    3.3859    1.3820   -0.1520 H   0  0  0  0  0  0  0  0  0  0  0  0
    5.9984    0.5765   -1.1625 H   0  0  0  0  0  0  0  0  0  0  0  0
    4.5964    0.9055   -2.2050 H   0  0  0  0  0  0  0  0  0  0  0  0
    3.3967   -0.8685   -0.9767 H   0  0  0  0  0  0  0  0  0  0  0  0
    4.7695   -1.3550   -0.1252 H   0  0  0  0  0  0  0  0  0  0  0  0
    2.2875   -1.7024   -1.9263 H   0  0  0  0  0  0  0  0  0  0  0  0
   -1.1094   -1.7509   -2.0092 H   0  0  0  0  0  0  0  0  0  0  0  0
    0.3622   -0.8002   -2.2326 H   0  0  0  0  0  0  0  0  0  0  0  0
    0.3614   -2.2549   -1.1694 H   0  0  0  0  0  0  0  0  0  0  0  0
    1.1682   -4.0260   -5.1970 H   0  0  0  0  0  0  0  0  0  0  0  0
    3.0529   -4.7683   -8.0847 H   0  0  0  0  0  0  0  0  0  0  0  0
    1.9482   -3.6122   -7.3308 H   0  0  0  0  0  0  0  0  0  0  0  0
    2.0496   -5.3092   -6.7365 H   0  0  0  0  0  0  0  0  0  0  0  0
    5.2849   -3.5325   -4.3477 H   0  0  0  0  0  0  0  0  0  0  0  0
    6.6894   -1.4953   -0.2844 H   0  0  0  0  0  0  0  0  0  0  0  0
    8.9578   -1.9482   -0.3042 H   0  0  0  0  0  0  0  0  0  0  0  0
   11.1284   -2.0690   -0.5921 H   0  0  0  0  0  0  0  0  0  0  0  0
   12.1555   -2.6992    1.1453 H   0  0  0  0  0  0  0  0  0  0  0  0
   16.5890   -1.8250    1.9541 H   0  0  0  0  0  0  0  0  0  0  0  0
   16.9702   -1.0795    0.3989 H   0  0  0  0  0  0  0  0  0  0  0  0
   17.1200   -2.8461    0.6184 H   0  0  0  0  0  0  0  0  0  0  0  0
   15.3364   -2.2042   -1.7298 H   0  0  0  0  0  0  0  0  0  0  0  0
    6.6702   -2.1861   -4.5246 H   0  0  0  0  0  0  0  0  0  0  0  0
  1  2  1  0  0  0  0
  1 32  1  0  0  0  0
  1 33  1  0  0  0  0
  1 34  1  0  0  0  0
  2  3  1  0  0  0  0
  2 35  1  0  0  0  0
  3  4  1  0  0  0  0
  3 36  1  0  0  0  0
  3 37  1  0  0  0  0
  4  5  1  0  0  0  0
  4 38  1  0  0  0  0
  4 39  1  0  0  0  0
  5  6  1  0  0  0  0
  5 16  1  0  0  0  0
  6  7  1  0  0  0  0
  6 15  2  0  0  0  0
  7  8  2  0  0  0  0
  7 40  1  0  0  0  0
  8  9  1  0  0  0  0
  8 11  1  0  0  0  0
  9 10  1  0  0  0  0
 10 41  1  0  0  0  0
 10 42  1  0  0  0  0
 10 43  1  0  0  0  0
 11 12  2  0  0  0  0
 11 44  1  0  0  0  0
 12 13  1  0  0  0  0
 12 15  1  0  0  0  0
 13 14  1  0  0  0  0
 14 45  1  0  0  0  0
 14 46  1  0  0  0  0
 14 47  1  0  0  0  0
 15 48  1  0  0  0  0
 16 17  1  0  0  0  0
 16 31  2  0  0  0  0
 17 18  2  0  0  0  0
 17 49  1  0  0  0  0
 18 19  1  0  0  0  0
 18 50  1  0  0  0  0
 19 20  1  0  0  0  0
 19 30  2  0  0  0  0
 20 21  2  0  0  0  0
 21 22  1  0  0  0  0
 21 51  1  0  0  0  0
 22 23  1  0  0  0  0
 22 29  2  0  0  0  0
 23 24  1  0  0  0  0
 23 28  2  0  0  0  0
 24 25  2  0  0  0  0
 24 52  1  0  0  0  0
 25 26  1  0  0  0  0
 26 27  1  0  0  0  0
 26 28  1  0  0  0  0
 27 53  1  0  0  0  0
 27 54  1  0  0  0  0
 27 55  1  0  0  0  0
 28 56  1  0  0  0  0
 29 30  1  0  0  0  0
 30 31  1  0  0  0  0
 31 57  1  0  0  0  0
M  END
$$$$
