CHEMBL3924380
 OpenBabel04072215373D

 53 57  0  0  1  0  0  0  0  0999 V2000
    3.6382   -0.6793   -0.9688 C   0  0  0  0  0  0  0  0  0  0  0  0
    2.7898   -0.4277    0.1566 O   0  0  0  0  0  0  0  0  0  0  0  0
    3.3578    0.3036    1.1727 C   0  0  0  0  0  0  0  0  0  0  0  0
    4.4984    1.0805    0.9677 C   0  0  0  0  0  0  0  0  0  0  0  0
    5.0884    1.8036    2.0128 C   0  0  0  0  0  0  0  0  0  0  0  0
    6.2149    2.6257    1.8394 C   0  0  0  0  0  0  0  0  0  0  0  0
    6.6527    2.8914    0.4984 N   0  0  0  0  0  0  0  0  0  0  0  0
    7.8958    3.4654    0.1513 C   0  0  0  0  0  0  0  0  0  0  0  0
    9.0934    2.9493    0.6564 C   0  0  0  0  0  0  0  0  0  0  0  0
   10.3144    3.5490    0.3369 C   0  0  0  0  0  0  0  0  0  0  0  0
   11.7460    2.8445    0.9981 Cl  0  0  0  0  0  0  0  0  0  0  0  0
   10.3450    4.6769   -0.4938 C   0  0  0  0  0  0  0  0  0  0  0  0
   11.8096    5.5193   -0.8518 Cl  0  0  0  0  0  0  0  0  0  0  0  0
    9.1614    5.1635   -1.0512 C   0  0  0  0  0  0  0  0  0  0  0  0
    7.9564    4.5468   -0.7367 C   0  0  0  0  0  0  0  0  0  0  0  0
    6.8231    5.0120   -1.2886 F   0  0  0  0  0  0  0  0  0  0  0  0
    6.8314    3.2074    2.8688 N   0  0  0  0  0  0  0  0  0  0  0  0
    6.2716    3.0214    4.0684 C   0  0  0  0  0  0  0  0  0  0  0  0
    5.1526    2.3293    4.3348 N   0  0  0  0  0  0  0  0  0  0  0  0
    4.5624    1.7132    3.3023 C   0  0  0  0  0  0  0  0  0  0  0  0
    3.3904    0.9771    3.4924 C   0  0  0  0  0  0  0  0  0  0  0  0
    2.7612    0.2786    2.4479 C   0  0  0  0  0  0  0  0  0  0  0  0
    1.5617   -0.3750    2.5625 O   0  0  0  0  0  0  0  0  0  0  0  0
    1.1278   -0.9807    3.7898 C   0  0  2  0  0  0  0  0  0  0  0  0
    0.3843   -0.0386    4.7325 C   0  0  0  0  0  0  0  0  0  0  0  0
    0.9261   -0.3682    6.0992 C   0  0  1  0  0  0  0  0  0  0  0  0
   -0.0288   -1.0406    6.9338 O   0  0  0  0  0  0  0  0  0  0  0  0
    0.7523   -1.9297    7.7494 C   0  0  0  0  0  0  0  0  0  0  0  0
    1.7774   -2.5191    6.7926 C   0  0  2  0  0  0  0  0  0  0  0  0
    2.9103   -2.9946    7.5193 O   0  0  0  0  0  0  0  0  0  0  0  0
    3.8629   -3.6406    6.6813 C   0  0  0  0  0  0  0  0  0  0  0  0
    2.0860   -1.3232    5.8908 C   0  0  1  0  0  0  0  0  0  0  0  0
    2.1441   -1.6903    4.5081 O   0  0  0  0  0  0  0  0  0  0  0  0
    3.1095   -1.3372   -1.6632 H   0  0  0  0  0  0  0  0  0  0  0  0
    4.5628   -1.1870   -0.6643 H   0  0  0  0  0  0  0  0  0  0  0  0
    3.8631    0.2444   -1.5176 H   0  0  0  0  0  0  0  0  0  0  0  0
    4.9759    1.1280   -0.0048 H   0  0  0  0  0  0  0  0  0  0  0  0
    5.8993    3.3669    0.0117 H   0  0  0  0  0  0  0  0  0  0  0  0
    9.0659    2.0745    1.3010 H   0  0  0  0  0  0  0  0  0  0  0  0
    9.1651    6.0237   -1.7143 H   0  0  0  0  0  0  0  0  0  0  0  0
    6.7712    3.4832    4.9140 H   0  0  0  0  0  0  0  0  0  0  0  0
    2.9679    0.9833    4.4880 H   0  0  0  0  0  0  0  0  0  0  0  0
    0.4066   -1.7442    3.4717 H   0  0  0  0  0  0  0  0  0  0  0  0
   -0.6999   -0.1929    4.6710 H   0  0  0  0  0  0  0  0  0  0  0  0
    0.5639    1.0100    4.4754 H   0  0  0  0  0  0  0  0  0  0  0  0
    1.2436    0.5328    6.6362 H   0  0  0  0  0  0  0  0  0  0  0  0
    0.1104   -2.6887    8.2062 H   0  0  0  0  0  0  0  0  0  0  0  0
    1.2251   -1.3596    8.5598 H   0  0  0  0  0  0  0  0  0  0  0  0
    1.3226   -3.3450    6.2309 H   0  0  0  0  0  0  0  0  0  0  0  0
    4.6727   -4.0162    7.3130 H   0  0  0  0  0  0  0  0  0  0  0  0
    4.2907   -2.9379    5.9608 H   0  0  0  0  0  0  0  0  0  0  0  0
    3.4060   -4.4870    6.1603 H   0  0  0  0  0  0  0  0  0  0  0  0
    3.0405   -0.8515    6.1421 H   0  0  0  0  0  0  0  0  0  0  0  0
  1  2  1  0  0  0  0
  1 34  1  0  0  0  0
  1 35  1  0  0  0  0
  1 36  1  0  0  0  0
  2  3  1  0  0  0  0
  3  4  1  0  0  0  0
  3 22  2  0  0  0  0
  4  5  2  0  0  0  0
  4 37  1  0  0  0  0
  5  6  1  0  0  0  0
  5 20  1  0  0  0  0
  6  7  1  0  0  0  0
  6 17  2  0  0  0  0
  7  8  1  0  0  0  0
  7 38  1  0  0  0  0
  8  9  1  0  0  0  0
  8 15  2  0  0  0  0
  9 10  2  0  0  0  0
  9 39  1  0  0  0  0
 10 11  1  0  0  0  0
 10 12  1  0  0  0  0
 12 13  1  0  0  0  0
 12 14  2  0  0  0  0
 14 15  1  0  0  0  0
 14 40  1  0  0  0  0
 15 16  1  0  0  0  0
 17 18  1  0  0  0  0
 18 19  2  0  0  0  0
 18 41  1  0  0  0  0
 19 20  1  0  0  0  0
 20 21  2  0  0  0  0
 21 22  1  0  0  0  0
 21 42  1  0  0  0  0
 22 23  1  0  0  0  0
 23 24  1  0  0  0  0
 24 25  1  0  0  0  0
 24 33  1  0  0  0  0
 24 43  1  6  0  0  0
 25 26  1  0  0  0  0
 25 44  1  0  0  0  0
 25 45  1  0  0  0  0
 26 27  1  0  0  0  0
 26 32  1  0  0  0  0
 26 46  1  1  0  0  0
 27 28  1  0  0  0  0
 28 29  1  0  0  0  0
 28 47  1  0  0  0  0
 28 48  1  0  0  0  0
 29 30  1  0  0  0  0
 29 32  1  0  0  0  0
 29 49  1  6  0  0  0
 30 31  1  0  0  0  0
 31 50  1  0  0  0  0
 31 51  1  0  0  0  0
 31 52  1  0  0  0  0
 32 33  1  0  0  0  0
 32 53  1  1  0  0  0
M  END
$$$$
