CHEMBL2180604
 OpenBabel04072215363D

 56 60  0  0  0  0  0  0  0  0999 V2000
   -2.0976    0.8082    0.1712 C   0  0  0  0  0  0  0  0  0  0  0  0
   -1.8465   -0.6062   -0.1967 C   0  0  0  0  0  0  0  0  0  0  0  0
   -0.6721   -1.3816   -0.0521 C   0  0  0  0  0  0  0  0  0  0  0  0
   -0.9966   -2.6608   -0.4867 C   0  0  0  0  0  0  0  0  0  0  0  0
   -0.2334   -3.8994   -0.5245 C   0  0  0  0  0  0  0  0  0  0  0  0
   -0.7237   -4.9259   -0.9821 O   0  0  0  0  0  0  0  0  0  0  0  0
    1.0430   -3.8636    0.0246 N   0  0  0  0  0  0  0  0  0  0  0  0
    1.9791   -4.9426    0.0141 C   0  0  0  0  0  0  0  0  0  0  0  0
    1.8422   -6.0347   -0.8593 C   0  0  0  0  0  0  0  0  0  0  0  0
    2.7674   -7.0772   -0.8653 C   0  0  0  0  0  0  0  0  0  0  0  0
    2.5987   -8.0878   -1.8362 O   0  0  0  0  0  0  0  0  0  0  0  0
    2.8503   -9.4203   -1.5323 C   0  0  0  0  0  0  0  0  0  0  0  0
    3.0330  -10.1416   -2.8135 C   0  0  0  0  0  0  0  0  0  0  0  0
    3.3498  -11.4394   -2.7274 C   0  0  0  0  0  0  0  0  0  0  0  0
    3.4541  -12.0387   -1.4528 C   0  0  0  0  0  0  0  0  0  0  0  0
    3.7455  -13.2688   -1.0978 N   0  0  0  0  0  0  0  0  0  0  0  0
    3.6922  -13.2806    0.2646 C   0  0  0  0  0  0  0  0  0  0  0  0
    3.9262  -14.3954    1.0342 N   0  0  0  0  0  0  0  0  0  0  0  0
    4.2518  -15.6321    0.5220 C   0  0  0  0  0  0  0  0  0  0  0  0
    4.4112  -15.9472   -0.6472 O   0  0  0  0  0  0  0  0  0  0  0  0
    4.3838  -16.6805    1.5865 C   0  0  0  0  0  0  0  0  0  0  0  0
    4.8701  -18.0728    1.2471 C   0  0  0  0  0  0  0  0  0  0  0  0
    3.4247  -17.8501    1.5809 C   0  0  0  0  0  0  0  0  0  0  0  0
    3.3677  -12.0364    0.7562 C   0  0  0  0  0  0  0  0  0  0  0  0
    3.2195  -11.2375   -0.3481 N   0  0  0  0  0  0  0  0  0  0  0  0
    2.9213   -9.9066   -0.3350 N   0  0  0  0  0  0  0  0  0  0  0  0
    3.8788   -7.0419   -0.0396 C   0  0  0  0  0  0  0  0  0  0  0  0
    4.0365   -5.9681    0.8321 C   0  0  0  0  0  0  0  0  0  0  0  0
    3.0945   -4.9180    0.8801 C   0  0  0  0  0  0  0  0  0  0  0  0
    3.3354   -3.8169    1.8764 C   0  0  0  0  0  0  0  0  0  0  0  0
   -2.3010   -2.5458   -0.9321 N   0  0  0  0  0  0  0  0  0  0  0  0
   -3.1716   -3.5233   -1.5427 C   0  0  0  0  0  0  0  0  0  0  0  0
   -2.8324   -1.3211   -0.7338 N   0  0  0  0  0  0  0  0  0  0  0  0
   -1.2005    1.2828    0.5777 H   0  0  0  0  0  0  0  0  0  0  0  0
   -2.8867    0.8663    0.9296 H   0  0  0  0  0  0  0  0  0  0  0  0
   -2.4249    1.3829   -0.7021 H   0  0  0  0  0  0  0  0  0  0  0  0
    0.2725   -1.0388    0.3439 H   0  0  0  0  0  0  0  0  0  0  0  0
    1.2931   -3.0463    0.5609 H   0  0  0  0  0  0  0  0  0  0  0  0
    1.0367   -6.0884   -1.5889 H   0  0  0  0  0  0  0  0  0  0  0  0
    2.9409   -9.6122   -3.7521 H   0  0  0  0  0  0  0  0  0  0  0  0
    3.5317  -12.0492   -3.6052 H   0  0  0  0  0  0  0  0  0  0  0  0
    3.8280  -14.2864    2.0314 H   0  0  0  0  0  0  0  0  0  0  0  0
    4.6939  -16.3099    2.5593 H   0  0  0  0  0  0  0  0  0  0  0  0
    5.4864  -18.5912    1.9721 H   0  0  0  0  0  0  0  0  0  0  0  0
    5.1251  -18.2930    0.2152 H   0  0  0  0  0  0  0  0  0  0  0  0
    3.0587  -18.2184    2.5314 H   0  0  0  0  0  0  0  0  0  0  0  0
    2.7090  -17.9243    0.7680 H   0  0  0  0  0  0  0  0  0  0  0  0
    3.2301  -11.6438    1.7512 H   0  0  0  0  0  0  0  0  0  0  0  0
    4.6242   -7.8301   -0.0672 H   0  0  0  0  0  0  0  0  0  0  0  0
    4.9091   -5.9581    1.4817 H   0  0  0  0  0  0  0  0  0  0  0  0
    4.1343   -4.0849    2.5781 H   0  0  0  0  0  0  0  0  0  0  0  0
    2.4382   -3.6366    2.4764 H   0  0  0  0  0  0  0  0  0  0  0  0
    3.6336   -2.8980    1.3642 H   0  0  0  0  0  0  0  0  0  0  0  0
   -2.6407   -4.4147   -1.8604 H   0  0  0  0  0  0  0  0  0  0  0  0
   -3.6235   -3.0704   -2.4302 H   0  0  0  0  0  0  0  0  0  0  0  0
   -3.9464   -3.7855   -0.8177 H   0  0  0  0  0  0  0  0  0  0  0  0
  1  2  1  0  0  0  0
  1 34  1  0  0  0  0
  1 35  1  0  0  0  0
  1 36  1  0  0  0  0
  2  3  1  0  0  0  0
  2 33  2  0  0  0  0
  3  4  2  0  0  0  0
  3 37  1  0  0  0  0
  4  5  1  0  0  0  0
  4 31  1  0  0  0  0
  5  6  2  0  0  0  0
  5  7  1  0  0  0  0
  7  8  1  0  0  0  0
  7 38  1  0  0  0  0
  8  9  1  0  0  0  0
  8 29  2  0  0  0  0
  9 10  2  0  0  0  0
  9 39  1  0  0  0  0
 10 11  1  0  0  0  0
 10 27  1  0  0  0  0
 11 12  1  0  0  0  0
 12 13  1  0  0  0  0
 12 26  2  0  0  0  0
 13 14  2  0  0  0  0
 13 40  1  0  0  0  0
 14 15  1  0  0  0  0
 14 41  1  0  0  0  0
 15 16  2  0  0  0  0
 15 25  1  0  0  0  0
 16 17  1  0  0  0  0
 17 18  1  0  0  0  0
 17 24  2  0  0  0  0
 18 19  1  0  0  0  0
 18 42  1  0  0  0  0
 19 20  2  0  0  0  0
 19 21  1  0  0  0  0
 21 22  1  0  0  0  0
 21 23  1  0  0  0  0
 21 43  1  0  0  0  0
 22 23  1  0  0  0  0
 22 44  1  0  0  0  0
 22 45  1  0  0  0  0
 23 46  1  0  0  0  0
 23 47  1  0  0  0  0
 24 25  1  0  0  0  0
 24 48  1  0  0  0  0
 25 26  1  0  0  0  0
 27 28  2  0  0  0  0
 27 49  1  0  0  0  0
 28 29  1  0  0  0  0
 28 50  1  0  0  0  0
 29 30  1  0  0  0  0
 30 51  1  0  0  0  0
 30 52  1  0  0  0  0
 30 53  1  0  0  0  0
 31 32  1  0  0  0  0
 31 33  1  0  0  0  0
 32 54  1  0  0  0  0
 32 55  1  0  0  0  0
 32 56  1  0  0  0  0
M  END
$$$$
