CHEMBL3648125
 OpenBabel04072215373D

 50 51  0  0  1  0  0  0  0  0999 V2000
   -5.7928    4.1320    2.5049 C   0  0  0  0  0  0  0  0  0  0  0  0
   -5.0494    2.9745    1.9026 C   0  0  0  0  0  0  0  0  0  0  0  0
   -3.8529    3.2413    1.2294 C   0  0  0  0  0  0  0  0  0  0  0  0
   -3.0671    2.2434    0.6423 C   0  0  0  0  0  0  0  0  0  0  0  0
   -1.8372    2.5196    0.0325 N   0  0  0  0  0  0  0  0  0  0  0  0
   -1.0990    3.7046    0.0191 C   0  0  0  0  0  0  0  0  0  0  0  0
   -0.2836    3.8770   -1.0251 N   0  0  0  0  0  0  0  0  0  0  0  0
    0.4393    5.0124   -1.0390 C   0  0  0  0  0  0  0  0  0  0  0  0
    0.3926    5.9617   -0.0356 C   0  0  0  0  0  0  0  0  0  0  0  0
    1.5504    7.4508   -0.0972 Br  0  0  0  0  0  0  0  0  0  0  0  0
   -0.4787    5.7177    1.0180 C   0  0  0  0  0  0  0  0  0  0  0  0
   -0.7203    6.6955    2.0121 N   0  0  0  0  0  0  0  0  0  0  0  0
   -1.1841    6.2025    3.3379 C   0  0  1  0  0  0  0  0  0  0  0  0
    0.0457    5.8490    4.1888 C   0  0  0  0  0  0  0  0  0  0  0  0
   -2.0644    7.3006    4.0420 C   0  0  0  0  0  0  0  0  0  0  0  0
   -3.3455    7.5880    3.2513 C   0  0  0  0  0  0  0  0  0  0  0  0
   -2.4605    6.9036    5.4726 C   0  0  0  0  0  0  0  0  0  0  0  0
   -1.3232    8.5280    4.1420 O   0  0  0  0  0  0  0  0  0  0  0  0
   -1.2082    4.5888    1.0302 N   0  0  0  0  0  0  0  0  0  0  0  0
   -3.5070    0.9235    0.7531 C   0  0  0  0  0  0  0  0  0  0  0  0
   -4.7015    0.6225    1.4147 C   0  0  0  0  0  0  0  0  0  0  0  0
   -5.4858    1.6404    1.9822 C   0  0  0  0  0  0  0  0  0  0  0  0
   -7.0049    1.2239    2.8293 S   0  0  3  0  0  0  0  0  0  0  0  0
   -7.6125   -0.2388    2.0314 C   0  0  0  0  0  0  0  0  0  0  0  0
   -6.5776    0.8434    4.2623 N   0  0  0  0  0  0  0  0  0  0  0  0
   -7.9819    2.2451    2.4993 O   0  0  0  0  0  0  0  0  0  0  0  0
   -5.2189    5.0648    2.3795 H   0  0  0  0  0  0  0  0  0  0  0  0
   -5.9230    3.9931    3.5816 H   0  0  0  0  0  0  0  0  0  0  0  0
   -6.7451    4.2988    2.0113 H   0  0  0  0  0  0  0  0  0  0  0  0
   -3.5367    4.2766    1.1634 H   0  0  0  0  0  0  0  0  0  0  0  0
   -1.5785    1.9419   -0.7525 H   0  0  0  0  0  0  0  0  0  0  0  0
    1.0851    5.1308   -1.9007 H   0  0  0  0  0  0  0  0  0  0  0  0
    0.0754    7.3264    2.0941 H   0  0  0  0  0  0  0  0  0  0  0  0
   -1.8052    5.3041    3.2354 H   0  0  0  0  0  0  0  0  0  0  0  0
    0.5835    6.7491    4.5113 H   0  0  0  0  0  0  0  0  0  0  0  0
    0.7541    5.2194    3.6439 H   0  0  0  0  0  0  0  0  0  0  0  0
   -0.2516    5.2988    5.0884 H   0  0  0  0  0  0  0  0  0  0  0  0
   -3.9528    6.6866    3.1468 H   0  0  0  0  0  0  0  0  0  0  0  0
   -3.1273    7.9840    2.2549 H   0  0  0  0  0  0  0  0  0  0  0  0
   -3.9511    8.3497    3.7573 H   0  0  0  0  0  0  0  0  0  0  0  0
   -3.0255    5.9655    5.4903 H   0  0  0  0  0  0  0  0  0  0  0  0
   -3.0775    7.6838    5.9355 H   0  0  0  0  0  0  0  0  0  0  0  0
   -1.5877    6.8020    6.1260 H   0  0  0  0  0  0  0  0  0  0  0  0
   -1.2016    8.8439    3.2292 H   0  0  0  0  0  0  0  0  0  0  0  0
   -2.9077    0.1120    0.3452 H   0  0  0  0  0  0  0  0  0  0  0  0
   -4.9845   -0.4270    1.4895 H   0  0  0  0  0  0  0  0  0  0  0  0
   -6.9359   -1.0771    2.1980 H   0  0  0  0  0  0  0  0  0  0  0  0
   -7.7270   -0.0341    0.9647 H   0  0  0  0  0  0  0  0  0  0  0  0
   -8.5906   -0.4742    2.4594 H   0  0  0  0  0  0  0  0  0  0  0  0
   -6.0752   -0.0424    4.3155 H   0  0  0  0  0  0  0  0  0  0  0  0
  1  2  1  0  0  0  0
  1 27  1  0  0  0  0
  1 28  1  0  0  0  0
  1 29  1  0  0  0  0
  2  3  1  0  0  0  0
  2 22  2  0  0  0  0
  3  4  2  0  0  0  0
  3 30  1  0  0  0  0
  4  5  1  0  0  0  0
  4 20  1  0  0  0  0
  5  6  1  0  0  0  0
  5 31  1  0  0  0  0
  6  7  1  0  0  0  0
  6 19  2  0  0  0  0
  7  8  2  0  0  0  0
  8  9  1  0  0  0  0
  8 32  1  0  0  0  0
  9 10  1  0  0  0  0
  9 11  2  0  0  0  0
 11 12  1  0  0  0  0
 11 19  1  0  0  0  0
 12 13  1  0  0  0  0
 12 33  1  0  0  0  0
 13 14  1  0  0  0  0
 13 15  1  0  0  0  0
 13 34  1  6  0  0  0
 14 35  1  0  0  0  0
 14 36  1  0  0  0  0
 14 37  1  0  0  0  0
 15 16  1  0  0  0  0
 15 17  1  0  0  0  0
 15 18  1  0  0  0  0
 16 38  1  0  0  0  0
 16 39  1  0  0  0  0
 16 40  1  0  0  0  0
 17 41  1  0  0  0  0
 17 42  1  0  0  0  0
 17 43  1  0  0  0  0
 18 44  1  0  0  0  0
 20 21  2  0  0  0  0
 20 45  1  0  0  0  0
 21 22  1  0  0  0  0
 21 46  1  0  0  0  0
 22 23  1  0  0  0  0
 23 24  1  0  0  0  0
 23 25  2  0  0  0  0
 23 26  2  0  0  0  0
 24 47  1  0  0  0  0
 24 48  1  0  0  0  0
 24 49  1  0  0  0  0
 25 50  1  0  0  0  0
M  END
$$$$
