CHEMBL203095
 OpenBabel04072215363D

 34 36  0  0  0  0  0  0  0  0999 V2000
    1.1614    0.0204    0.6612 O   0  0  0  0  0  0  0  0  0  0  0  0
    2.1693   -0.1169   -0.0267 C   0  0  0  0  0  0  0  0  0  0  0  0
    2.6854   -1.3606   -0.3692 N   0  0  0  0  0  0  0  0  0  0  0  0
    2.1141   -2.6023   -0.0070 C   0  0  0  0  0  0  0  0  0  0  0  0
    0.7908   -2.7344    0.4339 C   0  0  0  0  0  0  0  0  0  0  0  0
    0.2987   -3.9627    0.8716 C   0  0  0  0  0  0  0  0  0  0  0  0
    1.1237   -5.0803    0.8539 C   0  0  0  0  0  0  0  0  0  0  0  0
    0.5360   -6.5832    1.4463 Cl  0  0  0  0  0  0  0  0  0  0  0  0
    2.4242   -4.9814    0.3629 C   0  0  0  0  0  0  0  0  0  0  0  0
    2.9144   -3.7467   -0.0799 C   0  0  0  0  0  0  0  0  0  0  0  0
    2.9127    1.0496   -0.4800 C   0  0  0  0  0  0  0  0  0  0  0  0
    4.2683    0.9769   -1.5233 S   0  0  0  0  0  0  0  0  0  0  0  0
    4.3671    2.6882   -1.4927 C   0  0  0  0  0  0  0  0  0  0  0  0
    3.4798    3.3068   -0.7464 N   0  0  0  0  0  0  0  0  0  0  0  0
    2.6369    2.3761   -0.1581 C   0  0  0  0  0  0  0  0  0  0  0  0
    1.5259    2.8299    0.7484 C   0  0  0  0  0  0  0  0  0  0  0  0
    1.3975    4.3393    0.9350 C   0  0  0  0  0  0  0  0  0  0  0  0
    0.2562    4.6778    1.8333 C   0  0  0  0  0  0  0  0  0  0  0  0
   -1.0969    4.8962    1.4872 C   0  0  0  0  0  0  0  0  0  0  0  0
   -1.8577    5.1593    2.5519 N   0  0  0  0  0  0  0  0  0  0  0  0
   -0.9968    5.1102    3.6357 O   0  0  0  0  0  0  0  0  0  0  0  0
    0.2550    4.8216    3.2012 C   0  0  0  0  0  0  0  0  0  0  0  0
    3.6065   -1.3713   -0.7868 H   0  0  0  0  0  0  0  0  0  0  0  0
    0.1026   -1.8944    0.4494 H   0  0  0  0  0  0  0  0  0  0  0  0
   -0.7233   -4.0286    1.2383 H   0  0  0  0  0  0  0  0  0  0  0  0
    3.0667   -5.8574    0.3421 H   0  0  0  0  0  0  0  0  0  0  0  0
    3.9398   -3.6905   -0.4369 H   0  0  0  0  0  0  0  0  0  0  0  0
    5.1201    3.2250   -2.0561 H   0  0  0  0  0  0  0  0  0  0  0  0
    1.6732    2.3614    1.7312 H   0  0  0  0  0  0  0  0  0  0  0  0
    0.5779    2.4463    0.3485 H   0  0  0  0  0  0  0  0  0  0  0  0
    1.2490    4.8259   -0.0369 H   0  0  0  0  0  0  0  0  0  0  0  0
    2.3258    4.7480    1.3530 H   0  0  0  0  0  0  0  0  0  0  0  0
   -1.5613    4.8691    0.5112 H   0  0  0  0  0  0  0  0  0  0  0  0
    1.0080    4.7488    3.9719 H   0  0  0  0  0  0  0  0  0  0  0  0
  1  2  2  0  0  0  0
  2  3  1  0  0  0  0
  2 11  1  0  0  0  0
  3  4  1  0  0  0  0
  3 23  1  0  0  0  0
  4  5  1  0  0  0  0
  4 10  2  0  0  0  0
  5  6  2  0  0  0  0
  5 24  1  0  0  0  0
  6  7  1  0  0  0  0
  6 25  1  0  0  0  0
  7  8  1  0  0  0  0
  7  9  2  0  0  0  0
  9 10  1  0  0  0  0
  9 26  1  0  0  0  0
 10 27  1  0  0  0  0
 11 12  1  0  0  0  0
 11 15  2  0  0  0  0
 12 13  1  0  0  0  0
 13 14  2  0  0  0  0
 13 28  1  0  0  0  0
 14 15  1  0  0  0  0
 15 16  1  0  0  0  0
 16 17  1  0  0  0  0
 16 29  1  0  0  0  0
 16 30  1  0  0  0  0
 17 18  1  0  0  0  0
 17 31  1  0  0  0  0
 17 32  1  0  0  0  0
 18 19  1  0  0  0  0
 18 22  2  0  0  0  0
 19 20  2  0  0  0  0
 19 33  1  0  0  0  0
 20 21  1  0  0  0  0
 21 22  1  0  0  0  0
 22 34  1  0  0  0  0
M  END
$$$$
