CHEMBL80302
 OpenBabel04072215383D

 42 46  0  0  0  0  0  0  0  0999 V2000
   -3.2682    0.2427    1.6541 C   0  0  0  0  0  0  0  0  0  0  0  0
   -1.8213   -0.0015    1.4492 C   0  0  0  0  0  0  0  0  0  0  0  0
   -1.1441   -0.7424    0.5007 C   0  0  0  0  0  0  0  0  0  0  0  0
    0.2503   -0.6271    0.7628 C   0  0  0  0  0  0  0  0  0  0  0  0
    1.4189   -1.1224    0.1415 C   0  0  0  0  0  0  0  0  0  0  0  0
    2.6908   -0.7779    0.6403 C   0  0  0  0  0  0  0  0  0  0  0  0
    3.8403   -1.1982   -0.0679 N   0  0  0  0  0  0  0  0  0  0  0  0
    5.1249   -0.6195   -0.0785 C   0  0  0  0  0  0  0  0  0  0  0  0
    5.5523    0.1678    0.9386 N   0  0  0  0  0  0  0  0  0  0  0  0
    6.7453    0.7670    0.8689 C   0  0  0  0  0  0  0  0  0  0  0  0
    7.6230    0.6893   -0.1266 N   0  0  0  0  0  0  0  0  0  0  0  0
    7.2215   -0.1035   -1.1473 C   0  0  0  0  0  0  0  0  0  0  0  0
    7.9718   -0.3175   -2.3335 C   0  0  0  0  0  0  0  0  0  0  0  0
    7.3495   -1.1620   -3.2326 C   0  0  0  0  0  0  0  0  0  0  0  0
    7.8486   -1.6041   -4.5456 C   0  0  0  0  0  0  0  0  0  0  0  0
    9.2329   -1.7398   -4.7521 C   0  0  0  0  0  0  0  0  0  0  0  0
    9.7440   -2.1222   -5.9945 C   0  0  0  0  0  0  0  0  0  0  0  0
    8.8779   -2.3788   -7.0525 C   0  0  0  0  0  0  0  0  0  0  0  0
    7.5033   -2.2498   -6.8686 C   0  0  0  0  0  0  0  0  0  0  0  0
    6.9928   -1.8626   -5.6264 C   0  0  0  0  0  0  0  0  0  0  0  0
    5.8411   -1.6961   -2.6067 S   0  0  0  0  0  0  0  0  0  0  0  0
    6.0072   -0.7793   -1.1588 C   0  0  0  0  0  0  0  0  0  0  0  0
    2.7556   -0.0086    1.8078 C   0  0  0  0  0  0  0  0  0  0  0  0
    1.6182    0.4970    2.4450 C   0  0  0  0  0  0  0  0  0  0  0  0
    0.3823    0.1803    1.8887 C   0  0  0  0  0  0  0  0  0  0  0  0
   -0.8806    0.5516    2.2805 N   0  0  0  0  0  0  0  0  0  0  0  0
   -3.8658   -0.2581    0.8863 H   0  0  0  0  0  0  0  0  0  0  0  0
   -3.4858    1.3150    1.6111 H   0  0  0  0  0  0  0  0  0  0  0  0
   -3.5832   -0.1336    2.6327 H   0  0  0  0  0  0  0  0  0  0  0  0
   -1.6009   -1.3017   -0.3050 H   0  0  0  0  0  0  0  0  0  0  0  0
    1.3191   -1.7401   -0.7452 H   0  0  0  0  0  0  0  0  0  0  0  0
    3.6370   -1.7053   -0.9205 H   0  0  0  0  0  0  0  0  0  0  0  0
    7.0163    1.3910    1.7138 H   0  0  0  0  0  0  0  0  0  0  0  0
    8.9290    0.1539   -2.5137 H   0  0  0  0  0  0  0  0  0  0  0  0
    9.9351   -1.5524   -3.9426 H   0  0  0  0  0  0  0  0  0  0  0  0
   10.8181   -2.2175   -6.1323 H   0  0  0  0  0  0  0  0  0  0  0  0
    9.2739   -2.6760   -8.0199 H   0  0  0  0  0  0  0  0  0  0  0  0
    6.8254   -2.4447   -7.6956 H   0  0  0  0  0  0  0  0  0  0  0  0
    5.9166   -1.7507   -5.5244 H   0  0  0  0  0  0  0  0  0  0  0  0
    3.7112    0.2322    2.2611 H   0  0  0  0  0  0  0  0  0  0  0  0
    1.7110    1.1184    3.3288 H   0  0  0  0  0  0  0  0  0  0  0  0
   -1.0767    1.1519    3.0695 H   0  0  0  0  0  0  0  0  0  0  0  0
  1  2  1  0  0  0  0
  1 27  1  0  0  0  0
  1 28  1  0  0  0  0
  1 29  1  0  0  0  0
  2  3  2  0  0  0  0
  2 26  1  0  0  0  0
  3  4  1  0  0  0  0
  3 30  1  0  0  0  0
  4  5  1  0  0  0  0
  4 25  2  0  0  0  0
  5  6  2  0  0  0  0
  5 31  1  0  0  0  0
  6  7  1  0  0  0  0
  6 23  1  0  0  0  0
  7  8  1  0  0  0  0
  7 32  1  0  0  0  0
  8  9  1  0  0  0  0
  8 22  2  0  0  0  0
  9 10  2  0  0  0  0
 10 11  1  0  0  0  0
 10 33  1  0  0  0  0
 11 12  2  0  0  0  0
 12 13  1  0  0  0  0
 12 22  1  0  0  0  0
 13 14  2  0  0  0  0
 13 34  1  0  0  0  0
 14 15  1  0  0  0  0
 14 21  1  0  0  0  0
 15 16  1  0  0  0  0
 15 20  2  0  0  0  0
 16 17  2  0  0  0  0
 16 35  1  0  0  0  0
 17 18  1  0  0  0  0
 17 36  1  0  0  0  0
 18 19  2  0  0  0  0
 18 37  1  0  0  0  0
 19 20  1  0  0  0  0
 19 38  1  0  0  0  0
 20 39  1  0  0  0  0
 21 22  1  0  0  0  0
 23 24  2  0  0  0  0
 23 40  1  0  0  0  0
 24 25  1  0  0  0  0
 24 41  1  0  0  0  0
 25 26  1  0  0  0  0
 26 42  1  0  0  0  0
M  END
$$$$
