CHEMBL3891953
 OpenBabel04072215373D

 42 45  0  0  0  0  0  0  0  0999 V2000
    2.3880   -0.6081    0.2812 C   0  0  0  0  0  0  0  0  0  0  0  0
    1.0094   -0.2484   -0.1401 C   0  0  0  0  0  0  0  0  0  0  0  0
    0.5510    1.0324   -0.5569 C   0  0  0  0  0  0  0  0  0  0  0  0
   -0.7802    0.8931   -0.8594 C   0  0  0  0  0  0  0  0  0  0  0  0
   -1.1839   -0.3866   -0.6605 O   0  0  0  0  0  0  0  0  0  0  0  0
   -0.0953   -1.0892   -0.2094 C   0  0  0  0  0  0  0  0  0  0  0  0
   -0.2478   -2.5010    0.1072 C   0  0  0  0  0  0  0  0  0  0  0  0
    0.6754   -3.1603    0.5762 O   0  0  0  0  0  0  0  0  0  0  0  0
   -1.5061   -3.0006   -0.2046 N   0  0  0  0  0  0  0  0  0  0  0  0
   -1.9616   -4.3246   -0.0337 C   0  0  0  0  0  0  0  0  0  0  0  0
   -1.2643   -5.2773    0.7109 C   0  0  0  0  0  0  0  0  0  0  0  0
   -1.7021   -6.6011    0.7687 C   0  0  0  0  0  0  0  0  0  0  0  0
   -2.8590   -6.9800    0.0976 C   0  0  0  0  0  0  0  0  0  0  0  0
   -3.6361   -6.0146   -0.5476 C   0  0  0  0  0  0  0  0  0  0  0  0
   -4.8400   -6.2872   -1.1630 O   0  0  0  0  0  0  0  0  0  0  0  0
   -5.6713   -7.2587   -0.6389 C   0  0  0  0  0  0  0  0  0  0  0  0
   -5.7756   -7.5363    0.7270 C   0  0  0  0  0  0  0  0  0  0  0  0
   -6.5986   -8.5634    1.1457 C   0  0  0  0  0  0  0  0  0  0  0  0
   -7.3808   -9.3023    0.3423 N   0  0  0  0  0  0  0  0  0  0  0  0
   -7.3542   -8.9727   -0.9749 C   0  0  0  0  0  0  0  0  0  0  0  0
   -8.1527   -9.5883   -1.9787 C   0  0  0  0  0  0  0  0  0  0  0  0
   -7.9489   -9.0556   -3.2353 C   0  0  0  0  0  0  0  0  0  0  0  0
   -8.6283   -9.4488   -4.4574 C   0  0  0  0  0  0  0  0  0  0  0  0
   -9.4740  -10.3265   -4.5408 O   0  0  0  0  0  0  0  0  0  0  0  0
   -8.2354   -8.7329   -5.5447 O   0  0  0  0  0  0  0  0  0  0  0  0
   -6.7564   -7.8277   -3.1950 S   0  0  0  0  0  0  0  0  0  0  0  0
   -6.5284   -7.9754   -1.4947 C   0  0  0  0  0  0  0  0  0  0  0  0
   -3.1696   -4.6956   -0.6417 C   0  0  0  0  0  0  0  0  0  0  0  0
    3.0645    0.2475    0.1845 H   0  0  0  0  0  0  0  0  0  0  0  0
    2.7837   -1.4181   -0.3400 H   0  0  0  0  0  0  0  0  0  0  0  0
    2.4007   -0.9309    1.3270 H   0  0  0  0  0  0  0  0  0  0  0  0
    1.1291    1.9445   -0.6294 H   0  0  0  0  0  0  0  0  0  0  0  0
   -1.5419    1.5765   -1.2099 H   0  0  0  0  0  0  0  0  0  0  0  0
   -2.1161   -2.3492   -0.6854 H   0  0  0  0  0  0  0  0  0  0  0  0
   -0.3654   -5.0242    1.2673 H   0  0  0  0  0  0  0  0  0  0  0  0
   -1.1331   -7.3332    1.3359 H   0  0  0  0  0  0  0  0  0  0  0  0
   -3.1531   -8.0252    0.1135 H   0  0  0  0  0  0  0  0  0  0  0  0
   -5.2062   -6.9826    1.4655 H   0  0  0  0  0  0  0  0  0  0  0  0
   -6.6455   -8.8308    2.1990 H   0  0  0  0  0  0  0  0  0  0  0  0
   -8.8617  -10.3836   -1.7774 H   0  0  0  0  0  0  0  0  0  0  0  0
   -7.5565   -8.0690   -5.3182 H   0  0  0  0  0  0  0  0  0  0  0  0
   -3.7494   -3.9738   -1.2090 H   0  0  0  0  0  0  0  0  0  0  0  0
  1  2  1  0  0  0  0
  1 29  1  0  0  0  0
  1 30  1  0  0  0  0
  1 31  1  0  0  0  0
  2  3  1  0  0  0  0
  2  6  2  0  0  0  0
  3  4  2  0  0  0  0
  3 32  1  0  0  0  0
  4  5  1  0  0  0  0
  4 33  1  0  0  0  0
  5  6  1  0  0  0  0
  6  7  1  0  0  0  0
  7  8  2  0  0  0  0
  7  9  1  0  0  0  0
  9 10  1  0  0  0  0
  9 34  1  0  0  0  0
 10 11  1  0  0  0  0
 10 28  2  0  0  0  0
 11 12  2  0  0  0  0
 11 35  1  0  0  0  0
 12 13  1  0  0  0  0
 12 36  1  0  0  0  0
 13 14  2  0  0  0  0
 13 37  1  0  0  0  0
 14 15  1  0  0  0  0
 14 28  1  0  0  0  0
 15 16  1  0  0  0  0
 16 17  1  0  0  0  0
 16 27  2  0  0  0  0
 17 18  2  0  0  0  0
 17 38  1  0  0  0  0
 18 19  1  0  0  0  0
 18 39  1  0  0  0  0
 19 20  2  0  0  0  0
 20 21  1  0  0  0  0
 20 27  1  0  0  0  0
 21 22  2  0  0  0  0
 21 40  1  0  0  0  0
 22 23  1  0  0  0  0
 22 26  1  0  0  0  0
 23 24  2  0  0  0  0
 23 25  1  0  0  0  0
 25 41  1  0  0  0  0
 26 27  1  0  0  0  0
 28 42  1  0  0  0  0
M  END
$$$$
