CHEMBL4286023
 OpenBabel04072215383D

 54 57  0  0  1  0  0  0  0  0999 V2000
    2.7632    0.6846   -0.7993 C   0  0  0  0  0  0  0  0  0  0  0  0
    4.2293    0.3455   -0.6210 C   0  0  0  0  0  0  0  0  0  0  0  0
    4.6404    0.6334    0.7205 O   0  0  0  0  0  0  0  0  0  0  0  0
    4.4159   -0.3192    1.6461 C   0  0  0  0  0  0  0  0  0  0  0  0
    3.8524   -1.3800    1.4233 O   0  0  0  0  0  0  0  0  0  0  0  0
    4.9302    0.0636    2.9990 C   0  0  0  0  0  0  0  0  0  0  0  0
    5.8955    0.9776    3.2894 C   0  0  0  0  0  0  0  0  0  0  0  0
    6.5039    1.9428    2.2664 C   0  0  0  0  0  0  0  0  0  0  0  0
    8.0136    1.2418    1.5161 S   0  0  0  0  0  0  0  0  0  0  0  0
    8.3817    2.4552    0.3416 C   0  0  0  0  0  0  0  0  0  0  0  0
    7.8267    3.6351    0.2171 N   0  0  0  0  0  0  0  0  0  0  0  0
    8.2878    4.1152   -0.9823 C   0  0  0  0  0  0  0  0  0  0  0  0
    7.9230    5.2814   -1.6643 C   0  0  0  0  0  0  0  0  0  0  0  0
    8.5012    5.5178   -2.9271 C   0  0  0  0  0  0  0  0  0  0  0  0
    8.1003    6.7155   -3.6687 N   0  3  0  0  0  0  0  0  0  0  0  0
    7.2627    7.4696   -3.1433 O   0  0  0  0  0  0  0  0  0  0  0  0
    8.6128    6.9094   -4.7812 O   0  5  0  0  0  0  0  0  0  0  0  0
    9.4309    4.6223   -3.4876 C   0  0  0  0  0  0  0  0  0  0  0  0
    9.8003    3.4563   -2.8061 C   0  0  0  0  0  0  0  0  0  0  0  0
    9.1986    3.2316   -1.5639 C   0  0  0  0  0  0  0  0  0  0  0  0
    9.2715    2.1957   -0.6636 N   0  0  0  0  0  0  0  0  0  0  0  0
    6.3352    1.0728    4.6297 N   0  0  0  0  0  0  0  0  0  0  0  0
    7.4172    1.9524    5.0547 C   0  0  0  0  0  0  0  0  0  0  0  0
    5.8575    0.2640    5.6561 C   0  0  0  0  0  0  0  0  0  0  0  0
    6.2519    0.3202    6.8197 O   0  0  0  0  0  0  0  0  0  0  0  0
    4.9146   -0.6485    5.3349 N   0  0  0  0  0  0  0  0  0  0  0  0
    4.2449   -0.7566    4.0703 C   0  0  3  0  0  0  0  0  0  0  0  0
    2.7735   -0.3824    4.2158 C   0  0  0  0  0  0  0  0  0  0  0  0
    2.3839    0.8793    4.6981 C   0  0  0  0  0  0  0  0  0  0  0  0
    1.0442    1.2706    4.6599 C   0  0  0  0  0  0  0  0  0  0  0  0
    0.0775    0.4061    4.1510 C   0  0  0  0  0  0  0  0  0  0  0  0
    0.4421   -0.8644    3.7105 C   0  0  0  0  0  0  0  0  0  0  0  0
    1.7783   -1.2605    3.7543 C   0  0  0  0  0  0  0  0  0  0  0  0
    2.4658    0.5643   -1.8438 H   0  0  0  0  0  0  0  0  0  0  0  0
    2.5653    1.7155   -0.4872 H   0  0  0  0  0  0  0  0  0  0  0  0
    2.1347    0.0382   -0.1790 H   0  0  0  0  0  0  0  0  0  0  0  0
    4.8375    0.9770   -1.2769 H   0  0  0  0  0  0  0  0  0  0  0  0
    4.4415   -0.6965   -0.8861 H   0  0  0  0  0  0  0  0  0  0  0  0
    6.7297    2.9096    2.7242 H   0  0  0  0  0  0  0  0  0  0  0  0
    5.7926    2.2363    1.4932 H   0  0  0  0  0  0  0  0  0  0  0  0
    7.1856    5.9463   -1.2273 H   0  0  0  0  0  0  0  0  0  0  0  0
    9.8653    4.8190   -4.4689 H   0  0  0  0  0  0  0  0  0  0  0  0
   10.5012    2.7499   -3.2437 H   0  0  0  0  0  0  0  0  0  0  0  0
    9.7926    1.3409   -0.7705 H   0  0  0  0  0  0  0  0  0  0  0  0
    7.8553    2.5641    4.2697 H   0  0  0  0  0  0  0  0  0  0  0  0
    8.2219    1.3385    5.4757 H   0  0  0  0  0  0  0  0  0  0  0  0
    7.0421    2.6167    5.8407 H   0  0  0  0  0  0  0  0  0  0  0  0
    4.5657   -1.1850    6.1163 H   0  0  0  0  0  0  0  0  0  0  0  0
    4.3239   -1.8249    3.8274 H   0  0  0  0  0  0  0  0  0  0  0  0
    3.1274    1.5792    5.0736 H   0  0  0  0  0  0  0  0  0  0  0  0
    0.7601    2.2619    5.0028 H   0  0  0  0  0  0  0  0  0  0  0  0
   -0.9585    0.7265    4.0853 H   0  0  0  0  0  0  0  0  0  0  0  0
   -0.3087   -1.5353    3.3015 H   0  0  0  0  0  0  0  0  0  0  0  0
    2.0466   -2.2444    3.3706 H   0  0  0  0  0  0  0  0  0  0  0  0
  1  2  1  0  0  0  0
  1 34  1  0  0  0  0
  1 35  1  0  0  0  0
  1 36  1  0  0  0  0
  2  3  1  0  0  0  0
  2 37  1  0  0  0  0
  2 38  1  0  0  0  0
  3  4  1  0  0  0  0
  4  5  2  0  0  0  0
  4  6  1  0  0  0  0
  6  7  2  0  0  0  0
  6 27  1  0  0  0  0
  7  8  1  0  0  0  0
  7 22  1  0  0  0  0
  8  9  1  0  0  0  0
  8 39  1  0  0  0  0
  8 40  1  0  0  0  0
  9 10  1  0  0  0  0
 10 11  2  0  0  0  0
 10 21  1  0  0  0  0
 11 12  1  0  0  0  0
 12 13  1  0  0  0  0
 12 20  2  0  0  0  0
 13 14  2  0  0  0  0
 13 41  1  0  0  0  0
 14 15  1  0  0  0  0
 14 18  1  0  0  0  0
 15 16  2  0  0  0  0
 15 17  1  0  0  0  0
 18 19  2  0  0  0  0
 18 42  1  0  0  0  0
 19 20  1  0  0  0  0
 19 43  1  0  0  0  0
 20 21  1  0  0  0  0
 21 44  1  0  0  0  0
 22 23  1  0  0  0  0
 22 24  1  0  0  0  0
 23 45  1  0  0  0  0
 23 46  1  0  0  0  0
 23 47  1  0  0  0  0
 24 25  2  0  0  0  0
 24 26  1  0  0  0  0
 26 27  1  0  0  0  0
 26 48  1  0  0  0  0
 27 28  1  0  0  0  0
 27 49  1  0  0  0  0
 28 29  1  0  0  0  0
 28 33  2  0  0  0  0
 29 30  2  0  0  0  0
 29 50  1  0  0  0  0
 30 31  1  0  0  0  0
 30 51  1  0  0  0  0
 31 32  2  0  0  0  0
 31 52  1  0  0  0  0
 32 33  1  0  0  0  0
 32 53  1  0  0  0  0
 33 54  1  0  0  0  0
M  CHG  2  15   1  17  -1
M  END
$$$$
