CHEMBL231355
 OpenBabel04072215363D

 48 51  0  0  0  0  0  0  0  0999 V2000
    2.3506    0.1430    0.4453 C   0  0  0  0  0  0  0  0  0  0  0  0
    0.9889   -0.0066   -0.1649 C   0  0  0  0  0  0  0  0  0  0  0  0
    0.4919    0.9724   -1.0270 C   0  0  0  0  0  0  0  0  0  0  0  0
   -0.7623    0.8149   -1.5984 C   0  0  0  0  0  0  0  0  0  0  0  0
   -1.5238   -0.3231   -1.3133 C   0  0  0  0  0  0  0  0  0  0  0  0
   -1.0778   -1.3187   -0.4271 C   0  0  0  0  0  0  0  0  0  0  0  0
   -1.8985   -2.4749   -0.1149 N   0  0  0  0  0  0  0  0  0  0  0  0
   -1.2411   -3.6967    0.3389 C   0  0  0  0  0  0  0  0  0  0  0  0
   -3.3026   -2.3948   -0.2088 C   0  0  0  0  0  0  0  0  0  0  0  0
   -3.9052   -1.3463   -0.4353 O   0  0  0  0  0  0  0  0  0  0  0  0
   -3.9914   -3.5866    0.0125 N   0  0  0  0  0  0  0  0  0  0  0  0
   -5.3892   -3.7515   -0.1615 C   0  0  0  0  0  0  0  0  0  0  0  0
   -6.1535   -2.8921   -0.9491 C   0  0  0  0  0  0  0  0  0  0  0  0
   -7.5456   -2.9892   -0.9690 C   0  0  0  0  0  0  0  0  0  0  0  0
   -8.2113   -3.9934   -0.2561 C   0  0  0  0  0  0  0  0  0  0  0  0
   -9.6837   -4.0079   -0.2011 C   0  0  0  0  0  0  0  0  0  0  0  0
  -10.3981   -3.6277   -1.3256 C   0  0  0  0  0  0  0  0  0  0  0  0
  -12.0765   -3.6262   -1.0964 S   0  0  0  0  0  0  0  0  0  0  0  0
  -11.9220   -4.1624    0.5266 C   0  0  0  0  0  0  0  0  0  0  0  0
  -12.9915   -4.4084    1.3951 C   0  0  0  0  0  0  0  0  0  0  0  0
  -12.6595   -4.8334    2.6570 C   0  0  0  0  0  0  0  0  0  0  0  0
  -11.4004   -4.9927    3.0872 N   0  0  0  0  0  0  0  0  0  0  0  0
  -10.3599   -4.7343    2.2627 C   0  0  0  0  0  0  0  0  0  0  0  0
   -9.1180   -4.8781    2.8730 N   0  0  0  0  0  0  0  0  0  0  0  0
  -10.5827   -4.3266    0.9164 C   0  0  0  0  0  0  0  0  0  0  0  0
   -7.4282   -4.9482    0.4013 C   0  0  0  0  0  0  0  0  0  0  0  0
   -6.0310   -4.8110    0.4788 C   0  0  0  0  0  0  0  0  0  0  0  0
    0.2010   -1.1387    0.1309 C   0  0  0  0  0  0  0  0  0  0  0  0
    2.8185    1.0902    0.1535 H   0  0  0  0  0  0  0  0  0  0  0  0
    3.0030   -0.6707    0.1105 H   0  0  0  0  0  0  0  0  0  0  0  0
    2.2810    0.1270    1.5370 H   0  0  0  0  0  0  0  0  0  0  0  0
    1.0723    1.8625   -1.2552 H   0  0  0  0  0  0  0  0  0  0  0  0
   -1.1579    1.5715   -2.2704 H   0  0  0  0  0  0  0  0  0  0  0  0
   -2.4756   -0.4059   -1.8277 H   0  0  0  0  0  0  0  0  0  0  0  0
   -0.1528   -3.6678    0.2662 H   0  0  0  0  0  0  0  0  0  0  0  0
   -1.5738   -4.5317   -0.2864 H   0  0  0  0  0  0  0  0  0  0  0  0
   -1.5332   -3.8908    1.3758 H   0  0  0  0  0  0  0  0  0  0  0  0
   -3.5416   -4.2736    0.5939 H   0  0  0  0  0  0  0  0  0  0  0  0
   -5.6961   -2.1068   -1.5443 H   0  0  0  0  0  0  0  0  0  0  0  0
   -8.0896   -2.2380   -1.5386 H   0  0  0  0  0  0  0  0  0  0  0  0
  -10.0147   -3.3323   -2.2932 H   0  0  0  0  0  0  0  0  0  0  0  0
  -14.0232   -4.2734    1.0905 H   0  0  0  0  0  0  0  0  0  0  0  0
  -13.4310   -5.0571    3.3903 H   0  0  0  0  0  0  0  0  0  0  0  0
   -9.2680   -4.9737    3.8721 H   0  0  0  0  0  0  0  0  0  0  0  0
   -8.4695   -4.1456    2.6116 H   0  0  0  0  0  0  0  0  0  0  0  0
   -7.8940   -5.7964    0.9004 H   0  0  0  0  0  0  0  0  0  0  0  0
   -5.4743   -5.5269    1.0772 H   0  0  0  0  0  0  0  0  0  0  0  0
    0.6030   -1.8475    0.8481 H   0  0  0  0  0  0  0  0  0  0  0  0
  1  2  1  0  0  0  0
  1 29  1  0  0  0  0
  1 30  1  0  0  0  0
  1 31  1  0  0  0  0
  2  3  1  0  0  0  0
  2 28  2  0  0  0  0
  3  4  2  0  0  0  0
  3 32  1  0  0  0  0
  4  5  1  0  0  0  0
  4 33  1  0  0  0  0
  5  6  2  0  0  0  0
  5 34  1  0  0  0  0
  6  7  1  0  0  0  0
  6 28  1  0  0  0  0
  7  8  1  0  0  0  0
  7  9  1  0  0  0  0
  8 35  1  0  0  0  0
  8 36  1  0  0  0  0
  8 37  1  0  0  0  0
  9 10  2  0  0  0  0
  9 11  1  0  0  0  0
 11 12  1  0  0  0  0
 11 38  1  0  0  0  0
 12 13  1  0  0  0  0
 12 27  2  0  0  0  0
 13 14  2  0  0  0  0
 13 39  1  0  0  0  0
 14 15  1  0  0  0  0
 14 40  1  0  0  0  0
 15 16  1  0  0  0  0
 15 26  2  0  0  0  0
 16 17  2  0  0  0  0
 16 25  1  0  0  0  0
 17 18  1  0  0  0  0
 17 41  1  0  0  0  0
 18 19  1  0  0  0  0
 19 20  1  0  0  0  0
 19 25  2  0  0  0  0
 20 21  2  0  0  0  0
 20 42  1  0  0  0  0
 21 22  1  0  0  0  0
 21 43  1  0  0  0  0
 22 23  2  0  0  0  0
 23 24  1  0  0  0  0
 23 25  1  0  0  0  0
 24 44  1  0  0  0  0
 24 45  1  0  0  0  0
 26 27  1  0  0  0  0
 26 46  1  0  0  0  0
 27 47  1  0  0  0  0
 28 48  1  0  0  0  0
M  END
$$$$
