CHEMBL219293
 OpenBabel04072215363D

 69 75  0  0  0  0  0  0  0  0999 V2000
    3.4153    0.1433   -1.2262 C   0  0  0  0  0  0  0  0  0  0  0  0
    2.9937    0.9647   -0.0184 C   0  0  0  0  0  0  0  0  0  0  0  0
    3.6034    0.4974    1.3196 C   0  0  0  0  0  0  0  0  0  0  0  0
    5.0525    0.6196    1.4458 N   0  0  0  0  0  0  0  0  0  0  0  0
    5.7469    1.8488    1.3378 C   0  0  0  0  0  0  0  0  0  0  0  0
    5.3037    3.1791    1.1997 C   0  0  0  0  0  0  0  0  0  0  0  0
    6.2582    4.2064    1.0163 C   0  0  0  0  0  0  0  0  0  0  0  0
    7.6281    3.9483    1.0107 C   0  0  0  0  0  0  0  0  0  0  0  0
    8.6589    4.9154    0.8725 N   0  0  0  0  0  0  0  0  0  0  0  0
    8.5217    6.2625    0.6020 C   0  0  0  0  0  0  0  0  0  0  0  0
    7.4233    6.7569    0.3677 O   0  0  0  0  0  0  0  0  0  0  0  0
    9.7291    7.0153    0.5902 N   0  0  0  0  0  0  0  0  0  0  0  0
   11.0827    6.4304    0.6477 C   0  0  0  0  0  0  0  0  0  0  0  0
    9.6875    8.4620    0.4092 C   0  0  0  0  0  0  0  0  0  0  0  0
    8.5576    9.2229    0.7486 C   0  0  0  0  0  0  0  0  0  0  0  0
    8.5055   10.5995    0.5396 C   0  0  0  0  0  0  0  0  0  0  0  0
    9.6046   11.2724    0.0092 C   0  0  0  0  0  0  0  0  0  0  0  0
   10.7539   10.5541   -0.2974 C   0  0  0  0  0  0  0  0  0  0  0  0
   10.7935    9.1691   -0.0968 C   0  0  0  0  0  0  0  0  0  0  0  0
    8.0496    2.6225    1.1447 C   0  0  0  0  0  0  0  0  0  0  0  0
    7.1172    1.5725    1.2779 C   0  0  0  0  0  0  0  0  0  0  0  0
    7.1419    0.1934    1.2712 C   0  0  0  0  0  0  0  0  0  0  0  0
    8.2452   -0.5428    0.8167 C   0  0  0  0  0  0  0  0  0  0  0  0
    7.9594   -1.8517    0.3874 C   0  0  0  0  0  0  0  0  0  0  0  0
    6.7012   -2.4630    0.5239 C   0  0  0  0  0  0  0  0  0  0  0  0
    5.9002   -1.8595    1.5499 C   0  0  0  0  0  0  0  0  0  0  0  0
    5.9593   -0.4435    1.5330 C   0  0  0  0  0  0  0  0  0  0  0  0
    5.9479   -2.7260    2.8919 C   0  0  0  0  0  0  0  0  0  0  0  0
    6.9905   -3.9277    2.8729 C   0  0  0  0  0  0  0  0  0  0  0  0
    6.7642   -4.6639    1.6003 C   0  0  0  0  0  0  0  0  0  0  0  0
    6.3693   -5.9268    1.4479 N   0  0  0  0  0  0  0  0  0  0  0  0
    5.8844   -5.9273    0.1793 N   0  0  0  0  0  0  0  0  0  0  0  0
    5.2212   -7.1026   -0.3345 C   0  0  0  0  0  0  0  0  0  0  0  0
    5.8918   -4.6896   -0.4141 C   0  0  0  0  0  0  0  0  0  0  0  0
    6.6220   -3.8977    0.4330 C   0  0  0  0  0  0  0  0  0  0  0  0
    9.2096   -2.4419   -0.0334 C   0  0  0  0  0  0  0  0  0  0  0  0
    9.5281   -3.5529   -0.4285 O   0  0  0  0  0  0  0  0  0  0  0  0
   10.1497   -1.4356    0.1592 N   0  0  0  0  0  0  0  0  0  0  0  0
    9.6435   -0.1753    0.6460 C   0  0  0  0  0  0  0  0  0  0  0  0
    2.9885    0.5838   -2.1393 H   0  0  0  0  0  0  0  0  0  0  0  0
    3.0465   -0.8825   -1.1523 H   0  0  0  0  0  0  0  0  0  0  0  0
    4.5001    0.1253   -1.3470 H   0  0  0  0  0  0  0  0  0  0  0  0
    1.9001    0.9184    0.0629 H   0  0  0  0  0  0  0  0  0  0  0  0
    3.2315    2.0138   -0.2178 H   0  0  0  0  0  0  0  0  0  0  0  0
    3.3279   -0.5441    1.5106 H   0  0  0  0  0  0  0  0  0  0  0  0
    3.1791    1.1016    2.1308 H   0  0  0  0  0  0  0  0  0  0  0  0
    4.2478    3.4325    1.1880 H   0  0  0  0  0  0  0  0  0  0  0  0
    5.8763    5.2128    0.8696 H   0  0  0  0  0  0  0  0  0  0  0  0
    9.5838    4.5321    0.8978 H   0  0  0  0  0  0  0  0  0  0  0  0
   11.1157    5.3957    0.9734 H   0  0  0  0  0  0  0  0  0  0  0  0
   11.6945    6.9978    1.3494 H   0  0  0  0  0  0  0  0  0  0  0  0
   11.5233    6.4653   -0.3597 H   0  0  0  0  0  0  0  0  0  0  0  0
    7.6868    8.7681    1.2094 H   0  0  0  0  0  0  0  0  0  0  0  0
    7.6033   11.1520    0.7970 H   0  0  0  0  0  0  0  0  0  0  0  0
    9.5578   12.3417   -0.1672 H   0  0  0  0  0  0  0  0  0  0  0  0
   11.6178   11.0720   -0.7109 H   0  0  0  0  0  0  0  0  0  0  0  0
   11.7025    8.6721   -0.3802 H   0  0  0  0  0  0  0  0  0  0  0  0
    9.1057    2.3963    1.1253 H   0  0  0  0  0  0  0  0  0  0  0  0
    4.9493   -3.1477    3.0507 H   0  0  0  0  0  0  0  0  0  0  0  0
    6.1962   -2.0762    3.7387 H   0  0  0  0  0  0  0  0  0  0  0  0
    6.9008   -4.5767    3.7479 H   0  0  0  0  0  0  0  0  0  0  0  0
    8.0174   -3.5287    2.8698 H   0  0  0  0  0  0  0  0  0  0  0  0
    5.4472   -7.9583    0.3062 H   0  0  0  0  0  0  0  0  0  0  0  0
    5.5804   -7.2879   -1.3476 H   0  0  0  0  0  0  0  0  0  0  0  0
    4.1449   -6.9085   -0.3356 H   0  0  0  0  0  0  0  0  0  0  0  0
    5.3415   -4.4851   -1.3232 H   0  0  0  0  0  0  0  0  0  0  0  0
   11.1262   -1.6412    0.0126 H   0  0  0  0  0  0  0  0  0  0  0  0
    9.7937    0.5856   -0.1201 H   0  0  0  0  0  0  0  0  0  0  0  0
   10.1272    0.0816    1.5951 H   0  0  0  0  0  0  0  0  0  0  0  0
  1  2  1  0  0  0  0
  1 40  1  0  0  0  0
  1 41  1  0  0  0  0
  1 42  1  0  0  0  0
  2  3  1  0  0  0  0
  2 43  1  0  0  0  0
  2 44  1  0  0  0  0
  3  4  1  0  0  0  0
  3 45  1  0  0  0  0
  3 46  1  0  0  0  0
  4  5  1  0  0  0  0
  4 27  1  0  0  0  0
  5  6  1  0  0  0  0
  5 21  2  0  0  0  0
  6  7  2  0  0  0  0
  6 47  1  0  0  0  0
  7  8  1  0  0  0  0
  7 48  1  0  0  0  0
  8  9  1  0  0  0  0
  8 20  2  0  0  0  0
  9 10  1  0  0  0  0
  9 49  1  0  0  0  0
 10 11  2  0  0  0  0
 10 12  1  0  0  0  0
 12 13  1  0  0  0  0
 12 14  1  0  0  0  0
 13 50  1  0  0  0  0
 13 51  1  0  0  0  0
 13 52  1  0  0  0  0
 14 15  1  0  0  0  0
 14 19  2  0  0  0  0
 15 16  2  0  0  0  0
 15 53  1  0  0  0  0
 16 17  1  0  0  0  0
 16 54  1  0  0  0  0
 17 18  2  0  0  0  0
 17 55  1  0  0  0  0
 18 19  1  0  0  0  0
 18 56  1  0  0  0  0
 19 57  1  0  0  0  0
 20 21  1  0  0  0  0
 20 58  1  0  0  0  0
 21 22  1  0  0  0  0
 22 23  1  0  0  0  0
 22 27  2  0  0  0  0
 23 24  2  0  0  0  0
 23 39  1  0  0  0  0
 24 25  1  0  0  0  0
 24 36  1  0  0  0  0
 25 26  2  0  0  0  0
 25 35  1  0  0  0  0
 26 27  1  0  0  0  0
 26 28  1  0  0  0  0
 28 29  1  0  0  0  0
 28 59  1  0  0  0  0
 28 60  1  0  0  0  0
 29 30  1  0  0  0  0
 29 61  1  0  0  0  0
 29 62  1  0  0  0  0
 30 31  2  0  0  0  0
 30 35  1  0  0  0  0
 31 32  1  0  0  0  0
 32 33  1  0  0  0  0
 32 34  1  0  0  0  0
 33 63  1  0  0  0  0
 33 64  1  0  0  0  0
 33 65  1  0  0  0  0
 34 35  2  0  0  0  0
 34 66  1  0  0  0  0
 36 37  2  0  0  0  0
 36 38  1  0  0  0  0
 38 39  1  0  0  0  0
 38 67  1  0  0  0  0
 39 68  1  0  0  0  0
 39 69  1  0  0  0  0
M  END
$$$$
