CHEMBL3983586
 OpenBabel04072215373D

 48 51  0  0  0  0  0  0  0  0999 V2000
    2.6874   -0.2116    0.5733 C   0  0  0  0  0  0  0  0  0  0  0  0
    1.2009   -0.1378    0.3714 C   0  0  0  0  0  0  0  0  0  0  0  0
    0.5015   -1.1509   -0.2948 C   0  0  0  0  0  0  0  0  0  0  0  0
   -0.8914   -1.0761   -0.4547 C   0  0  0  0  0  0  0  0  0  0  0  0
   -1.6287   -0.0079    0.0805 C   0  0  0  0  0  0  0  0  0  0  0  0
   -3.1345    0.0462   -0.0520 C   0  0  0  0  0  0  0  0  0  0  0  0
   -3.9322   -1.2377   -0.0610 C   0  0  0  0  0  0  0  0  0  0  0  0
   -3.6406   -2.3814    0.5792 C   0  0  0  0  0  0  0  0  0  0  0  0
   -4.4674   -3.6146    0.5982 C   0  0  0  0  0  0  0  0  0  0  0  0
   -5.7475   -3.7217    0.0264 C   0  0  0  0  0  0  0  0  0  0  0  0
   -6.4716   -4.9218    0.0912 C   0  0  0  0  0  0  0  0  0  0  0  0
   -5.9209   -6.0289    0.7289 C   0  0  0  0  0  0  0  0  0  0  0  0
   -6.6114   -7.1739    0.7860 F   0  0  0  0  0  0  0  0  0  0  0  0
   -4.6629   -5.9493    1.3058 C   0  0  0  0  0  0  0  0  0  0  0  0
   -3.9426   -4.7496    1.2424 C   0  0  0  0  0  0  0  0  0  0  0  0
   -3.8886    1.1144   -0.1754 N   0  0  0  0  0  0  0  0  0  0  0  0
   -3.3268    2.3435   -0.2477 N   0  0  0  0  0  0  0  0  0  0  0  0
   -4.1284    3.5029   -0.3551 C   0  0  0  0  0  0  0  0  0  0  0  0
   -3.5636    4.4932   -1.0941 N   0  0  0  0  0  0  0  0  0  0  0  0
   -4.1845    5.6920   -1.2688 N   0  0  0  0  0  0  0  0  0  0  0  0
   -5.3808    5.8939   -0.6919 C   0  0  0  0  0  0  0  0  0  0  0  0
   -6.0210    4.9419    0.0872 C   0  0  0  0  0  0  0  0  0  0  0  0
   -7.2720    5.2198    0.6708 C   0  0  0  0  0  0  0  0  0  0  0  0
   -7.9084    4.2748    1.4707 C   0  0  0  0  0  0  0  0  0  0  0  0
   -7.2928    3.0526    1.7085 C   0  0  0  0  0  0  0  0  0  0  0  0
   -6.0473    2.7715    1.1337 C   0  0  0  0  0  0  0  0  0  0  0  0
   -5.3796    3.6984    0.2895 C   0  0  0  0  0  0  0  0  0  0  0  0
   -0.9161    1.0090    0.7335 C   0  0  0  0  0  0  0  0  0  0  0  0
    0.4813    0.9562    0.8584 C   0  0  0  0  0  0  0  0  0  0  0  0
    3.1026   -1.1458    0.1814 H   0  0  0  0  0  0  0  0  0  0  0  0
    2.9228   -0.1696    1.6427 H   0  0  0  0  0  0  0  0  0  0  0  0
    3.1871    0.6196    0.0659 H   0  0  0  0  0  0  0  0  0  0  0  0
    1.0383   -2.0092   -0.6941 H   0  0  0  0  0  0  0  0  0  0  0  0
   -1.3836   -1.8762   -1.0016 H   0  0  0  0  0  0  0  0  0  0  0  0
   -4.8711   -1.1236   -0.5965 H   0  0  0  0  0  0  0  0  0  0  0  0
   -2.7254   -2.4416    1.1644 H   0  0  0  0  0  0  0  0  0  0  0  0
   -6.2178   -2.8784   -0.4707 H   0  0  0  0  0  0  0  0  0  0  0  0
   -7.4595   -5.0014   -0.3501 H   0  0  0  0  0  0  0  0  0  0  0  0
   -4.2457   -6.8172    1.8072 H   0  0  0  0  0  0  0  0  0  0  0  0
   -2.9590   -4.7147    1.7067 H   0  0  0  0  0  0  0  0  0  0  0  0
   -2.5439    2.4678   -0.8925 H   0  0  0  0  0  0  0  0  0  0  0  0
   -5.8108    6.8727   -0.8758 H   0  0  0  0  0  0  0  0  0  0  0  0
   -7.7620    6.1776    0.5029 H   0  0  0  0  0  0  0  0  0  0  0  0
   -8.8779    4.4941    1.9117 H   0  0  0  0  0  0  0  0  0  0  0  0
   -7.7773    2.3120    2.3399 H   0  0  0  0  0  0  0  0  0  0  0  0
   -5.5933    1.8084    1.3529 H   0  0  0  0  0  0  0  0  0  0  0  0
   -1.4289    1.8605    1.1731 H   0  0  0  0  0  0  0  0  0  0  0  0
    1.0012    1.7733    1.3566 H   0  0  0  0  0  0  0  0  0  0  0  0
  1  2  1  0  0  0  0
  1 30  1  0  0  0  0
  1 31  1  0  0  0  0
  1 32  1  0  0  0  0
  2  3  1  0  0  0  0
  2 29  2  0  0  0  0
  3  4  2  0  0  0  0
  3 33  1  0  0  0  0
  4  5  1  0  0  0  0
  4 34  1  0  0  0  0
  5  6  1  0  0  0  0
  5 28  2  0  0  0  0
  6  7  1  0  0  0  0
  6 16  2  0  0  0  0
  7  8  2  0  0  0  0
  7 35  1  0  0  0  0
  8  9  1  0  0  0  0
  8 36  1  0  0  0  0
  9 10  1  0  0  0  0
  9 15  2  0  0  0  0
 10 11  2  0  0  0  0
 10 37  1  0  0  0  0
 11 12  1  0  0  0  0
 11 38  1  0  0  0  0
 12 13  1  0  0  0  0
 12 14  2  0  0  0  0
 14 15  1  0  0  0  0
 14 39  1  0  0  0  0
 15 40  1  0  0  0  0
 16 17  1  0  0  0  0
 17 18  1  0  0  0  0
 17 41  1  0  0  0  0
 18 19  1  0  0  0  0
 18 27  2  0  0  0  0
 19 20  2  0  0  0  0
 20 21  1  0  0  0  0
 21 22  2  0  0  0  0
 21 42  1  0  0  0  0
 22 23  1  0  0  0  0
 22 27  1  0  0  0  0
 23 24  2  0  0  0  0
 23 43  1  0  0  0  0
 24 25  1  0  0  0  0
 24 44  1  0  0  0  0
 25 26  2  0  0  0  0
 25 45  1  0  0  0  0
 26 27  1  0  0  0  0
 26 46  1  0  0  0  0
 28 29  1  0  0  0  0
 28 47  1  0  0  0  0
 29 48  1  0  0  0  0
M  END
$$$$
