CHEMBL3596873
 OpenBabel04072215363D

 61 64  0  0  0  0  0  0  0  0999 V2000
    5.9721   -2.3532   -8.3847 C   0  0  0  0  0  0  0  0  0  0  0  0
    4.5203   -2.1005   -7.9511 C   0  0  0  0  0  0  0  0  0  0  0  0
    4.3025   -0.5930   -7.7273 C   0  0  0  0  0  0  0  0  0  0  0  0
    3.5662   -2.5624   -9.0700 C   0  0  0  0  0  0  0  0  0  0  0  0
    4.2595   -2.8556   -6.6791 C   0  0  0  0  0  0  0  0  0  0  0  0
    4.4216   -2.5872   -5.3401 C   0  0  0  0  0  0  0  0  0  0  0  0
    3.9474   -3.7447   -4.6845 C   0  0  0  0  0  0  0  0  0  0  0  0
    3.8477   -3.8881   -3.3196 N   0  0  0  0  0  0  0  0  0  0  0  0
    3.2756   -4.9231   -2.6341 C   0  0  0  0  0  0  0  0  0  0  0  0
    3.1372   -4.8117   -1.4175 O   0  0  0  0  0  0  0  0  0  0  0  0
    2.9238   -6.0241   -3.3719 N   0  0  0  0  0  0  0  0  0  0  0  0
    2.2642   -7.1417   -2.8515 C   0  0  0  0  0  0  0  0  0  0  0  0
    1.1861   -6.9982   -1.9773 C   0  0  0  0  0  0  0  0  0  0  0  0
    0.5732   -8.1233   -1.4390 C   0  0  0  0  0  0  0  0  0  0  0  0
    1.0626   -9.3892   -1.7459 C   0  0  0  0  0  0  0  0  0  0  0  0
    2.1051   -9.5426   -2.6696 C   0  0  0  0  0  0  0  0  0  0  0  0
    2.6714  -10.7531   -3.0000 O   0  0  0  0  0  0  0  0  0  0  0  0
    1.8412  -11.8590   -3.0549 C   0  0  0  0  0  0  0  0  0  0  0  0
    2.3926  -13.0988   -2.7787 C   0  0  0  0  0  0  0  0  0  0  0  0
    1.6555  -14.2326   -2.7843 N   0  0  0  0  0  0  0  0  0  0  0  0
    0.3419  -14.0612   -3.0888 C   0  0  0  0  0  0  0  0  0  0  0  0
   -0.2256  -12.8240   -3.3979 C   0  0  0  0  0  0  0  0  0  0  0  0
   -1.6456  -12.6266   -3.7379 C   0  0  0  0  0  0  0  0  0  0  0  0
   -2.3241  -11.4424   -3.3704 C   0  0  0  0  0  0  0  0  0  0  0  0
   -3.6656  -11.2326   -3.7061 C   0  0  0  0  0  0  0  0  0  0  0  0
   -4.3473  -12.2067   -4.4349 C   0  0  0  0  0  0  0  0  0  0  0  0
   -6.0581  -11.9643   -4.8609 S   0  0  0  0  0  0  0  0  0  0  0  0
   -5.9846  -11.1142   -6.4151 C   0  0  0  0  0  0  0  0  0  0  0  0
   -6.6354  -13.2772   -5.0915 O   0  0  0  0  0  0  0  0  0  0  0  0
   -6.6283  -11.0631   -3.8774 O   0  0  0  0  0  0  0  0  0  0  0  0
   -3.7096  -13.3910   -4.7977 C   0  0  0  0  0  0  0  0  0  0  0  0
   -2.3731  -13.5933   -4.4550 C   0  0  0  0  0  0  0  0  0  0  0  0
    0.5382  -11.7059   -3.3959 N   0  0  0  0  0  0  0  0  0  0  0  0
    2.6973   -8.4105   -3.2385 C   0  0  0  0  0  0  0  0  0  0  0  0
    3.5951   -4.6777   -5.5741 N   0  0  0  0  0  0  0  0  0  0  0  0
    3.7836   -4.1227   -6.8151 O   0  0  0  0  0  0  0  0  0  0  0  0
    6.2067   -1.8268   -9.3155 H   0  0  0  0  0  0  0  0  0  0  0  0
    6.1558   -3.4222   -8.5477 H   0  0  0  0  0  0  0  0  0  0  0  0
    6.6811   -2.0155   -7.6190 H   0  0  0  0  0  0  0  0  0  0  0  0
    4.4789   -0.0269   -8.6492 H   0  0  0  0  0  0  0  0  0  0  0  0
    4.9794   -0.1947   -6.9628 H   0  0  0  0  0  0  0  0  0  0  0  0
    3.2772   -0.3844   -7.3988 H   0  0  0  0  0  0  0  0  0  0  0  0
    3.7365   -2.0002   -9.9945 H   0  0  0  0  0  0  0  0  0  0  0  0
    2.5171   -2.4232   -8.7810 H   0  0  0  0  0  0  0  0  0  0  0  0
    3.7016   -3.6250   -9.3055 H   0  0  0  0  0  0  0  0  0  0  0  0
    4.7975   -1.6763   -4.8993 H   0  0  0  0  0  0  0  0  0  0  0  0
    4.1261   -3.1131   -2.7344 H   0  0  0  0  0  0  0  0  0  0  0  0
    3.4392   -6.1372   -4.2386 H   0  0  0  0  0  0  0  0  0  0  0  0
    0.8020   -6.0099   -1.7335 H   0  0  0  0  0  0  0  0  0  0  0  0
   -0.2723   -8.0120   -0.7665 H   0  0  0  0  0  0  0  0  0  0  0  0
    0.6115  -10.2518   -1.2653 H   0  0  0  0  0  0  0  0  0  0  0  0
    3.4410  -13.2098   -2.5271 H   0  0  0  0  0  0  0  0  0  0  0  0
   -0.2499  -14.9702   -3.0625 H   0  0  0  0  0  0  0  0  0  0  0  0
   -1.7975  -10.6710   -2.8096 H   0  0  0  0  0  0  0  0  0  0  0  0
   -4.1596  -10.3141   -3.3932 H   0  0  0  0  0  0  0  0  0  0  0  0
   -5.4525  -11.7344   -7.1378 H   0  0  0  0  0  0  0  0  0  0  0  0
   -5.4781  -10.1568   -6.2759 H   0  0  0  0  0  0  0  0  0  0  0  0
   -7.0082  -10.9457   -6.7542 H   0  0  0  0  0  0  0  0  0  0  0  0
   -4.2474  -14.1672   -5.3478 H   0  0  0  0  0  0  0  0  0  0  0  0
   -1.8967  -14.5212   -4.7788 H   0  0  0  0  0  0  0  0  0  0  0  0
    3.5299   -8.5292   -3.9229 H   0  0  0  0  0  0  0  0  0  0  0  0
  1  2  1  0  0  0  0
  1 37  1  0  0  0  0
  1 38  1  0  0  0  0
  1 39  1  0  0  0  0
  2  3  1  0  0  0  0
  2  4  1  0  0  0  0
  2  5  1  0  0  0  0
  3 40  1  0  0  0  0
  3 41  1  0  0  0  0
  3 42  1  0  0  0  0
  4 43  1  0  0  0  0
  4 44  1  0  0  0  0
  4 45  1  0  0  0  0
  5  6  2  0  0  0  0
  5 36  1  0  0  0  0
  6  7  1  0  0  0  0
  6 46  1  0  0  0  0
  7  8  1  0  0  0  0
  7 35  2  0  0  0  0
  8  9  1  0  0  0  0
  8 47  1  0  0  0  0
  9 10  2  0  0  0  0
  9 11  1  0  0  0  0
 11 12  1  0  0  0  0
 11 48  1  0  0  0  0
 12 13  1  0  0  0  0
 12 34  2  0  0  0  0
 13 14  2  0  0  0  0
 13 49  1  0  0  0  0
 14 15  1  0  0  0  0
 14 50  1  0  0  0  0
 15 16  2  0  0  0  0
 15 51  1  0  0  0  0
 16 17  1  0  0  0  0
 16 34  1  0  0  0  0
 17 18  1  0  0  0  0
 18 19  1  0  0  0  0
 18 33  2  0  0  0  0
 19 20  2  0  0  0  0
 19 52  1  0  0  0  0
 20 21  1  0  0  0  0
 21 22  2  0  0  0  0
 21 53  1  0  0  0  0
 22 23  1  0  0  0  0
 22 33  1  0  0  0  0
 23 24  1  0  0  0  0
 23 32  2  0  0  0  0
 24 25  2  0  0  0  0
 24 54  1  0  0  0  0
 25 26  1  0  0  0  0
 25 55  1  0  0  0  0
 26 27  1  0  0  0  0
 26 31  2  0  0  0  0
 27 28  1  0  0  0  0
 27 29  2  0  0  0  0
 27 30  2  0  0  0  0
 28 56  1  0  0  0  0
 28 57  1  0  0  0  0
 28 58  1  0  0  0  0
 31 32  1  0  0  0  0
 31 59  1  0  0  0  0
 32 60  1  0  0  0  0
 34 61  1  0  0  0  0
 35 36  1  0  0  0  0
M  END
$$$$
