CHEMBL3706843
 OpenBabel04072215373D

 68 72  0  0  0  0  0  0  0  0999 V2000
    3.1882   -0.8067    0.8539 C   0  0  0  0  0  0  0  0  0  0  0  0
    2.6543    0.3318    0.1900 O   0  0  0  0  0  0  0  0  0  0  0  0
    3.1856    0.7177   -1.0090 C   0  0  0  0  0  0  0  0  0  0  0  0
    4.1701   -0.0413   -1.6471 C   0  0  0  0  0  0  0  0  0  0  0  0
    4.7749    0.3776   -2.8435 C   0  0  0  0  0  0  0  0  0  0  0  0
    5.8303   -0.3137   -3.4590 C   0  0  0  0  0  0  0  0  0  0  0  0
    6.2626   -1.5633   -2.9003 N   0  0  0  0  0  0  0  0  0  0  0  0
    7.5542   -2.0107   -3.1637 C   0  0  0  0  0  0  0  0  0  0  0  0
    8.6570   -1.4361   -2.6677 C   0  0  0  0  0  0  0  0  0  0  0  0
   10.0128   -1.8676   -3.0357 C   0  0  0  0  0  0  0  0  0  0  0  0
   10.9792   -1.3484   -2.4837 O   0  0  0  0  0  0  0  0  0  0  0  0
   10.1423   -2.9105   -4.1002 C   0  0  0  0  0  0  0  0  0  0  0  0
   11.3677   -3.2653   -4.6494 O   0  0  0  0  0  0  0  0  0  0  0  0
   12.3215   -2.1984   -4.7564 C   0  0  0  0  0  0  0  0  0  0  0  0
   13.1972   -2.4332   -5.9623 C   0  0  0  0  0  0  0  0  0  0  0  0
   13.2518   -1.4847   -6.9941 C   0  0  0  0  0  0  0  0  0  0  0  0
   14.0831   -1.6820   -8.0972 C   0  0  0  0  0  0  0  0  0  0  0  0
   14.8699   -2.8287   -8.1805 C   0  0  0  0  0  0  0  0  0  0  0  0
   14.8226   -3.7804   -7.1633 C   0  0  0  0  0  0  0  0  0  0  0  0
   13.9903   -3.5852   -6.0591 C   0  0  0  0  0  0  0  0  0  0  0  0
    9.0455   -3.5517   -4.5258 C   0  0  0  0  0  0  0  0  0  0  0  0
    7.6941   -3.2079   -4.0440 C   0  0  0  0  0  0  0  0  0  0  0  0
    6.7119   -3.8665   -4.3730 O   0  0  0  0  0  0  0  0  0  0  0  0
    6.4353    0.1372   -4.5677 N   0  0  0  0  0  0  0  0  0  0  0  0
    5.9509    1.2763   -5.0758 C   0  0  0  0  0  0  0  0  0  0  0  0
    4.9472    2.0105   -4.5728 N   0  0  0  0  0  0  0  0  0  0  0  0
    4.3659    1.5703   -3.4487 C   0  0  0  0  0  0  0  0  0  0  0  0
    3.3515    2.3051   -2.8292 C   0  0  0  0  0  0  0  0  0  0  0  0
    2.7486    1.9140   -1.6140 C   0  0  0  0  0  0  0  0  0  0  0  0
    1.7878    2.8041   -1.1531 O   0  0  0  0  0  0  0  0  0  0  0  0
    1.1531    2.4725    0.0828 C   0  0  0  0  0  0  0  0  0  0  0  0
    0.1824    3.5144    0.6757 C   0  0  0  0  0  0  0  0  0  0  0  0
   -1.1033    3.7325   -0.1259 C   0  0  0  0  0  0  0  0  0  0  0  0
   -0.9533    4.7338   -1.2665 C   0  0  0  0  0  0  0  0  0  0  0  0
   -0.3971    6.0039   -0.7816 N   0  0  0  0  0  0  0  0  0  0  0  0
   -0.3224    6.9740   -1.8733 C   0  0  0  0  0  0  0  0  0  0  0  0
    0.9313    5.7979   -0.1912 C   0  0  0  0  0  0  0  0  0  0  0  0
    0.8502    4.8533    1.0041 C   0  0  0  0  0  0  0  0  0  0  0  0
    2.8596   -0.7697    1.8960 H   0  0  0  0  0  0  0  0  0  0  0  0
    4.2842   -0.8121    0.8712 H   0  0  0  0  0  0  0  0  0  0  0  0
    2.7940   -1.7196    0.3990 H   0  0  0  0  0  0  0  0  0  0  0  0
    4.5260   -0.9664   -1.2049 H   0  0  0  0  0  0  0  0  0  0  0  0
    5.5819   -2.2643   -3.2160 H   0  0  0  0  0  0  0  0  0  0  0  0
    8.5948   -0.5998   -1.9809 H   0  0  0  0  0  0  0  0  0  0  0  0
   12.9473   -2.1793   -3.8568 H   0  0  0  0  0  0  0  0  0  0  0  0
   11.8219   -1.2272   -4.8668 H   0  0  0  0  0  0  0  0  0  0  0  0
   12.6496   -0.5797   -6.9442 H   0  0  0  0  0  0  0  0  0  0  0  0
   14.1195   -0.9386   -8.8892 H   0  0  0  0  0  0  0  0  0  0  0  0
   15.5211   -2.9795   -9.0376 H   0  0  0  0  0  0  0  0  0  0  0  0
   15.4370   -4.6747   -7.2287 H   0  0  0  0  0  0  0  0  0  0  0  0
   13.9633   -4.3348   -5.2710 H   0  0  0  0  0  0  0  0  0  0  0  0
    9.1023   -4.3415   -5.2719 H   0  0  0  0  0  0  0  0  0  0  0  0
    6.4190    1.6375   -5.9854 H   0  0  0  0  0  0  0  0  0  0  0  0
    3.0283    3.2317   -3.3027 H   0  0  0  0  0  0  0  0  0  0  0  0
    1.9271    2.3480    0.8480 H   0  0  0  0  0  0  0  0  0  0  0  0
    0.5909    1.5403   -0.0525 H   0  0  0  0  0  0  0  0  0  0  0  0
   -0.1270    3.0741    1.6356 H   0  0  0  0  0  0  0  0  0  0  0  0
   -1.8702    4.1150    0.5646 H   0  0  0  0  0  0  0  0  0  0  0  0
   -1.4908    2.7800   -0.5069 H   0  0  0  0  0  0  0  0  0  0  0  0
   -1.9502    4.9104   -1.6895 H   0  0  0  0  0  0  0  0  0  0  0  0
   -0.3331    4.3059   -2.0642 H   0  0  0  0  0  0  0  0  0  0  0  0
   -1.3219    7.1806   -2.2714 H   0  0  0  0  0  0  0  0  0  0  0  0
    0.3125    6.6227   -2.6946 H   0  0  0  0  0  0  0  0  0  0  0  0
    0.0751    7.9298   -1.5138 H   0  0  0  0  0  0  0  0  0  0  0  0
    1.3255    6.7563    0.1691 H   0  0  0  0  0  0  0  0  0  0  0  0
    1.6424    5.4163   -0.9332 H   0  0  0  0  0  0  0  0  0  0  0  0
    0.2630    5.3430    1.7941 H   0  0  0  0  0  0  0  0  0  0  0  0
    1.8497    4.6938    1.4251 H   0  0  0  0  0  0  0  0  0  0  0  0
  1  2  1  0  0  0  0
  1 39  1  0  0  0  0
  1 40  1  0  0  0  0
  1 41  1  0  0  0  0
  2  3  1  0  0  0  0
  3  4  1  0  0  0  0
  3 29  2  0  0  0  0
  4  5  2  0  0  0  0
  4 42  1  0  0  0  0
  5  6  1  0  0  0  0
  5 27  1  0  0  0  0
  6  7  1  0  0  0  0
  6 24  2  0  0  0  0
  7  8  1  0  0  0  0
  7 43  1  0  0  0  0
  8  9  2  0  0  0  0
  8 22  1  0  0  0  0
  9 10  1  0  0  0  0
  9 44  1  0  0  0  0
 10 11  2  0  0  0  0
 10 12  1  0  0  0  0
 12 13  1  0  0  0  0
 12 21  2  0  0  0  0
 13 14  1  0  0  0  0
 14 15  1  0  0  0  0
 14 45  1  0  0  0  0
 14 46  1  0  0  0  0
 15 16  1  0  0  0  0
 15 20  2  0  0  0  0
 16 17  2  0  0  0  0
 16 47  1  0  0  0  0
 17 18  1  0  0  0  0
 17 48  1  0  0  0  0
 18 19  2  0  0  0  0
 18 49  1  0  0  0  0
 19 20  1  0  0  0  0
 19 50  1  0  0  0  0
 20 51  1  0  0  0  0
 21 22  1  0  0  0  0
 21 52  1  0  0  0  0
 22 23  2  0  0  0  0
 24 25  1  0  0  0  0
 25 26  2  0  0  0  0
 25 53  1  0  0  0  0
 26 27  1  0  0  0  0
 27 28  2  0  0  0  0
 28 29  1  0  0  0  0
 28 54  1  0  0  0  0
 29 30  1  0  0  0  0
 30 31  1  0  0  0  0
 31 32  1  0  0  0  0
 31 55  1  0  0  0  0
 31 56  1  0  0  0  0
 32 33  1  0  0  0  0
 32 38  1  0  0  0  0
 32 57  1  0  0  0  0
 33 34  1  0  0  0  0
 33 58  1  0  0  0  0
 33 59  1  0  0  0  0
 34 35  1  0  0  0  0
 34 60  1  0  0  0  0
 34 61  1  0  0  0  0
 35 36  1  0  0  0  0
 35 37  1  0  0  0  0
 36 62  1  0  0  0  0
 36 63  1  0  0  0  0
 36 64  1  0  0  0  0
 37 38  1  0  0  0  0
 37 65  1  0  0  0  0
 37 66  1  0  0  0  0
 38 67  1  0  0  0  0
 38 68  1  0  0  0  0
M  END
$$$$
