CHEMBL1997051
 OpenBabel04072215363D

 71 76  0  0  0  0  0  0  0  0999 V2000
    6.9286    2.5537    2.1334 C   0  0  0  0  0  0  0  0  0  0  0  0
    6.1248    1.7627    1.2450 O   0  0  0  0  0  0  0  0  0  0  0  0
    4.7813    2.0311    1.3934 C   0  0  0  0  0  0  0  0  0  0  0  0
    4.2054    2.1993    2.6588 C   0  0  0  0  0  0  0  0  0  0  0  0
    2.8847    2.6134    2.7791 C   0  0  0  0  0  0  0  0  0  0  0  0
    2.1457    2.9170    1.6375 C   0  0  0  0  0  0  0  0  0  0  0  0
    0.7839    3.5630    1.7468 C   0  0  0  0  0  0  0  0  0  0  0  0
    0.8027    4.7831    2.5773 N   0  0  0  0  0  0  0  0  0  0  0  0
    1.6442    5.8311    1.9861 C   0  0  0  0  0  0  0  0  0  0  0  0
   -0.5591    5.2844    2.7490 C   0  0  0  0  0  0  0  0  0  0  0  0
    2.6954    2.6392    0.3804 C   0  0  0  0  0  0  0  0  0  0  0  0
    3.9822    2.1058    0.2373 C   0  0  0  0  0  0  0  0  0  0  0  0
    4.4806    1.6792   -1.0178 N   0  0  0  0  0  0  0  0  0  0  0  0
    3.7413    1.0589   -2.0386 C   0  0  0  0  0  0  0  0  0  0  0  0
    4.3966    0.1941   -2.8245 N   0  0  0  0  0  0  0  0  0  0  0  0
    3.6882   -0.4073   -3.8023 C   0  0  0  0  0  0  0  0  0  0  0  0
    2.3633   -0.1543   -4.0594 C   0  0  0  0  0  0  0  0  0  0  0  0
    1.7689    0.7502   -3.2183 C   0  0  0  0  0  0  0  0  0  0  0  0
    0.3845    1.1998   -3.3624 C   0  0  0  0  0  0  0  0  0  0  0  0
   -0.2307    2.4591   -3.2367 C   0  0  0  0  0  0  0  0  0  0  0  0
    0.4034    3.7344   -2.8998 C   0  0  0  0  0  0  0  0  0  0  0  0
   -0.3271    4.6795   -2.1686 C   0  0  0  0  0  0  0  0  0  0  0  0
    0.2879    5.8403   -1.7091 C   0  0  0  0  0  0  0  0  0  0  0  0
    1.6513    6.0404   -1.9310 C   0  0  0  0  0  0  0  0  0  0  0  0
    2.4058    5.1137   -2.6531 C   0  0  0  0  0  0  0  0  0  0  0  0
    3.8188    5.1756   -2.7946 N   0  0  0  0  0  0  0  0  0  0  0  0
    4.6501    6.0884   -2.1658 C   0  0  0  0  0  0  0  0  0  0  0  0
    4.2679    7.0192   -1.4606 O   0  0  0  0  0  0  0  0  0  0  0  0
    6.1134    5.9856   -2.3781 C   0  0  0  0  0  0  0  0  0  0  0  0
    6.6770    5.4288   -3.5242 C   0  0  0  0  0  0  0  0  0  0  0  0
    5.9183    4.7873   -4.4257 F   0  0  0  0  0  0  0  0  0  0  0  0
    8.0470    5.5513   -3.7845 C   0  0  0  0  0  0  0  0  0  0  0  0
    8.8759    6.2269   -2.8884 C   0  0  0  0  0  0  0  0  0  0  0  0
    8.3380    6.7353   -1.7110 C   0  0  0  0  0  0  0  0  0  0  0  0
    6.9723    6.6035   -1.4593 C   0  0  0  0  0  0  0  0  0  0  0  0
    6.5178    7.0934   -0.2963 F   0  0  0  0  0  0  0  0  0  0  0  0
    1.7450    4.0141   -3.2106 C   0  0  0  0  0  0  0  0  0  0  0  0
   -1.6132    2.3765   -3.3865 N   0  0  0  0  0  0  0  0  0  0  0  0
   -1.8169    1.1108   -3.5890 C   0  0  0  0  0  0  0  0  0  0  0  0
   -3.2326    0.1339   -3.8392 S   0  0  0  0  0  0  0  0  0  0  0  0
   -2.1938   -1.2914   -3.9199 C   0  0  0  0  0  0  0  0  0  0  0  0
   -0.8886   -0.9988   -3.7541 C   0  0  0  0  0  0  0  0  0  0  0  0
   -0.6834    0.3562   -3.5783 N   0  0  0  0  0  0  0  0  0  0  0  0
    2.4391    1.3314   -2.2111 N   0  0  0  0  0  0  0  0  0  0  0  0
    7.9687    2.5028    1.8001 H   0  0  0  0  0  0  0  0  0  0  0  0
    6.8944    2.1542    3.1529 H   0  0  0  0  0  0  0  0  0  0  0  0
    6.6267    3.6096    2.1266 H   0  0  0  0  0  0  0  0  0  0  0  0
    4.7701    2.0215    3.5670 H   0  0  0  0  0  0  0  0  0  0  0  0
    2.4523    2.7711    3.7644 H   0  0  0  0  0  0  0  0  0  0  0  0
    0.1186    2.8160    2.2001 H   0  0  0  0  0  0  0  0  0  0  0  0
    0.3785    3.7794    0.7505 H   0  0  0  0  0  0  0  0  0  0  0  0
    2.6803    5.5029    1.8504 H   0  0  0  0  0  0  0  0  0  0  0  0
    1.6902    6.6972    2.6555 H   0  0  0  0  0  0  0  0  0  0  0  0
    1.2629    6.1699    1.0194 H   0  0  0  0  0  0  0  0  0  0  0  0
   -1.1945    4.5228    3.2139 H   0  0  0  0  0  0  0  0  0  0  0  0
   -1.0144    5.5798    1.7965 H   0  0  0  0  0  0  0  0  0  0  0  0
   -0.5646    6.1507    3.4193 H   0  0  0  0  0  0  0  0  0  0  0  0
    2.0993    2.8659   -0.4968 H   0  0  0  0  0  0  0  0  0  0  0  0
    5.3729    1.2047   -0.9325 H   0  0  0  0  0  0  0  0  0  0  0  0
    4.2435   -1.1229   -4.4022 H   0  0  0  0  0  0  0  0  0  0  0  0
    1.8469   -0.6269   -4.8821 H   0  0  0  0  0  0  0  0  0  0  0  0
   -1.3736    4.5031   -1.9236 H   0  0  0  0  0  0  0  0  0  0  0  0
   -0.2743    6.5670   -1.1286 H   0  0  0  0  0  0  0  0  0  0  0  0
    2.0947    6.9300   -1.4979 H   0  0  0  0  0  0  0  0  0  0  0  0
    4.2525    4.4139   -3.3049 H   0  0  0  0  0  0  0  0  0  0  0  0
    8.4577    5.1414   -4.7032 H   0  0  0  0  0  0  0  0  0  0  0  0
    9.9336    6.3603   -3.1047 H   0  0  0  0  0  0  0  0  0  0  0  0
    8.9613    7.2561   -0.9890 H   0  0  0  0  0  0  0  0  0  0  0  0
    2.3063    3.3249   -3.8313 H   0  0  0  0  0  0  0  0  0  0  0  0
   -2.5964   -2.2831   -4.0762 H   0  0  0  0  0  0  0  0  0  0  0  0
   -0.0721   -1.6983   -3.7527 H   0  0  0  0  0  0  0  0  0  0  0  0
  1  2  1  0  0  0  0
  1 45  1  0  0  0  0
  1 46  1  0  0  0  0
  1 47  1  0  0  0  0
  2  3  1  0  0  0  0
  3  4  1  0  0  0  0
  3 12  2  0  0  0  0
  4  5  2  0  0  0  0
  4 48  1  0  0  0  0
  5  6  1  0  0  0  0
  5 49  1  0  0  0  0
  6  7  1  0  0  0  0
  6 11  2  0  0  0  0
  7  8  1  0  0  0  0
  7 50  1  0  0  0  0
  7 51  1  0  0  0  0
  8  9  1  0  0  0  0
  8 10  1  0  0  0  0
  9 52  1  0  0  0  0
  9 53  1  0  0  0  0
  9 54  1  0  0  0  0
 10 55  1  0  0  0  0
 10 56  1  0  0  0  0
 10 57  1  0  0  0  0
 11 12  1  0  0  0  0
 11 58  1  0  0  0  0
 12 13  1  0  0  0  0
 13 14  1  0  0  0  0
 13 59  1  0  0  0  0
 14 15  1  0  0  0  0
 14 44  2  0  0  0  0
 15 16  2  0  0  0  0
 16 17  1  0  0  0  0
 16 60  1  0  0  0  0
 17 18  2  0  0  0  0
 17 61  1  0  0  0  0
 18 19  1  0  0  0  0
 18 44  1  0  0  0  0
 19 20  2  0  0  0  0
 19 43  1  0  0  0  0
 20 21  1  0  0  0  0
 20 38  1  0  0  0  0
 21 22  1  0  0  0  0
 21 37  2  0  0  0  0
 22 23  2  0  0  0  0
 22 62  1  0  0  0  0
 23 24  1  0  0  0  0
 23 63  1  0  0  0  0
 24 25  2  0  0  0  0
 24 64  1  0  0  0  0
 25 26  1  0  0  0  0
 25 37  1  0  0  0  0
 26 27  1  0  0  0  0
 26 65  1  0  0  0  0
 27 28  2  0  0  0  0
 27 29  1  0  0  0  0
 29 30  1  0  0  0  0
 29 35  2  0  0  0  0
 30 31  1  0  0  0  0
 30 32  2  0  0  0  0
 32 33  1  0  0  0  0
 32 66  1  0  0  0  0
 33 34  2  0  0  0  0
 33 67  1  0  0  0  0
 34 35  1  0  0  0  0
 34 68  1  0  0  0  0
 35 36  1  0  0  0  0
 37 69  1  0  0  0  0
 38 39  2  0  0  0  0
 39 40  1  0  0  0  0
 39 43  1  0  0  0  0
 40 41  1  0  0  0  0
 41 42  2  0  0  0  0
 41 70  1  0  0  0  0
 42 43  1  0  0  0  0
 42 71  1  0  0  0  0
M  END
$$$$
