CHEMBL96149
 OpenBabel04072215383D

 37 40  0  0  0  0  0  0  0  0999 V2000
    2.8692   -0.4823    1.3431 C   0  0  0  0  0  0  0  0  0  0  0  0
    2.4501    0.1971    0.1652 O   0  0  0  0  0  0  0  0  0  0  0  0
    3.1952    1.2799   -0.2110 C   0  0  0  0  0  0  0  0  0  0  0  0
    4.3124    1.7732    0.4594 C   0  0  0  0  0  0  0  0  0  0  0  0
    4.9828    2.9017   -0.0245 C   0  0  0  0  0  0  0  0  0  0  0  0
    4.5434    3.5635   -1.1777 C   0  0  0  0  0  0  0  0  0  0  0  0
    5.2061    4.7672   -1.6540 C   0  0  0  0  0  0  0  0  0  0  0  0
    5.3694    5.2577   -2.9667 C   0  0  0  0  0  0  0  0  0  0  0  0
    5.9880    6.4375   -3.0181 N   0  0  0  0  0  0  0  0  0  0  0  0
    6.2176    6.7479   -1.7201 N   0  0  0  0  0  0  0  0  0  0  0  0
    6.7789    7.9208   -1.2242 C   0  0  0  0  0  0  0  0  0  0  0  0
    6.9246    8.0977    0.0975 C   0  0  0  0  0  0  0  0  0  0  0  0
    7.4501    9.3278    0.6799 C   0  0  0  0  0  0  0  0  0  0  0  0
    6.5763   10.3487    1.0579 C   0  0  0  0  0  0  0  0  0  0  0  0
    7.1167   11.5072    1.5897 C   0  0  0  0  0  0  0  0  0  0  0  0
    8.4405   11.7039    1.7643 N   0  0  0  0  0  0  0  0  0  0  0  0
    9.2634   10.7019    1.3898 C   0  0  0  0  0  0  0  0  0  0  0  0
    8.8223    9.5058    0.8475 C   0  0  0  0  0  0  0  0  0  0  0  0
    6.4739    6.9482    0.9388 C   0  0  0  0  0  0  0  0  0  0  0  0
    5.9423    5.8433    0.5085 N   0  0  0  0  0  0  0  0  0  0  0  0
    5.7868    5.7366   -0.8524 C   0  0  0  0  0  0  0  0  0  0  0  0
    3.4296    3.0531   -1.8561 C   0  0  0  0  0  0  0  0  0  0  0  0
    2.7619    1.9223   -1.3726 C   0  0  0  0  0  0  0  0  0  0  0  0
    2.1986   -1.3328    1.4966 H   0  0  0  0  0  0  0  0  0  0  0  0
    2.7905    0.1671    2.2215 H   0  0  0  0  0  0  0  0  0  0  0  0
    3.8848   -0.8764    1.2314 H   0  0  0  0  0  0  0  0  0  0  0  0
    4.6896    1.3145    1.3670 H   0  0  0  0  0  0  0  0  0  0  0  0
    5.8512    3.2617    0.5226 H   0  0  0  0  0  0  0  0  0  0  0  0
    5.0582    4.7975   -3.8971 H   0  0  0  0  0  0  0  0  0  0  0  0
    7.0521    8.6579   -1.9677 H   0  0  0  0  0  0  0  0  0  0  0  0
    5.5025   10.2546    0.9409 H   0  0  0  0  0  0  0  0  0  0  0  0
    6.4807   12.3332    1.8955 H   0  0  0  0  0  0  0  0  0  0  0  0
   10.3227   10.8925    1.5394 H   0  0  0  0  0  0  0  0  0  0  0  0
    9.5376    8.7405    0.5648 H   0  0  0  0  0  0  0  0  0  0  0  0
    6.6203    7.0694    2.0261 H   0  0  0  0  0  0  0  0  0  0  0  0
    3.0492    3.5376   -2.7515 H   0  0  0  0  0  0  0  0  0  0  0  0
    1.8894    1.5463   -1.9009 H   0  0  0  0  0  0  0  0  0  0  0  0
  1  2  1  0  0  0  0
  1 24  1  0  0  0  0
  1 25  1  0  0  0  0
  1 26  1  0  0  0  0
  2  3  1  0  0  0  0
  3  4  1  0  0  0  0
  3 23  2  0  0  0  0
  4  5  2  0  0  0  0
  4 27  1  0  0  0  0
  5  6  1  0  0  0  0
  5 28  1  0  0  0  0
  6  7  1  0  0  0  0
  6 22  2  0  0  0  0
  7  8  1  0  0  0  0
  7 21  2  0  0  0  0
  8  9  2  0  0  0  0
  8 29  1  0  0  0  0
  9 10  1  0  0  0  0
 10 11  1  0  0  0  0
 10 21  1  0  0  0  0
 11 12  2  0  0  0  0
 11 30  1  0  0  0  0
 12 13  1  0  0  0  0
 12 19  1  0  0  0  0
 13 14  1  0  0  0  0
 13 18  2  0  0  0  0
 14 15  2  0  0  0  0
 14 31  1  0  0  0  0
 15 16  1  0  0  0  0
 15 32  1  0  0  0  0
 16 17  2  0  0  0  0
 17 18  1  0  0  0  0
 17 33  1  0  0  0  0
 18 34  1  0  0  0  0
 19 20  2  0  0  0  0
 19 35  1  0  0  0  0
 20 21  1  0  0  0  0
 22 23  1  0  0  0  0
 22 36  1  0  0  0  0
 23 37  1  0  0  0  0
M  END
$$$$
