CHEMBL1993966
 OpenBabel04072215363D

 41 42  0  0  0  0  0  0  0  0999 V2000
    0.9507   -0.0370    0.3608 C   0  0  0  0  0  0  0  0  0  0  0  0
    2.2957    0.0316   -0.0999 O   0  0  0  0  0  0  0  0  0  0  0  0
    2.9804    1.2004    0.1136 C   0  0  0  0  0  0  0  0  0  0  0  0
    2.6240    2.1024    1.1224 C   0  0  0  0  0  0  0  0  0  0  0  0
    3.3998    3.2353    1.4149 C   0  0  0  0  0  0  0  0  0  0  0  0
    3.0666    4.1156    2.4680 N   0  0  0  0  0  0  0  0  0  0  0  0
    2.4105    3.7314    3.6416 C   0  0  0  0  0  0  0  0  0  0  0  0
    1.5733    4.6024    4.2107 N   0  0  0  0  0  0  0  0  0  0  0  0
    0.8685    4.1561    5.2743 C   0  0  0  0  0  0  0  0  0  0  0  0
    0.9554    2.8794    5.7817 C   0  0  0  0  0  0  0  0  0  0  0  0
    0.1109    2.4098    6.9014 C   0  0  0  0  0  0  0  0  0  0  0  0
   -0.7369    3.3780    7.3625 F   0  0  0  0  0  0  0  0  0  0  0  0
   -0.6957    1.3666    6.5658 F   0  0  0  0  0  0  0  0  0  0  0  0
    0.8232    2.0102    7.9913 F   0  0  0  0  0  0  0  0  0  0  0  0
    1.8594    2.0754    5.1448 C   0  0  0  0  0  0  0  0  0  0  0  0
    1.9901    0.7653    5.5510 O   0  0  0  0  0  0  0  0  0  0  0  0
    2.9543    0.0353    4.7863 C   0  0  0  0  0  0  0  0  0  0  0  0
    2.5969    2.4891    4.1050 N   0  0  0  0  0  0  0  0  0  0  0  0
    4.5147    3.5039    0.6251 C   0  0  0  0  0  0  0  0  0  0  0  0
    4.9095    2.6030   -0.3721 C   0  0  0  0  0  0  0  0  0  0  0  0
    6.0261    2.8024   -1.1505 O   0  0  0  0  0  0  0  0  0  0  0  0
    7.1165    3.4452   -0.4984 C   0  0  0  0  0  0  0  0  0  0  0  0
    4.1347    1.4543   -0.6463 C   0  0  0  0  0  0  0  0  0  0  0  0
    4.6425    0.6242   -1.6195 O   0  0  0  0  0  0  0  0  0  0  0  0
    3.6975   -0.0690   -2.4239 C   0  0  0  0  0  0  0  0  0  0  0  0
    0.5290   -0.9866    0.0172 H   0  0  0  0  0  0  0  0  0  0  0  0
    0.3487    0.7720   -0.0663 H   0  0  0  0  0  0  0  0  0  0  0  0
    0.8978   -0.0377    1.4541 H   0  0  0  0  0  0  0  0  0  0  0  0
    1.7489    1.9147    1.7334 H   0  0  0  0  0  0  0  0  0  0  0  0
    2.6739    4.9957    2.1577 H   0  0  0  0  0  0  0  0  0  0  0  0
    0.1900    4.8928    5.7030 H   0  0  0  0  0  0  0  0  0  0  0  0
    2.9124   -1.0109    5.1027 H   0  0  0  0  0  0  0  0  0  0  0  0
    3.9660    0.4088    4.9813 H   0  0  0  0  0  0  0  0  0  0  0  0
    2.7279    0.0586    3.7140 H   0  0  0  0  0  0  0  0  0  0  0  0
    5.0930    4.3992    0.8284 H   0  0  0  0  0  0  0  0  0  0  0  0
    8.0151    3.2707   -1.0977 H   0  0  0  0  0  0  0  0  0  0  0  0
    7.2963    3.0321    0.5005 H   0  0  0  0  0  0  0  0  0  0  0  0
    6.9540    4.5265   -0.4514 H   0  0  0  0  0  0  0  0  0  0  0  0
    4.1959   -0.3422   -3.3592 H   0  0  0  0  0  0  0  0  0  0  0  0
    2.8330    0.5533   -2.6803 H   0  0  0  0  0  0  0  0  0  0  0  0
    3.3913   -1.0034   -1.9442 H   0  0  0  0  0  0  0  0  0  0  0  0
  1  2  1  0  0  0  0
  1 26  1  0  0  0  0
  1 27  1  0  0  0  0
  1 28  1  0  0  0  0
  2  3  1  0  0  0  0
  3  4  1  0  0  0  0
  3 23  2  0  0  0  0
  4  5  2  0  0  0  0
  4 29  1  0  0  0  0
  5  6  1  0  0  0  0
  5 19  1  0  0  0  0
  6  7  1  0  0  0  0
  6 30  1  0  0  0  0
  7  8  1  0  0  0  0
  7 18  2  0  0  0  0
  8  9  2  0  0  0  0
  9 10  1  0  0  0  0
  9 31  1  0  0  0  0
 10 11  1  0  0  0  0
 10 15  2  0  0  0  0
 11 12  1  0  0  0  0
 11 13  1  0  0  0  0
 11 14  1  0  0  0  0
 15 16  1  0  0  0  0
 15 18  1  0  0  0  0
 16 17  1  0  0  0  0
 17 32  1  0  0  0  0
 17 33  1  0  0  0  0
 17 34  1  0  0  0  0
 19 20  2  0  0  0  0
 19 35  1  0  0  0  0
 20 21  1  0  0  0  0
 20 23  1  0  0  0  0
 21 22  1  0  0  0  0
 22 36  1  0  0  0  0
 22 37  1  0  0  0  0
 22 38  1  0  0  0  0
 23 24  1  0  0  0  0
 24 25  1  0  0  0  0
 25 39  1  0  0  0  0
 25 40  1  0  0  0  0
 25 41  1  0  0  0  0
M  END
$$$$
