CHEMBL2386813
 OpenBabel04072215363D

 62 65  0  0  0  0  0  0  0  0999 V2000
    1.2850    0.1190   -4.4057 C   0  0  0  0  0  0  0  0  0  0  0  0
    1.9416   -0.0040   -3.0419 C   0  0  0  0  0  0  0  0  0  0  0  0
    2.8671    1.0813   -2.7622 N   0  0  0  0  0  0  0  0  0  0  0  0
    4.1769    0.9620   -3.1577 C   0  0  0  0  0  0  0  0  0  0  0  0
    4.5719   -0.0310   -3.7585 O   0  0  0  0  0  0  0  0  0  0  0  0
    4.9566    2.0314   -2.7538 N   0  0  0  0  0  0  0  0  0  0  0  0
    6.3406    2.1529   -3.0235 C   0  0  0  0  0  0  0  0  0  0  0  0
    6.9629    1.4076   -4.0219 C   0  0  0  0  0  0  0  0  0  0  0  0
    8.3399    1.4754   -4.2182 C   0  0  0  0  0  0  0  0  0  0  0  0
    9.1409    2.3133   -3.4353 C   0  0  0  0  0  0  0  0  0  0  0  0
   10.5920    2.3338   -3.6481 C   0  0  0  0  0  0  0  0  0  0  0  0
   11.3103    1.5989   -4.6304 C   0  0  0  0  0  0  0  0  0  0  0  0
   12.6372    1.9039   -4.4657 C   0  0  0  0  0  0  0  0  0  0  0  0
   13.7275    1.4429   -5.1989 N   0  0  0  0  0  0  0  0  0  0  0  0
   13.5883    0.5198   -6.2958 C   0  0  0  0  0  0  0  0  0  0  0  0
   12.4910    0.1007   -6.6458 O   0  0  0  0  0  0  0  0  0  0  0  0
   14.8027    0.1145   -7.0326 C   0  0  0  0  0  0  0  0  0  0  0  0
   16.0627    0.0904   -6.4411 C   0  0  0  0  0  0  0  0  0  0  0  0
   17.1590   -0.3274   -7.1991 C   0  0  0  0  0  0  0  0  0  0  0  0
   17.0377   -0.7244   -8.5441 C   0  0  0  0  0  0  0  0  0  0  0  0
   18.1582   -1.1457   -9.2260 N   0  0  0  0  0  0  0  0  0  0  0  0
   18.0939   -2.0745  -10.3663 C   0  0  0  0  0  0  0  0  0  0  0  0
   19.3948   -2.9174  -10.3913 C   0  0  0  0  0  0  0  0  0  0  0  0
   20.6157   -2.0774  -10.4467 N   0  0  0  0  0  0  0  0  0  0  0  0
   21.8156   -2.9089  -10.4238 C   0  0  0  0  0  0  0  0  0  0  0  0
   20.6163   -1.1364   -9.3035 C   0  0  0  0  0  0  0  0  0  0  0  0
   19.3421   -0.2661   -9.2625 C   0  0  0  0  0  0  0  0  0  0  0  0
   15.7586   -0.7248   -9.1027 C   0  0  0  0  0  0  0  0  0  0  0  0
   14.6506   -0.3073   -8.3604 C   0  0  0  0  0  0  0  0  0  0  0  0
   12.6570    2.7814   -3.4137 N   0  0  0  0  0  0  0  0  0  0  0  0
   11.4422    3.0675   -2.9116 N   0  0  0  0  0  0  0  0  0  0  0  0
    8.5135    3.1016   -2.4611 C   0  0  0  0  0  0  0  0  0  0  0  0
    7.1205    3.0305   -2.2634 C   0  0  0  0  0  0  0  0  0  0  0  0
    0.5965   -0.7174   -4.5673 H   0  0  0  0  0  0  0  0  0  0  0  0
    2.0251    0.1075   -5.2128 H   0  0  0  0  0  0  0  0  0  0  0  0
    0.7159    1.0505   -4.4850 H   0  0  0  0  0  0  0  0  0  0  0  0
    2.4791   -0.9578   -2.9866 H   0  0  0  0  0  0  0  0  0  0  0  0
    1.1860   -0.0022   -2.2520 H   0  0  0  0  0  0  0  0  0  0  0  0
    2.4893    2.0084   -2.6263 H   0  0  0  0  0  0  0  0  0  0  0  0
    4.5747    2.6100   -2.0213 H   0  0  0  0  0  0  0  0  0  0  0  0
    6.4068    0.7426   -4.6752 H   0  0  0  0  0  0  0  0  0  0  0  0
    8.7527    0.8350   -4.9923 H   0  0  0  0  0  0  0  0  0  0  0  0
   10.8791    0.9338   -5.3616 H   0  0  0  0  0  0  0  0  0  0  0  0
   14.6432    1.8097   -4.9737 H   0  0  0  0  0  0  0  0  0  0  0  0
   16.2235    0.3342   -5.3972 H   0  0  0  0  0  0  0  0  0  0  0  0
   18.1308   -0.4002   -6.7139 H   0  0  0  0  0  0  0  0  0  0  0  0
   17.9818   -1.5209  -11.3077 H   0  0  0  0  0  0  0  0  0  0  0  0
   17.2458   -2.7632  -10.2735 H   0  0  0  0  0  0  0  0  0  0  0  0
   19.3626   -3.5857  -11.2593 H   0  0  0  0  0  0  0  0  0  0  0  0
   19.4149   -3.5481   -9.4907 H   0  0  0  0  0  0  0  0  0  0  0  0
   21.8319   -3.5784  -11.2902 H   0  0  0  0  0  0  0  0  0  0  0  0
   21.8850   -3.5164   -9.5144 H   0  0  0  0  0  0  0  0  0  0  0  0
   22.7126   -2.2834  -10.4900 H   0  0  0  0  0  0  0  0  0  0  0  0
   21.4868   -0.4736   -9.3669 H   0  0  0  0  0  0  0  0  0  0  0  0
   20.6891   -1.6895   -8.3566 H   0  0  0  0  0  0  0  0  0  0  0  0
   19.2950    0.3795  -10.1498 H   0  0  0  0  0  0  0  0  0  0  0  0
   19.4010    0.3973   -8.3930 H   0  0  0  0  0  0  0  0  0  0  0  0
   15.6017   -1.0358  -10.1329 H   0  0  0  0  0  0  0  0  0  0  0  0
   13.6676   -0.3195   -8.8306 H   0  0  0  0  0  0  0  0  0  0  0  0
   13.4570    3.2257   -2.9797 H   0  0  0  0  0  0  0  0  0  0  0  0
    9.1054    3.7676   -1.8355 H   0  0  0  0  0  0  0  0  0  0  0  0
    6.6741    3.6473   -1.4882 H   0  0  0  0  0  0  0  0  0  0  0  0
  1  2  1  0  0  0  0
  1 34  1  0  0  0  0
  1 35  1  0  0  0  0
  1 36  1  0  0  0  0
  2  3  1  0  0  0  0
  2 37  1  0  0  0  0
  2 38  1  0  0  0  0
  3  4  1  0  0  0  0
  3 39  1  0  0  0  0
  4  5  2  0  0  0  0
  4  6  1  0  0  0  0
  6  7  1  0  0  0  0
  6 40  1  0  0  0  0
  7  8  1  0  0  0  0
  7 33  2  0  0  0  0
  8  9  2  0  0  0  0
  8 41  1  0  0  0  0
  9 10  1  0  0  0  0
  9 42  1  0  0  0  0
 10 11  1  0  0  0  0
 10 32  2  0  0  0  0
 11 12  1  0  0  0  0
 11 31  2  0  0  0  0
 12 13  2  0  0  0  0
 12 43  1  0  0  0  0
 13 14  1  0  0  0  0
 13 30  1  0  0  0  0
 14 15  1  0  0  0  0
 14 44  1  0  0  0  0
 15 16  2  0  0  0  0
 15 17  1  0  0  0  0
 17 18  1  0  0  0  0
 17 29  2  0  0  0  0
 18 19  2  0  0  0  0
 18 45  1  0  0  0  0
 19 20  1  0  0  0  0
 19 46  1  0  0  0  0
 20 21  1  0  0  0  0
 20 28  2  0  0  0  0
 21 22  1  0  0  0  0
 21 27  1  0  0  0  0
 22 23  1  0  0  0  0
 22 47  1  0  0  0  0
 22 48  1  0  0  0  0
 23 24  1  0  0  0  0
 23 49  1  0  0  0  0
 23 50  1  0  0  0  0
 24 25  1  0  0  0  0
 24 26  1  0  0  0  0
 25 51  1  0  0  0  0
 25 52  1  0  0  0  0
 25 53  1  0  0  0  0
 26 27  1  0  0  0  0
 26 54  1  0  0  0  0
 26 55  1  0  0  0  0
 27 56  1  0  0  0  0
 27 57  1  0  0  0  0
 28 29  1  0  0  0  0
 28 58  1  0  0  0  0
 29 59  1  0  0  0  0
 30 31  1  0  0  0  0
 30 60  1  0  0  0  0
 32 33  1  0  0  0  0
 32 61  1  0  0  0  0
 33 62  1  0  0  0  0
M  END
$$$$
