CHEMBL3671541
 OpenBabel04072215373D

 56 58  0  0  0  0  0  0  0  0999 V2000
    2.2433   -1.0651   -1.9061 C   0  0  0  0  0  0  0  0  0  0  0  0
    2.8992   -0.3979   -0.9468 C   0  0  0  0  0  0  0  0  0  0  0  0
    3.5879    0.8917   -1.2317 C   0  0  0  0  0  0  0  0  0  0  0  0
    3.3607    1.5397   -2.2452 O   0  0  0  0  0  0  0  0  0  0  0  0
    4.5058    1.2197   -0.2406 N   0  0  0  0  0  0  0  0  0  0  0  0
    5.2478    2.4161   -0.3854 C   0  0  0  0  0  0  0  0  0  0  0  0
    6.3989    2.3808   -1.1785 C   0  0  0  0  0  0  0  0  0  0  0  0
    7.0541    3.5759   -1.5674 C   0  0  0  0  0  0  0  0  0  0  0  0
    8.1453    3.6528   -2.4436 C   0  0  0  0  0  0  0  0  0  0  0  0
    8.6103    2.4662   -3.0835 N   0  0  0  0  0  0  0  0  0  0  0  0
    9.9102    2.1700   -3.5457 C   0  0  0  0  0  0  0  0  0  0  0  0
   11.0407    2.6912   -2.9066 C   0  0  0  0  0  0  0  0  0  0  0  0
   12.3123    2.1762   -3.1699 C   0  0  0  0  0  0  0  0  0  0  0  0
   12.4678    1.1624   -4.1125 C   0  0  0  0  0  0  0  0  0  0  0  0
   14.1544    0.3351   -4.3194 Br  0  0  0  0  0  0  0  0  0  0  0  0
   11.3786    0.7168   -4.8538 C   0  0  0  0  0  0  0  0  0  0  0  0
   10.1131    1.2252   -4.5649 C   0  0  0  0  0  0  0  0  0  0  0  0
    9.0601    0.7599   -5.2563 F   0  0  0  0  0  0  0  0  0  0  0  0
    8.7743    4.8054   -2.7263 N   0  0  0  0  0  0  0  0  0  0  0  0
    8.2819    5.9033   -2.1498 C   0  0  0  0  0  0  0  0  0  0  0  0
    7.2200    5.9581   -1.3307 N   0  0  0  0  0  0  0  0  0  0  0  0
    6.6129    4.8013   -1.0467 C   0  0  0  0  0  0  0  0  0  0  0  0
    5.5147    4.8015   -0.1815 C   0  0  0  0  0  0  0  0  0  0  0  0
    4.8323    3.6308    0.1842 C   0  0  0  0  0  0  0  0  0  0  0  0
    3.8333    3.8155    1.1185 O   0  0  0  0  0  0  0  0  0  0  0  0
    3.5852    2.7073    1.9939 C   0  0  0  0  0  0  0  0  0  0  0  0
    3.0757    3.1428    3.3775 C   0  0  0  0  0  0  0  0  0  0  0  0
    2.9237    2.0010    4.2838 N   0  0  0  0  0  0  0  0  0  0  0  0
    4.0072    1.4832    4.9683 C   0  0  0  0  0  0  0  0  0  0  0  0
    5.1330    1.9551    4.9237 O   0  0  0  0  0  0  0  0  0  0  0  0
    3.7072    0.1993    5.7864 C   0  0  0  0  0  0  0  0  0  0  0  0
    2.6197   -0.3524    5.7388 O   0  0  0  0  0  0  0  0  0  0  0  0
    4.7925   -0.1691    6.4977 O   0  0  0  0  0  0  0  0  0  0  0  0
    4.6647   -1.3402    7.3171 C   0  0  0  0  0  0  0  0  0  0  0  0
    3.9806   -0.9948    8.6267 C   0  0  0  0  0  0  0  0  0  0  0  0
    1.6898   -1.9693   -1.6765 H   0  0  0  0  0  0  0  0  0  0  0  0
    2.2263   -0.7192   -2.9360 H   0  0  0  0  0  0  0  0  0  0  0  0
    2.8849   -0.7470    0.0778 H   0  0  0  0  0  0  0  0  0  0  0  0
    5.0423    0.4109    0.0491 H   0  0  0  0  0  0  0  0  0  0  0  0
    6.7699    1.4253   -1.5345 H   0  0  0  0  0  0  0  0  0  0  0  0
    7.8755    1.9679   -3.5779 H   0  0  0  0  0  0  0  0  0  0  0  0
   10.9330    3.4544   -2.1403 H   0  0  0  0  0  0  0  0  0  0  0  0
   13.1590    2.5413   -2.5945 H   0  0  0  0  0  0  0  0  0  0  0  0
   11.4876   -0.0505   -5.6132 H   0  0  0  0  0  0  0  0  0  0  0  0
    8.7774    6.8437   -2.3730 H   0  0  0  0  0  0  0  0  0  0  0  0
    5.1916    5.7533    0.2367 H   0  0  0  0  0  0  0  0  0  0  0  0
    4.4991    2.1235    2.1524 H   0  0  0  0  0  0  0  0  0  0  0  0
    2.8168    2.0741    1.5368 H   0  0  0  0  0  0  0  0  0  0  0  0
    2.1016    3.6379    3.3004 H   0  0  0  0  0  0  0  0  0  0  0  0
    3.7696    3.8619    3.8271 H   0  0  0  0  0  0  0  0  0  0  0  0
    2.0436    1.5017    4.3386 H   0  0  0  0  0  0  0  0  0  0  0  0
    5.6782   -1.7030    7.5207 H   0  0  0  0  0  0  0  0  0  0  0  0
    4.1372   -2.1374    6.7817 H   0  0  0  0  0  0  0  0  0  0  0  0
    4.5251   -0.1993    9.1462 H   0  0  0  0  0  0  0  0  0  0  0  0
    3.9247   -1.8696    9.2806 H   0  0  0  0  0  0  0  0  0  0  0  0
    2.9661   -0.6245    8.4520 H   0  0  0  0  0  0  0  0  0  0  0  0
  1  2  2  0  0  0  0
  1 36  1  0  0  0  0
  1 37  1  0  0  0  0
  2  3  1  0  0  0  0
  2 38  1  0  0  0  0
  3  4  2  0  0  0  0
  3  5  1  0  0  0  0
  5  6  1  0  0  0  0
  5 39  1  0  0  0  0
  6  7  1  0  0  0  0
  6 24  2  0  0  0  0
  7  8  2  0  0  0  0
  7 40  1  0  0  0  0
  8  9  1  0  0  0  0
  8 22  1  0  0  0  0
  9 10  1  0  0  0  0
  9 19  2  0  0  0  0
 10 11  1  0  0  0  0
 10 41  1  0  0  0  0
 11 12  1  0  0  0  0
 11 17  2  0  0  0  0
 12 13  2  0  0  0  0
 12 42  1  0  0  0  0
 13 14  1  0  0  0  0
 13 43  1  0  0  0  0
 14 15  1  0  0  0  0
 14 16  2  0  0  0  0
 16 17  1  0  0  0  0
 16 44  1  0  0  0  0
 17 18  1  0  0  0  0
 19 20  1  0  0  0  0
 20 21  2  0  0  0  0
 20 45  1  0  0  0  0
 21 22  1  0  0  0  0
 22 23  2  0  0  0  0
 23 24  1  0  0  0  0
 23 46  1  0  0  0  0
 24 25  1  0  0  0  0
 25 26  1  0  0  0  0
 26 27  1  0  0  0  0
 26 47  1  0  0  0  0
 26 48  1  0  0  0  0
 27 28  1  0  0  0  0
 27 49  1  0  0  0  0
 27 50  1  0  0  0  0
 28 29  1  0  0  0  0
 28 51  1  0  0  0  0
 29 30  2  0  0  0  0
 29 31  1  0  0  0  0
 31 32  2  0  0  0  0
 31 33  1  0  0  0  0
 33 34  1  0  0  0  0
 34 35  1  0  0  0  0
 34 52  1  0  0  0  0
 34 53  1  0  0  0  0
 35 54  1  0  0  0  0
 35 55  1  0  0  0  0
 35 56  1  0  0  0  0
M  END
$$$$
