CHEMBL3977221
 OpenBabel04072215373D

 52 55  0  0  1  0  0  0  0  0999 V2000
    2.9641    0.8684   -1.0118 C   0  0  0  0  0  0  0  0  0  0  0  0
    2.4846   -0.2539   -0.2669 O   0  0  0  0  0  0  0  0  0  0  0  0
    3.2543   -0.7786    0.7363 C   0  0  0  0  0  0  0  0  0  0  0  0
    4.3789   -0.1389    1.2665 C   0  0  0  0  0  0  0  0  0  0  0  0
    5.1754   -0.7526    2.2620 C   0  0  0  0  0  0  0  0  0  0  0  0
    6.2728   -0.1558    2.8951 C   0  0  0  0  0  0  0  0  0  0  0  0
    6.6127    1.1902    2.5923 N   0  0  0  0  0  0  0  0  0  0  0  0
    7.4168    1.9921    3.4408 C   0  0  0  0  0  0  0  0  0  0  0  0
    7.1877    1.9695    4.8279 C   0  0  0  0  0  0  0  0  0  0  0  0
    8.0234    2.6395    5.7078 C   0  0  0  0  0  0  0  0  0  0  0  0
    9.0964    3.3667    5.2119 C   0  0  0  0  0  0  0  0  0  0  0  0
    9.3020    3.4678    3.8306 C   0  0  0  0  0  0  0  0  0  0  0  0
   10.7827    4.5110    3.2552 Br  0  0  0  0  0  0  0  0  0  0  0  0
    8.4542    2.7974    2.9374 C   0  0  0  0  0  0  0  0  0  0  0  0
    8.6602    2.9123    1.2167 Cl  0  0  0  0  0  0  0  0  0  0  0  0
    6.9906   -0.7999    3.8389 N   0  0  0  0  0  0  0  0  0  0  0  0
    6.6013   -2.0300    4.1668 C   0  0  0  0  0  0  0  0  0  0  0  0
    5.5574   -2.6750    3.6495 N   0  0  0  0  0  0  0  0  0  0  0  0
    4.8557   -2.0285    2.7157 C   0  0  0  0  0  0  0  0  0  0  0  0
    3.7223   -2.6358    2.2219 C   0  0  0  0  0  0  0  0  0  0  0  0
    2.8728   -2.0161    1.2853 C   0  0  0  0  0  0  0  0  0  0  0  0
    1.6640   -2.5871    0.9139 O   0  0  0  0  0  0  0  0  0  0  0  0
    1.1529   -3.5230    1.8853 C   0  0  0  0  0  0  0  0  0  0  0  0
   -0.3273   -3.8879    1.7030 C   0  0  3  0  0  0  0  0  0  0  0  0
   -1.2736   -2.6757    1.7466 C   0  0  0  0  0  0  0  0  0  0  0  0
   -1.3433   -2.0858    3.1002 N   0  0  0  0  0  0  0  0  0  0  0  0
   -2.2364   -0.9316    3.1100 C   0  0  0  0  0  0  0  0  0  0  0  0
   -1.7962   -3.1232    4.0451 C   0  0  0  0  0  0  0  0  0  0  0  0
   -0.8597   -4.3407    4.0062 C   0  0  0  0  0  0  0  0  0  0  0  0
   -0.7345   -4.8825    2.6795 O   0  0  0  0  0  0  0  0  0  0  0  0
    2.8931    0.6326   -2.0786 H   0  0  0  0  0  0  0  0  0  0  0  0
    4.0026    1.1588   -0.8403 H   0  0  0  0  0  0  0  0  0  0  0  0
    2.3194    1.7282   -0.8061 H   0  0  0  0  0  0  0  0  0  0  0  0
    4.6504    0.8627    0.9605 H   0  0  0  0  0  0  0  0  0  0  0  0
    6.8793    1.2766    1.6130 H   0  0  0  0  0  0  0  0  0  0  0  0
    6.3521    1.3882    5.2251 H   0  0  0  0  0  0  0  0  0  0  0  0
    7.8511    2.5547    6.7789 H   0  0  0  0  0  0  0  0  0  0  0  0
    9.7675    3.8557    5.9127 H   0  0  0  0  0  0  0  0  0  0  0  0
    7.1724   -2.5382    4.9347 H   0  0  0  0  0  0  0  0  0  0  0  0
    3.4946   -3.6159    2.6300 H   0  0  0  0  0  0  0  0  0  0  0  0
    1.2905   -3.1172    2.8944 H   0  0  0  0  0  0  0  0  0  0  0  0
    1.7233   -4.4579    1.8083 H   0  0  0  0  0  0  0  0  0  0  0  0
   -0.4391   -4.3641    0.7218 H   0  0  0  0  0  0  0  0  0  0  0  0
   -2.2758   -3.0087    1.4429 H   0  0  0  0  0  0  0  0  0  0  0  0
   -0.9417   -1.9253    1.0196 H   0  0  0  0  0  0  0  0  0  0  0  0
   -1.8544   -0.1563    2.4350 H   0  0  0  0  0  0  0  0  0  0  0  0
   -2.2780   -0.4870    4.1089 H   0  0  0  0  0  0  0  0  0  0  0  0
   -3.2543   -1.1888    2.7996 H   0  0  0  0  0  0  0  0  0  0  0  0
   -2.8143   -3.4489    3.7940 H   0  0  0  0  0  0  0  0  0  0  0  0
   -1.8137   -2.7222    5.0652 H   0  0  0  0  0  0  0  0  0  0  0  0
   -1.2617   -5.1316    4.6487 H   0  0  0  0  0  0  0  0  0  0  0  0
    0.1306   -4.0917    4.4037 H   0  0  0  0  0  0  0  0  0  0  0  0
  1  2  1  0  0  0  0
  1 31  1  0  0  0  0
  1 32  1  0  0  0  0
  1 33  1  0  0  0  0
  2  3  1  0  0  0  0
  3  4  1  0  0  0  0
  3 21  2  0  0  0  0
  4  5  2  0  0  0  0
  4 34  1  0  0  0  0
  5  6  1  0  0  0  0
  5 19  1  0  0  0  0
  6  7  1  0  0  0  0
  6 16  2  0  0  0  0
  7  8  1  0  0  0  0
  7 35  1  0  0  0  0
  8  9  1  0  0  0  0
  8 14  2  0  0  0  0
  9 10  2  0  0  0  0
  9 36  1  0  0  0  0
 10 11  1  0  0  0  0
 10 37  1  0  0  0  0
 11 12  2  0  0  0  0
 11 38  1  0  0  0  0
 12 13  1  0  0  0  0
 12 14  1  0  0  0  0
 14 15  1  0  0  0  0
 16 17  1  0  0  0  0
 17 18  2  0  0  0  0
 17 39  1  0  0  0  0
 18 19  1  0  0  0  0
 19 20  2  0  0  0  0
 20 21  1  0  0  0  0
 20 40  1  0  0  0  0
 21 22  1  0  0  0  0
 22 23  1  0  0  0  0
 23 24  1  0  0  0  0
 23 41  1  0  0  0  0
 23 42  1  0  0  0  0
 24 25  1  0  0  0  0
 24 30  1  0  0  0  0
 24 43  1  0  0  0  0
 25 26  1  0  0  0  0
 25 44  1  0  0  0  0
 25 45  1  0  0  0  0
 26 27  1  0  0  0  0
 26 28  1  0  0  0  0
 27 46  1  0  0  0  0
 27 47  1  0  0  0  0
 27 48  1  0  0  0  0
 28 29  1  0  0  0  0
 28 49  1  0  0  0  0
 28 50  1  0  0  0  0
 29 30  1  0  0  0  0
 29 51  1  0  0  0  0
 29 52  1  0  0  0  0
M  END
$$$$
