CHEMBL3944502
 OpenBabel04072215373D

 54 58  0  0  0  0  0  0  0  0999 V2000
    1.0490   -0.4404   -0.3528 C   0  0  0  0  0  0  0  0  0  0  0  0
    2.4497   -0.3160   -0.1705 O   0  0  0  0  0  0  0  0  0  0  0  0
    3.0845   -1.0958    0.7515 C   0  0  0  0  0  0  0  0  0  0  0  0
    4.2589   -0.4925    1.2269 C   0  0  0  0  0  0  0  0  0  0  0  0
    5.0998   -1.1379    2.1644 C   0  0  0  0  0  0  0  0  0  0  0  0
    6.2638   -0.6057    2.7425 C   0  0  0  0  0  0  0  0  0  0  0  0
    6.6441    0.7386    2.4727 N   0  0  0  0  0  0  0  0  0  0  0  0
    7.9398    1.2354    2.7447 C   0  0  0  0  0  0  0  0  0  0  0  0
    9.0677    0.5178    2.3201 C   0  0  0  0  0  0  0  0  0  0  0  0
   10.3560    0.9346    2.6508 C   0  0  0  0  0  0  0  0  0  0  0  0
   10.5364    2.0915    3.4061 C   0  0  0  0  0  0  0  0  0  0  0  0
   12.1539    2.5272    3.8267 Cl  0  0  0  0  0  0  0  0  0  0  0  0
    9.4226    2.8415    3.8028 C   0  0  0  0  0  0  0  0  0  0  0  0
    9.5759    4.2908    4.7340 Cl  0  0  0  0  0  0  0  0  0  0  0  0
    8.1286    2.4193    3.4649 C   0  0  0  0  0  0  0  0  0  0  0  0
    7.0410   -1.3243    3.5769 N   0  0  0  0  0  0  0  0  0  0  0  0
    6.6512   -2.5711    3.8489 C   0  0  0  0  0  0  0  0  0  0  0  0
    5.5545   -3.1627    3.3806 N   0  0  0  0  0  0  0  0  0  0  0  0
    4.7967   -2.4445    2.5532 C   0  0  0  0  0  0  0  0  0  0  0  0
    3.6451   -3.0319    2.0691 C   0  0  0  0  0  0  0  0  0  0  0  0
    2.7419   -2.3692    1.2189 C   0  0  0  0  0  0  0  0  0  0  0  0
    1.5605   -2.9628    0.8360 O   0  0  0  0  0  0  0  0  0  0  0  0
    1.0953   -3.9792    1.7456 C   0  0  0  0  0  0  0  0  0  0  0  0
   -0.3391   -4.2342    1.5124 C   0  0  0  0  0  0  0  0  0  0  0  0
   -1.3606   -4.0750    2.3281 N   0  0  0  0  0  0  0  0  0  0  0  0
   -2.4654   -4.5623    1.6605 N   0  0  0  0  0  0  0  0  0  0  0  0
   -2.0365   -4.9906    0.4899 C   0  0  0  0  0  0  0  0  0  0  0  0
   -2.7646   -5.5044   -0.6571 C   0  0  0  0  0  0  0  0  0  0  0  0
   -4.1643   -5.5523   -0.6373 C   0  0  0  0  0  0  0  0  0  0  0  0
   -4.8781   -5.9193   -1.7817 C   0  0  0  0  0  0  0  0  0  0  0  0
   -4.2009   -6.2502   -2.9601 C   0  0  0  0  0  0  0  0  0  0  0  0
   -4.9434   -6.5656   -4.2232 C   0  0  0  0  0  0  0  0  0  0  0  0
   -2.8033   -6.2604   -2.9654 C   0  0  0  0  0  0  0  0  0  0  0  0
   -2.0922   -5.8944   -1.8240 C   0  0  0  0  0  0  0  0  0  0  0  0
   -0.6841   -4.8314    0.3354 O   0  0  0  0  0  0  0  0  0  0  0  0
    0.6598    0.5710   -0.5149 H   0  0  0  0  0  0  0  0  0  0  0  0
    0.5220   -0.8442    0.5136 H   0  0  0  0  0  0  0  0  0  0  0  0
    0.8429   -1.0235   -1.2551 H   0  0  0  0  0  0  0  0  0  0  0  0
    4.5243    0.4956    0.8531 H   0  0  0  0  0  0  0  0  0  0  0  0
    5.9036    1.3604    2.7829 H   0  0  0  0  0  0  0  0  0  0  0  0
    8.9391   -0.3978    1.7457 H   0  0  0  0  0  0  0  0  0  0  0  0
   11.2053    0.3378    2.3298 H   0  0  0  0  0  0  0  0  0  0  0  0
    7.2737    2.9996    3.8006 H   0  0  0  0  0  0  0  0  0  0  0  0
    7.2793   -3.1461    4.5166 H   0  0  0  0  0  0  0  0  0  0  0  0
    3.4761   -4.0556    2.3929 H   0  0  0  0  0  0  0  0  0  0  0  0
    1.2142   -3.6590    2.7884 H   0  0  0  0  0  0  0  0  0  0  0  0
    1.6484   -4.9093    1.5687 H   0  0  0  0  0  0  0  0  0  0  0  0
   -4.7104   -5.2714    0.2624 H   0  0  0  0  0  0  0  0  0  0  0  0
   -5.9654   -5.9177   -1.7507 H   0  0  0  0  0  0  0  0  0  0  0  0
   -6.0254   -6.4777   -4.0863 H   0  0  0  0  0  0  0  0  0  0  0  0
   -4.7187   -7.5852   -4.5499 H   0  0  0  0  0  0  0  0  0  0  0  0
   -4.6478   -5.8622   -5.0093 H   0  0  0  0  0  0  0  0  0  0  0  0
   -2.2588   -6.5270   -3.8686 H   0  0  0  0  0  0  0  0  0  0  0  0
   -1.0049   -5.8876   -1.8678 H   0  0  0  0  0  0  0  0  0  0  0  0
  1  2  1  0  0  0  0
  1 36  1  0  0  0  0
  1 37  1  0  0  0  0
  1 38  1  0  0  0  0
  2  3  1  0  0  0  0
  3  4  1  0  0  0  0
  3 21  2  0  0  0  0
  4  5  2  0  0  0  0
  4 39  1  0  0  0  0
  5  6  1  0  0  0  0
  5 19  1  0  0  0  0
  6  7  1  0  0  0  0
  6 16  2  0  0  0  0
  7  8  1  0  0  0  0
  7 40  1  0  0  0  0
  8  9  1  0  0  0  0
  8 15  2  0  0  0  0
  9 10  2  0  0  0  0
  9 41  1  0  0  0  0
 10 11  1  0  0  0  0
 10 42  1  0  0  0  0
 11 12  1  0  0  0  0
 11 13  2  0  0  0  0
 13 14  1  0  0  0  0
 13 15  1  0  0  0  0
 15 43  1  0  0  0  0
 16 17  1  0  0  0  0
 17 18  2  0  0  0  0
 17 44  1  0  0  0  0
 18 19  1  0  0  0  0
 19 20  2  0  0  0  0
 20 21  1  0  0  0  0
 20 45  1  0  0  0  0
 21 22  1  0  0  0  0
 22 23  1  0  0  0  0
 23 24  1  0  0  0  0
 23 46  1  0  0  0  0
 23 47  1  0  0  0  0
 24 25  2  0  0  0  0
 24 35  1  0  0  0  0
 25 26  1  0  0  0  0
 26 27  2  0  0  0  0
 27 28  1  0  0  0  0
 27 35  1  0  0  0  0
 28 29  1  0  0  0  0
 28 34  2  0  0  0  0
 29 30  2  0  0  0  0
 29 48  1  0  0  0  0
 30 31  1  0  0  0  0
 30 49  1  0  0  0  0
 31 32  1  0  0  0  0
 31 33  2  0  0  0  0
 32 50  1  0  0  0  0
 32 51  1  0  0  0  0
 32 52  1  0  0  0  0
 33 34  1  0  0  0  0
 33 53  1  0  0  0  0
 34 54  1  0  0  0  0
M  END
$$$$
