CHEMBL1241944
 OpenBabel04072215363D

 36 38  0  0  0  0  0  0  0  0999 V2000
    1.6084    0.8268    0.8046 C   0  0  0  0  0  0  0  0  0  0  0  0
    2.5747   -0.0981    0.0634 C   0  0  0  0  0  0  0  0  0  0  0  0
    3.7533    0.6944   -0.5039 C   0  0  0  0  0  0  0  0  0  0  0  0
    3.0022   -1.2126    0.9052 N   0  0  0  0  0  0  0  0  0  0  0  0
    3.6828   -0.9848    2.0496 N   0  0  0  0  0  0  0  0  0  0  0  0
    3.8749   -2.2087    2.5789 C   0  0  0  0  0  0  0  0  0  0  0  0
    4.6396   -2.3582    3.8235 C   0  0  0  0  0  0  0  0  0  0  0  0
    5.4357   -3.4897    4.0449 C   0  0  0  0  0  0  0  0  0  0  0  0
    6.1239   -3.6621    5.2464 C   0  0  0  0  0  0  0  0  0  0  0  0
    6.0944   -2.6580    6.2170 C   0  0  0  0  0  0  0  0  0  0  0  0
    6.8539   -2.8371    7.4157 C   0  0  0  0  0  0  0  0  0  0  0  0
    7.4662   -2.9479    8.3890 N   0  0  0  0  0  0  0  0  0  0  0  0
    5.3483   -1.4988    5.9830 C   0  0  0  0  0  0  0  0  0  0  0  0
    5.2858   -0.4495    6.8590 O   0  0  0  0  0  0  0  0  0  0  0  0
    4.6127   -1.3571    4.8035 C   0  0  0  0  0  0  0  0  0  0  0  0
    3.2613   -3.2242    1.7758 C   0  0  0  0  0  0  0  0  0  0  0  0
    3.0688   -4.6167    1.7846 C   0  0  0  0  0  0  0  0  0  0  0  0
    3.4818   -5.4876    2.7845 N   0  0  0  0  0  0  0  0  0  0  0  0
    2.4283   -5.1883    0.7450 N   0  0  0  0  0  0  0  0  0  0  0  0
    1.9911   -4.4033   -0.2557 C   0  0  0  0  0  0  0  0  0  0  0  0
    2.0926   -3.0699   -0.3631 N   0  0  0  0  0  0  0  0  0  0  0  0
    2.7394   -2.5387    0.6894 C   0  0  0  0  0  0  0  0  0  0  0  0
    1.2684    1.6366    0.1496 H   0  0  0  0  0  0  0  0  0  0  0  0
    2.0778    1.2818    1.6837 H   0  0  0  0  0  0  0  0  0  0  0  0
    0.7250    0.2758    1.1445 H   0  0  0  0  0  0  0  0  0  0  0  0
    2.0327   -0.5325   -0.7854 H   0  0  0  0  0  0  0  0  0  0  0  0
    4.3431    1.1691    0.2874 H   0  0  0  0  0  0  0  0  0  0  0  0
    3.3947    1.4858   -1.1727 H   0  0  0  0  0  0  0  0  0  0  0  0
    4.4220    0.0478   -1.0815 H   0  0  0  0  0  0  0  0  0  0  0  0
    5.5474   -4.2534    3.2814 H   0  0  0  0  0  0  0  0  0  0  0  0
    6.6954   -4.5746    5.4034 H   0  0  0  0  0  0  0  0  0  0  0  0
    5.8839   -0.5860    7.6163 H   0  0  0  0  0  0  0  0  0  0  0  0
    4.0305   -0.4503    4.6473 H   0  0  0  0  0  0  0  0  0  0  0  0
    3.4813   -5.1128    3.7240 H   0  0  0  0  0  0  0  0  0  0  0  0
    3.0504   -6.3995    2.6764 H   0  0  0  0  0  0  0  0  0  0  0  0
    1.4910   -4.9133   -1.0733 H   0  0  0  0  0  0  0  0  0  0  0  0
  1  2  1  0  0  0  0
  1 23  1  0  0  0  0
  1 24  1  0  0  0  0
  1 25  1  0  0  0  0
  2  3  1  0  0  0  0
  2  4  1  0  0  0  0
  2 26  1  0  0  0  0
  3 27  1  0  0  0  0
  3 28  1  0  0  0  0
  3 29  1  0  0  0  0
  4  5  1  0  0  0  0
  4 22  1  0  0  0  0
  5  6  2  0  0  0  0
  6  7  1  0  0  0  0
  6 16  1  0  0  0  0
  7  8  1  0  0  0  0
  7 15  2  0  0  0  0
  8  9  2  0  0  0  0
  8 30  1  0  0  0  0
  9 10  1  0  0  0  0
  9 31  1  0  0  0  0
 10 11  1  0  0  0  0
 10 13  2  0  0  0  0
 11 12  3  0  0  0  0
 13 14  1  0  0  0  0
 13 15  1  0  0  0  0
 14 32  1  0  0  0  0
 15 33  1  0  0  0  0
 16 17  1  0  0  0  0
 16 22  2  0  0  0  0
 17 18  1  0  0  0  0
 17 19  2  0  0  0  0
 18 34  1  0  0  0  0
 18 35  1  0  0  0  0
 19 20  1  0  0  0  0
 20 21  2  0  0  0  0
 20 36  1  0  0  0  0
 21 22  1  0  0  0  0
M  END
$$$$
