CHEMBL3746226
 OpenBabel04072215373D

 56 60  0  0  0  0  0  0  0  0999 V2000
    5.4158    0.0625    1.5763 C   0  0  0  0  0  0  0  0  0  0  0  0
    4.2677   -0.2901    2.5381 C   0  0  0  0  0  0  0  0  0  0  0  0
    4.8569   -0.5762    3.9314 C   0  0  0  0  0  0  0  0  0  0  0  0
    3.3135    0.9139    2.6503 C   0  0  0  0  0  0  0  0  0  0  0  0
    3.5493   -1.5059    2.0219 C   0  0  0  0  0  0  0  0  0  0  0  0
    3.7076   -2.8633    2.1912 C   0  0  0  0  0  0  0  0  0  0  0  0
    2.7435   -3.4544    1.3428 C   0  0  0  0  0  0  0  0  0  0  0  0
    2.5736   -4.8192    1.1929 N   0  0  0  0  0  0  0  0  0  0  0  0
    1.6756   -5.3551    0.2996 C   0  0  0  0  0  0  0  0  0  0  0  0
    0.9385   -4.8100   -0.5058 O   0  0  0  0  0  0  0  0  0  0  0  0
    1.5527   -6.7502    0.4712 N   0  0  0  0  0  0  0  0  0  0  0  0
    0.3291   -7.3999    0.4515 C   0  0  0  0  0  0  0  0  0  0  0  0
    0.5176   -8.7315    0.7232 C   0  0  0  0  0  0  0  0  0  0  0  0
    1.9079   -8.9349    0.9212 C   0  0  0  0  0  0  0  0  0  0  0  0
    2.6846  -10.0635    1.2667 C   0  0  0  0  0  0  0  0  0  0  0  0
    4.0765   -9.9434    1.4017 C   0  0  0  0  0  0  0  0  0  0  0  0
    4.7230  -11.0429    1.9357 O   0  0  0  0  0  0  0  0  0  0  0  0
    6.0905  -11.2015    1.7500 C   0  0  0  0  0  0  0  0  0  0  0  0
    6.5863  -11.0203    0.5145 N   0  0  0  0  0  0  0  0  0  0  0  0
    7.8895  -11.2684    0.3911 C   0  0  0  0  0  0  0  0  0  0  0  0
    8.7159  -11.6974    1.3566 N   0  0  0  0  0  0  0  0  0  0  0  0
    8.1784  -11.8960    2.5910 C   0  0  0  0  0  0  0  0  0  0  0  0
    6.8448  -11.6440    2.8245 C   0  0  0  0  0  0  0  0  0  0  0  0
    6.2412  -11.8389    4.1738 C   0  0  0  0  0  0  0  0  0  0  0  0
    7.1612  -12.3141    5.2970 C   0  0  0  0  0  0  0  0  0  0  0  0
    8.5415  -12.6529    5.0170 N   0  0  0  0  0  0  0  0  0  0  0  0
    9.0875  -12.4103    3.6783 C   0  0  0  0  0  0  0  0  0  0  0  0
    4.6944   -8.7322    1.1038 C   0  0  0  0  0  0  0  0  0  0  0  0
    3.9495   -7.6095    0.7180 C   0  0  0  0  0  0  0  0  0  0  0  0
    2.5460   -7.7056    0.7096 C   0  0  0  0  0  0  0  0  0  0  0  0
    2.0326   -2.5114    0.7218 N   0  0  0  0  0  0  0  0  0  0  0  0
    2.5334   -1.3000    1.1414 O   0  0  0  0  0  0  0  0  0  0  0  0
    5.9777    0.9334    1.9329 H   0  0  0  0  0  0  0  0  0  0  0  0
    5.0413    0.2947    0.5723 H   0  0  0  0  0  0  0  0  0  0  0  0
    6.1224   -0.7702    1.4772 H   0  0  0  0  0  0  0  0  0  0  0  0
    5.4035    0.2915    4.3173 H   0  0  0  0  0  0  0  0  0  0  0  0
    5.5580   -1.4188    3.9069 H   0  0  0  0  0  0  0  0  0  0  0  0
    4.0693   -0.8253    4.6524 H   0  0  0  0  0  0  0  0  0  0  0  0
    3.8408    1.8056    3.0087 H   0  0  0  0  0  0  0  0  0  0  0  0
    2.4935    0.7067    3.3479 H   0  0  0  0  0  0  0  0  0  0  0  0
    2.8644    1.1693    1.6830 H   0  0  0  0  0  0  0  0  0  0  0  0
    4.4452   -3.3530    2.8078 H   0  0  0  0  0  0  0  0  0  0  0  0
    3.0551   -5.4086    1.8576 H   0  0  0  0  0  0  0  0  0  0  0  0
   -0.5751   -6.8224    0.2975 H   0  0  0  0  0  0  0  0  0  0  0  0
   -0.2689   -9.4718    0.7915 H   0  0  0  0  0  0  0  0  0  0  0  0
    2.1959  -11.0162    1.4533 H   0  0  0  0  0  0  0  0  0  0  0  0
    8.3206  -11.0995   -0.5940 H   0  0  0  0  0  0  0  0  0  0  0  0
    5.8098  -10.8766    4.4771 H   0  0  0  0  0  0  0  0  0  0  0  0
    5.4341  -12.5721    4.0663 H   0  0  0  0  0  0  0  0  0  0  0  0
    6.6841  -13.1851    5.7672 H   0  0  0  0  0  0  0  0  0  0  0  0
    7.1536  -11.5576    6.0935 H   0  0  0  0  0  0  0  0  0  0  0  0
    8.7441  -13.6074    5.3112 H   0  0  0  0  0  0  0  0  0  0  0  0
    9.5203  -13.3549    3.3284 H   0  0  0  0  0  0  0  0  0  0  0  0
    9.9198  -11.7063    3.7903 H   0  0  0  0  0  0  0  0  0  0  0  0
    5.7736   -8.6295    1.1717 H   0  0  0  0  0  0  0  0  0  0  0  0
    4.4639   -6.6923    0.4460 H   0  0  0  0  0  0  0  0  0  0  0  0
  1  2  1  0  0  0  0
  1 33  1  0  0  0  0
  1 34  1  0  0  0  0
  1 35  1  0  0  0  0
  2  3  1  0  0  0  0
  2  4  1  0  0  0  0
  2  5  1  0  0  0  0
  3 36  1  0  0  0  0
  3 37  1  0  0  0  0
  3 38  1  0  0  0  0
  4 39  1  0  0  0  0
  4 40  1  0  0  0  0
  4 41  1  0  0  0  0
  5  6  2  0  0  0  0
  5 32  1  0  0  0  0
  6  7  1  0  0  0  0
  6 42  1  0  0  0  0
  7  8  1  0  0  0  0
  7 31  2  0  0  0  0
  8  9  1  0  0  0  0
  8 43  1  0  0  0  0
  9 10  2  0  0  0  0
  9 11  1  0  0  0  0
 11 12  1  0  0  0  0
 11 30  1  0  0  0  0
 12 13  2  0  0  0  0
 12 44  1  0  0  0  0
 13 14  1  0  0  0  0
 13 45  1  0  0  0  0
 14 15  1  0  0  0  0
 14 30  2  0  0  0  0
 15 16  2  0  0  0  0
 15 46  1  0  0  0  0
 16 17  1  0  0  0  0
 16 28  1  0  0  0  0
 17 18  1  0  0  0  0
 18 19  1  0  0  0  0
 18 23  2  0  0  0  0
 19 20  2  0  0  0  0
 20 21  1  0  0  0  0
 20 47  1  0  0  0  0
 21 22  2  0  0  0  0
 22 23  1  0  0  0  0
 22 27  1  0  0  0  0
 23 24  1  0  0  0  0
 24 25  1  0  0  0  0
 24 48  1  0  0  0  0
 24 49  1  0  0  0  0
 25 26  1  0  0  0  0
 25 50  1  0  0  0  0
 25 51  1  0  0  0  0
 26 27  1  0  0  0  0
 26 52  1  0  0  0  0
 27 53  1  0  0  0  0
 27 54  1  0  0  0  0
 28 29  2  0  0  0  0
 28 55  1  0  0  0  0
 29 30  1  0  0  0  0
 29 56  1  0  0  0  0
 31 32  1  0  0  0  0
M  END
$$$$
