CHEMBL233827
 OpenBabel04072215363D

 40 42  0  0  0  0  0  0  0  0999 V2000
    2.6223    0.1850   -1.2035 O   0  0  0  0  0  0  0  0  0  0  0  0
    2.2833    0.1527   -0.0262 C   0  0  0  0  0  0  0  0  0  0  0  0
    1.1403   -0.4807    0.4537 N   0  0  0  0  0  0  0  0  0  0  0  0
    0.1869   -1.1828   -0.3138 C   0  0  0  0  0  0  0  0  0  0  0  0
    0.4239   -1.6050   -1.6231 C   0  0  0  0  0  0  0  0  0  0  0  0
   -0.5721   -2.2433   -2.3727 C   0  0  0  0  0  0  0  0  0  0  0  0
   -1.8117   -2.5121   -1.8051 C   0  0  0  0  0  0  0  0  0  0  0  0
   -2.8585   -3.1403   -2.4059 O   0  0  0  0  0  0  0  0  0  0  0  0
   -2.6281   -3.9812   -3.5277 C   0  0  0  0  0  0  0  0  0  0  0  0
   -1.3666   -4.4547   -3.6044 F   0  0  0  0  0  0  0  0  0  0  0  0
   -3.4558   -5.0469   -3.4320 F   0  0  0  0  0  0  0  0  0  0  0  0
   -2.9235   -3.3207   -4.6673 F   0  0  0  0  0  0  0  0  0  0  0  0
   -2.0540   -2.0956   -0.4922 C   0  0  0  0  0  0  0  0  0  0  0  0
   -1.0601   -1.4520    0.2571 C   0  0  0  0  0  0  0  0  0  0  0  0
    3.0315    0.8427    0.9922 C   0  0  0  0  0  0  0  0  0  0  0  0
    2.7723    0.7669    2.2859 N   0  0  0  0  0  0  0  0  0  0  0  0
    3.6893    1.5739    2.9062 N   0  0  0  0  0  0  0  0  0  0  0  0
    4.4852    2.1548    2.0221 N   0  0  0  0  0  0  0  0  0  0  0  0
    4.0961    1.6889    0.8198 N   0  0  0  0  0  0  0  0  0  0  0  0
    4.7170    2.1693   -0.4041 C   0  0  0  0  0  0  0  0  0  0  0  0
    6.1463    2.6967   -0.1977 C   0  0  0  0  0  0  0  0  0  0  0  0
    6.8071    3.2685   -1.4304 C   0  0  0  0  0  0  0  0  0  0  0  0
    7.2120    4.6057   -1.4535 C   0  0  0  0  0  0  0  0  0  0  0  0
    7.8990    5.0866   -2.5592 C   0  0  0  0  0  0  0  0  0  0  0  0
    8.1996    4.3341   -3.6354 N   0  0  0  0  0  0  0  0  0  0  0  0
    7.8005    3.0460   -3.6002 C   0  0  0  0  0  0  0  0  0  0  0  0
    7.1109    2.4726   -2.5418 C   0  0  0  0  0  0  0  0  0  0  0  0
    0.9285   -0.3206    1.4352 H   0  0  0  0  0  0  0  0  0  0  0  0
    1.3906   -1.4674   -2.0975 H   0  0  0  0  0  0  0  0  0  0  0  0
   -0.3301   -2.5088   -3.3977 H   0  0  0  0  0  0  0  0  0  0  0  0
   -3.0302   -2.2739   -0.0442 H   0  0  0  0  0  0  0  0  0  0  0  0
   -1.2932   -1.1441    1.2733 H   0  0  0  0  0  0  0  0  0  0  0  0
    4.0614    2.9543   -0.7989 H   0  0  0  0  0  0  0  0  0  0  0  0
    4.7329    1.3406   -1.1178 H   0  0  0  0  0  0  0  0  0  0  0  0
    6.7842    1.8945    0.1875 H   0  0  0  0  0  0  0  0  0  0  0  0
    6.1349    3.4734    0.5754 H   0  0  0  0  0  0  0  0  0  0  0  0
    7.0217    5.2728   -0.6146 H   0  0  0  0  0  0  0  0  0  0  0  0
    8.2449    6.1155   -2.5995 H   0  0  0  0  0  0  0  0  0  0  0  0
    8.0704    2.4575   -4.4754 H   0  0  0  0  0  0  0  0  0  0  0  0
    6.8444    1.4237   -2.5813 H   0  0  0  0  0  0  0  0  0  0  0  0
  1  2  2  0  0  0  0
  2  3  1  0  0  0  0
  2 15  1  0  0  0  0
  3  4  1  0  0  0  0
  3 28  1  0  0  0  0
  4  5  1  0  0  0  0
  4 14  2  0  0  0  0
  5  6  2  0  0  0  0
  5 29  1  0  0  0  0
  6  7  1  0  0  0  0
  6 30  1  0  0  0  0
  7  8  1  0  0  0  0
  7 13  2  0  0  0  0
  8  9  1  0  0  0  0
  9 10  1  0  0  0  0
  9 11  1  0  0  0  0
  9 12  1  0  0  0  0
 13 14  1  0  0  0  0
 13 31  1  0  0  0  0
 14 32  1  0  0  0  0
 15 16  2  0  0  0  0
 15 19  1  0  0  0  0
 16 17  1  0  0  0  0
 17 18  2  0  0  0  0
 18 19  1  0  0  0  0
 19 20  1  0  0  0  0
 20 21  1  0  0  0  0
 20 33  1  0  0  0  0
 20 34  1  0  0  0  0
 21 22  1  0  0  0  0
 21 35  1  0  0  0  0
 21 36  1  0  0  0  0
 22 23  1  0  0  0  0
 22 27  2  0  0  0  0
 23 24  2  0  0  0  0
 23 37  1  0  0  0  0
 24 25  1  0  0  0  0
 24 38  1  0  0  0  0
 25 26  2  0  0  0  0
 26 27  1  0  0  0  0
 26 39  1  0  0  0  0
 27 40  1  0  0  0  0
M  END
$$$$
