CHEMBL74646
 OpenBabel04072215383D

 43 46  0  0  0  0  0  0  0  0999 V2000
   -6.3695    3.8860    1.4486 F   0  0  0  0  0  0  0  0  0  0  0  0
   -5.3940    2.9693    1.4532 C   0  0  0  0  0  0  0  0  0  0  0  0
   -4.2297    3.2108    0.7371 C   0  0  0  0  0  0  0  0  0  0  0  0
   -3.1908    2.2713    0.7488 C   0  0  0  0  0  0  0  0  0  0  0  0
   -2.0137    2.4492   -0.0196 N   0  0  0  0  0  0  0  0  0  0  0  0
   -1.3360    3.6966   -0.1401 C   0  0  0  0  0  0  0  0  0  0  0  0
   -1.5288    4.6234    0.8271 N   0  0  0  0  0  0  0  0  0  0  0  0
   -0.8338    5.7918    0.8340 N   0  0  0  0  0  0  0  0  0  0  0  0
    0.1211    6.0197   -0.0920 C   0  0  0  0  0  0  0  0  0  0  0  0
    0.7288    7.4054   -0.0202 C   0  0  0  0  0  0  0  0  0  0  0  0
    0.0491    8.3937   -0.9439 C   0  0  0  0  0  0  0  0  0  0  0  0
   -1.3001    8.7244   -0.7706 C   0  0  0  0  0  0  0  0  0  0  0  0
   -1.9013    9.5835   -1.6771 C   0  0  0  0  0  0  0  0  0  0  0  0
   -1.2556   10.1413   -2.7224 N   0  0  0  0  0  0  0  0  0  0  0  0
    0.0512    9.8326   -2.8586 C   0  0  0  0  0  0  0  0  0  0  0  0
    0.7404    8.9809   -2.0069 C   0  0  0  0  0  0  0  0  0  0  0  0
    0.4236    5.0776   -1.0903 C   0  0  0  0  0  0  0  0  0  0  0  0
    1.4644    5.2374   -2.0397 C   0  0  0  0  0  0  0  0  0  0  0  0
    1.6778    4.3183   -3.0661 C   0  0  0  0  0  0  0  0  0  0  0  0
    0.8432    3.2199   -3.1857 C   0  0  0  0  0  0  0  0  0  0  0  0
   -0.1556    3.0088   -2.2341 C   0  0  0  0  0  0  0  0  0  0  0  0
   -0.3758    3.9012   -1.1538 C   0  0  0  0  0  0  0  0  0  0  0  0
   -3.3793    1.0570    1.4218 C   0  0  0  0  0  0  0  0  0  0  0  0
   -4.5593    0.8156    2.1549 C   0  0  0  0  0  0  0  0  0  0  0  0
   -4.7504   -0.4616    2.9310 C   0  0  0  0  0  0  0  0  0  0  0  0
   -3.7151   -1.3387    2.8040 F   0  0  0  0  0  0  0  0  0  0  0  0
   -4.8959   -0.2447    4.2666 F   0  0  0  0  0  0  0  0  0  0  0  0
   -5.8634   -1.1422    2.5385 F   0  0  0  0  0  0  0  0  0  0  0  0
   -5.5678    1.7912    2.1678 C   0  0  0  0  0  0  0  0  0  0  0  0
   -4.1382    4.1425    0.1889 H   0  0  0  0  0  0  0  0  0  0  0  0
   -2.1781    2.0496   -0.9351 H   0  0  0  0  0  0  0  0  0  0  0  0
    1.8070    7.3631   -0.2054 H   0  0  0  0  0  0  0  0  0  0  0  0
    0.6373    7.7862    1.0079 H   0  0  0  0  0  0  0  0  0  0  0  0
   -1.8851    8.3105    0.0466 H   0  0  0  0  0  0  0  0  0  0  0  0
   -2.9520    9.8464   -1.5865 H   0  0  0  0  0  0  0  0  0  0  0  0
    0.5480   10.2993   -3.7043 H   0  0  0  0  0  0  0  0  0  0  0  0
    1.7915    8.7823   -2.1820 H   0  0  0  0  0  0  0  0  0  0  0  0
    2.1438    6.0871   -1.9844 H   0  0  0  0  0  0  0  0  0  0  0  0
    2.4882    4.4646   -3.7742 H   0  0  0  0  0  0  0  0  0  0  0  0
    0.9684    2.5223   -4.0099 H   0  0  0  0  0  0  0  0  0  0  0  0
   -0.7797    2.1289   -2.3728 H   0  0  0  0  0  0  0  0  0  0  0  0
   -2.5895    0.3107    1.4104 H   0  0  0  0  0  0  0  0  0  0  0  0
   -6.4873    1.6419    2.7233 H   0  0  0  0  0  0  0  0  0  0  0  0
  1  2  1  0  0  0  0
  2  3  1  0  0  0  0
  2 29  2  0  0  0  0
  3  4  2  0  0  0  0
  3 30  1  0  0  0  0
  4  5  1  0  0  0  0
  4 23  1  0  0  0  0
  5  6  1  0  0  0  0
  5 31  1  0  0  0  0
  6  7  1  0  0  0  0
  6 22  2  0  0  0  0
  7  8  2  0  0  0  0
  8  9  1  0  0  0  0
  9 10  1  0  0  0  0
  9 17  2  0  0  0  0
 10 11  1  0  0  0  0
 10 32  1  0  0  0  0
 10 33  1  0  0  0  0
 11 12  1  0  0  0  0
 11 16  2  0  0  0  0
 12 13  2  0  0  0  0
 12 34  1  0  0  0  0
 13 14  1  0  0  0  0
 13 35  1  0  0  0  0
 14 15  2  0  0  0  0
 15 16  1  0  0  0  0
 15 36  1  0  0  0  0
 16 37  1  0  0  0  0
 17 18  1  0  0  0  0
 17 22  1  0  0  0  0
 18 19  2  0  0  0  0
 18 38  1  0  0  0  0
 19 20  1  0  0  0  0
 19 39  1  0  0  0  0
 20 21  2  0  0  0  0
 20 40  1  0  0  0  0
 21 22  1  0  0  0  0
 21 41  1  0  0  0  0
 23 24  2  0  0  0  0
 23 42  1  0  0  0  0
 24 25  1  0  0  0  0
 24 29  1  0  0  0  0
 25 26  1  0  0  0  0
 25 27  1  0  0  0  0
 25 28  1  0  0  0  0
 29 43  1  0  0  0  0
M  END
$$$$
