CHEMBL3935348
 OpenBabel04072215373D

 64 68  0  0  0  0  0  0  0  0999 V2000
    1.0083    0.2340    0.3268 O   0  0  0  0  0  0  0  0  0  0  0  0
    2.1945    0.0615    0.0530 C   0  0  0  0  0  0  0  0  0  0  0  0
    2.7544    0.1588   -1.1902 N   0  0  0  0  0  0  0  0  0  0  0  0
    2.1228    0.4512   -2.4086 C   0  0  0  0  0  0  0  0  0  0  0  0
    0.8368    0.9867   -2.5075 C   0  0  0  0  0  0  0  0  0  0  0  0
    0.2386    1.1707   -3.7608 C   0  0  0  0  0  0  0  0  0  0  0  0
    0.9195    0.8143   -4.9256 C   0  0  0  0  0  0  0  0  0  0  0  0
    0.2399    0.9935   -6.1086 O   0  0  0  0  0  0  0  0  0  0  0  0
    0.3235    0.0455   -7.1082 C   0  0  0  0  0  0  0  0  0  0  0  0
    0.6698   -1.2877   -6.9175 C   0  0  0  0  0  0  0  0  0  0  0  0
    0.7584   -2.0933   -8.0318 C   0  0  0  0  0  0  0  0  0  0  0  0
    0.4671   -1.6741   -9.2754 N   0  0  0  0  0  0  0  0  0  0  0  0
    0.0682   -0.4053   -9.4530 C   0  0  0  0  0  0  0  0  0  0  0  0
   -0.2807    0.0394  -10.7397 N   0  0  0  0  0  0  0  0  0  0  0  0
   -0.2246   -0.7580  -11.8629 C   0  0  0  0  0  0  0  0  0  0  0  0
    0.1334   -1.9275  -11.9412 O   0  0  0  0  0  0  0  0  0  0  0  0
   -0.6717   -0.0658  -13.1201 C   0  0  0  0  0  0  0  0  0  0  0  0
   -1.3933   -0.8652  -14.1853 C   0  0  0  0  0  0  0  0  0  0  0  0
    0.0132   -0.3999  -14.4284 C   0  0  0  0  0  0  0  0  0  0  0  0
   -0.0166    0.4872   -8.3908 C   0  0  0  0  0  0  0  0  0  0  0  0
    2.2406    0.3760   -4.8225 C   0  0  0  0  0  0  0  0  0  0  0  0
    2.9661    0.1042   -5.9170 F   0  0  0  0  0  0  0  0  0  0  0  0
    2.8355    0.1779   -3.5783 C   0  0  0  0  0  0  0  0  0  0  0  0
    3.0351   -0.3103    1.0682 N   0  0  0  0  0  0  0  0  0  0  0  0
    4.4202   -0.4945    1.0404 C   0  0  0  0  0  0  0  0  0  0  0  0
    5.0416   -0.9122    2.2040 C   0  0  0  0  0  0  0  0  0  0  0  0
    6.4256   -1.0736    2.1954 C   0  0  0  0  0  0  0  0  0  0  0  0
    7.1834   -1.4815    3.4270 C   0  0  0  0  0  0  0  0  0  0  0  0
    6.3854   -1.6975    4.5078 F   0  0  0  0  0  0  0  0  0  0  0  0
    7.8899   -2.6297    3.2440 F   0  0  0  0  0  0  0  0  0  0  0  0
    8.0891   -0.5407    3.8103 F   0  0  0  0  0  0  0  0  0  0  0  0
    7.1205   -0.8285    1.0049 C   0  0  0  0  0  0  0  0  0  0  0  0
    6.4404   -0.4233   -0.1357 C   0  0  0  0  0  0  0  0  0  0  0  0
    7.0828   -0.1899   -1.3216 N   0  0  0  0  0  0  0  0  0  0  0  0
    8.3113   -0.8643   -1.7443 C   0  0  0  0  0  0  0  0  0  0  0  0
    9.4262    0.1708   -1.9392 C   0  0  0  0  0  0  0  0  0  0  0  0
    9.0253    1.1980   -2.8617 O   0  0  0  0  0  0  0  0  0  0  0  0
    7.8515    1.8813   -2.3839 C   0  0  0  0  0  0  0  0  0  0  0  0
    6.6638    0.9184   -2.1875 C   0  0  0  0  0  0  0  0  0  0  0  0
    5.1025   -0.2515   -0.1010 N   0  0  0  0  0  0  0  0  0  0  0  0
    3.7310   -0.1321   -1.2210 H   0  0  0  0  0  0  0  0  0  0  0  0
    0.2773    1.2758   -1.6216 H   0  0  0  0  0  0  0  0  0  0  0  0
   -0.7663    1.5817   -3.8178 H   0  0  0  0  0  0  0  0  0  0  0  0
    0.8969   -1.7063   -5.9458 H   0  0  0  0  0  0  0  0  0  0  0  0
    1.0781   -3.1288   -7.9610 H   0  0  0  0  0  0  0  0  0  0  0  0
   -0.5904    0.9935  -10.8332 H   0  0  0  0  0  0  0  0  0  0  0  0
   -0.9922    0.9642  -13.0044 H   0  0  0  0  0  0  0  0  0  0  0  0
   -2.1904   -0.3873  -14.7405 H   0  0  0  0  0  0  0  0  0  0  0  0
   -1.5488   -1.9264  -14.0133 H   0  0  0  0  0  0  0  0  0  0  0  0
    0.1674    0.3915  -15.1511 H   0  0  0  0  0  0  0  0  0  0  0  0
    0.7994   -1.1492  -14.4190 H   0  0  0  0  0  0  0  0  0  0  0  0
   -0.3360    1.5126   -8.5368 H   0  0  0  0  0  0  0  0  0  0  0  0
    3.8426   -0.2259   -3.5431 H   0  0  0  0  0  0  0  0  0  0  0  0
    2.5470   -0.4438    1.9421 H   0  0  0  0  0  0  0  0  0  0  0  0
    4.4692   -1.1058    3.1069 H   0  0  0  0  0  0  0  0  0  0  0  0
    8.2025   -0.9210    0.9978 H   0  0  0  0  0  0  0  0  0  0  0  0
    8.1072   -1.3554   -2.7039 H   0  0  0  0  0  0  0  0  0  0  0  0
    8.6317   -1.6500   -1.0529 H   0  0  0  0  0  0  0  0  0  0  0  0
   10.3163   -0.3162   -2.3494 H   0  0  0  0  0  0  0  0  0  0  0  0
    9.7052    0.6359   -0.9863 H   0  0  0  0  0  0  0  0  0  0  0  0
    7.5931    2.6474   -3.1216 H   0  0  0  0  0  0  0  0  0  0  0  0
    8.1016    2.3910   -1.4456 H   0  0  0  0  0  0  0  0  0  0  0  0
    6.3668    0.5052   -3.1585 H   0  0  0  0  0  0  0  0  0  0  0  0
    5.8123    1.4805   -1.7875 H   0  0  0  0  0  0  0  0  0  0  0  0
  1  2  2  0  0  0  0
  2  3  1  0  0  0  0
  2 24  1  0  0  0  0
  3  4  1  0  0  0  0
  3 41  1  0  0  0  0
  4  5  1  0  0  0  0
  4 23  2  0  0  0  0
  5  6  2  0  0  0  0
  5 42  1  0  0  0  0
  6  7  1  0  0  0  0
  6 43  1  0  0  0  0
  7  8  1  0  0  0  0
  7 21  2  0  0  0  0
  8  9  1  0  0  0  0
  9 10  1  0  0  0  0
  9 20  2  0  0  0  0
 10 11  2  0  0  0  0
 10 44  1  0  0  0  0
 11 12  1  0  0  0  0
 11 45  1  0  0  0  0
 12 13  2  0  0  0  0
 13 14  1  0  0  0  0
 13 20  1  0  0  0  0
 14 15  1  0  0  0  0
 14 46  1  0  0  0  0
 15 16  2  0  0  0  0
 15 17  1  0  0  0  0
 17 18  1  0  0  0  0
 17 19  1  0  0  0  0
 17 47  1  0  0  0  0
 18 19  1  0  0  0  0
 18 48  1  0  0  0  0
 18 49  1  0  0  0  0
 19 50  1  0  0  0  0
 19 51  1  0  0  0  0
 20 52  1  0  0  0  0
 21 22  1  0  0  0  0
 21 23  1  0  0  0  0
 23 53  1  0  0  0  0
 24 25  1  0  0  0  0
 24 54  1  0  0  0  0
 25 26  1  0  0  0  0
 25 40  2  0  0  0  0
 26 27  2  0  0  0  0
 26 55  1  0  0  0  0
 27 28  1  0  0  0  0
 27 32  1  0  0  0  0
 28 29  1  0  0  0  0
 28 30  1  0  0  0  0
 28 31  1  0  0  0  0
 32 33  2  0  0  0  0
 32 56  1  0  0  0  0
 33 34  1  0  0  0  0
 33 40  1  0  0  0  0
 34 35  1  0  0  0  0
 34 39  1  0  0  0  0
 35 36  1  0  0  0  0
 35 57  1  0  0  0  0
 35 58  1  0  0  0  0
 36 37  1  0  0  0  0
 36 59  1  0  0  0  0
 36 60  1  0  0  0  0
 37 38  1  0  0  0  0
 38 39  1  0  0  0  0
 38 61  1  0  0  0  0
 38 62  1  0  0  0  0
 39 63  1  0  0  0  0
 39 64  1  0  0  0  0
M  END
$$$$
