CHEMBL3948270
 OpenBabel04072215373D

 56 59  0  0  0  0  0  0  0  0999 V2000
    2.5211    1.5415    0.5660 C   0  0  0  0  0  0  0  0  0  0  0  0
    2.1706    0.1644    0.6168 O   0  0  0  0  0  0  0  0  0  0  0  0
    2.9107   -0.6093    1.4760 C   0  0  0  0  0  0  0  0  0  0  0  0
    2.5978   -1.9563    1.4650 C   0  0  0  0  0  0  0  0  0  0  0  0
    3.4313   -2.8386    2.1433 C   0  0  0  0  0  0  0  0  0  0  0  0
    3.2051   -4.1743    2.3137 O   0  0  0  0  0  0  0  0  0  0  0  0
    1.9647   -4.6075    1.7818 C   0  0  0  0  0  0  0  0  0  0  0  0
    4.6422   -2.3843    2.6644 C   0  0  0  0  0  0  0  0  0  0  0  0
    5.0466   -1.0670    2.5193 C   0  0  0  0  0  0  0  0  0  0  0  0
    6.4104   -0.6821    2.6167 N   0  0  0  0  0  0  0  0  0  0  0  0
    6.7992    0.7282    2.0015 C   0  0  0  0  0  0  0  0  0  0  0  0
    6.8861    0.8069    0.4444 C   0  0  0  0  0  0  0  0  0  0  0  0
    7.7302   -0.2252   -0.2413 C   0  0  0  0  0  0  0  0  0  0  0  0
    6.4135    1.7299   -0.3439 N   0  0  0  0  0  0  0  0  0  0  0  0
    5.8158    2.7801    0.3372 O   0  0  0  0  0  0  0  0  0  0  0  0
    7.4992   -1.4301    3.2265 C   0  0  0  0  0  0  0  0  0  0  0  0
    8.3279   -0.6823    4.0021 C   0  0  0  0  0  0  0  0  0  0  0  0
    9.3822   -1.3115    4.5610 C   0  0  0  0  0  0  0  0  0  0  0  0
    9.7460   -2.6251    4.3356 C   0  0  0  0  0  0  0  0  0  0  0  0
   10.9757   -2.5169    4.0129 N   0  0  0  0  0  0  0  0  0  0  0  0
   11.6914   -2.8286    5.0249 C   0  0  0  0  0  0  0  0  0  0  0  0
   11.7414   -4.1081    5.3476 C   0  0  0  0  0  0  0  0  0  0  0  0
   13.2875   -4.1650    6.1469 C   0  0  0  0  0  0  0  0  0  0  0  0
   14.1385   -2.9514    6.6260 C   0  0  0  0  0  0  0  0  0  0  0  0
   15.3184   -3.2145    7.2172 N   0  0  0  0  0  0  0  0  0  0  0  0
   15.3966   -4.5534    7.2072 N   0  0  0  0  0  0  0  0  0  0  0  0
   16.5245   -5.1990    7.9195 C   0  0  0  0  0  0  0  0  0  0  0  0
   14.2563   -5.1239    6.5305 C   0  0  0  0  0  0  0  0  0  0  0  0
   10.4358   -4.7173    4.7006 N   0  0  0  0  0  0  0  0  0  0  0  0
    9.2177   -3.7317    3.9876 C   0  0  0  0  0  0  0  0  0  0  0  0
    7.8553   -2.9481    3.2070 C   0  0  0  0  0  0  0  0  0  0  0  0
    4.0016   -0.1824    2.2392 C   0  0  0  0  0  0  0  0  0  0  0  0
    2.0390    2.0314   -0.2897 H   0  0  0  0  0  0  0  0  0  0  0  0
    3.5960    1.6922    0.4517 H   0  0  0  0  0  0  0  0  0  0  0  0
    2.1450    2.0127    1.4746 H   0  0  0  0  0  0  0  0  0  0  0  0
    1.6853   -2.2730    0.9683 H   0  0  0  0  0  0  0  0  0  0  0  0
    1.8647   -5.6694    1.9976 H   0  0  0  0  0  0  0  0  0  0  0  0
    1.9491   -4.4698    0.6945 H   0  0  0  0  0  0  0  0  0  0  0  0
    1.1343   -4.0744    2.2597 H   0  0  0  0  0  0  0  0  0  0  0  0
    5.2599   -3.0882    3.2009 H   0  0  0  0  0  0  0  0  0  0  0  0
    7.8231    1.0042    2.2947 H   0  0  0  0  0  0  0  0  0  0  0  0
    6.1806    1.5403    2.4036 H   0  0  0  0  0  0  0  0  0  0  0  0
    8.2588   -0.6851    0.5828 H   0  0  0  0  0  0  0  0  0  0  0  0
    8.5237    0.1283   -0.9153 H   0  0  0  0  0  0  0  0  0  0  0  0
    7.0600   -0.8725   -0.8100 H   0  0  0  0  0  0  0  0  0  0  0  0
    5.5805    3.3718   -0.4056 H   0  0  0  0  0  0  0  0  0  0  0  0
    8.3538    0.3917    4.1054 H   0  0  0  0  0  0  0  0  0  0  0  0
   10.1784   -0.7173    4.9784 H   0  0  0  0  0  0  0  0  0  0  0  0
   12.2612   -2.0203    5.4079 H   0  0  0  0  0  0  0  0  0  0  0  0
   13.9496   -1.8727    6.6027 H   0  0  0  0  0  0  0  0  0  0  0  0
   17.2735   -4.4828    8.3163 H   0  0  0  0  0  0  0  0  0  0  0  0
   17.0710   -5.8818    7.2605 H   0  0  0  0  0  0  0  0  0  0  0  0
   16.1501   -5.7527    8.7885 H   0  0  0  0  0  0  0  0  0  0  0  0
   14.2865   -6.1876    6.4463 H   0  0  0  0  0  0  0  0  0  0  0  0
    7.1570   -3.5098    2.5969 H   0  0  0  0  0  0  0  0  0  0  0  0
    4.0377    0.8209    2.6508 H   0  0  0  0  0  0  0  0  0  0  0  0
  1  2  1  0  0  0  0
  1 33  1  0  0  0  0
  1 34  1  0  0  0  0
  1 35  1  0  0  0  0
  2  3  1  0  0  0  0
  3  4  1  0  0  0  0
  3 32  2  0  0  0  0
  4  5  2  0  0  0  0
  4 36  1  0  0  0  0
  5  6  1  0  0  0  0
  5  8  1  0  0  0  0
  6  7  1  0  0  0  0
  7 37  1  0  0  0  0
  7 38  1  0  0  0  0
  7 39  1  0  0  0  0
  8  9  2  0  0  0  0
  8 40  1  0  0  0  0
  9 10  1  0  0  0  0
  9 32  1  0  0  0  0
 10 11  1  0  0  0  0
 10 16  1  0  0  0  0
 11 12  1  0  0  0  0
 11 41  1  0  0  0  0
 11 42  1  0  0  0  0
 12 13  1  0  0  0  0
 12 14  2  0  0  0  0
 13 43  1  0  0  0  0
 13 44  1  0  0  0  0
 13 45  1  0  0  0  0
 14 15  1  0  0  0  0
 15 46  1  0  0  0  0
 16 17  1  0  0  0  0
 16 31  2  0  0  0  0
 17 18  2  0  0  0  0
 17 47  1  0  0  0  0
 18 19  1  0  0  0  0
 18 48  1  0  0  0  0
 19 20  1  0  0  0  0
 19 30  2  0  0  0  0
 20 21  2  0  0  0  0
 21 22  1  0  0  0  0
 21 49  1  0  0  0  0
 22 23  1  0  0  0  0
 22 29  2  0  0  0  0
 23 24  1  0  0  0  0
 23 28  2  0  0  0  0
 24 25  2  0  0  0  0
 24 50  1  0  0  0  0
 25 26  1  0  0  0  0
 26 27  1  0  0  0  0
 26 28  1  0  0  0  0
 27 51  1  0  0  0  0
 27 52  1  0  0  0  0
 27 53  1  0  0  0  0
 28 54  1  0  0  0  0
 29 30  1  0  0  0  0
 30 31  1  0  0  0  0
 31 55  1  0  0  0  0
 32 56  1  0  0  0  0
M  END
$$$$
