CHEMBL425552
 OpenBabel04072215383D

 72 75  0  0  0  0  0  0  0  0999 V2000
    0.8286   -6.3820    1.5001 C   0  0  0  0  0  0  0  0  0  0  0  0
    0.9229   -4.9415    1.2987 N   0  0  0  0  0  0  0  0  0  0  0  0
   -0.3594   -4.3812    0.8399 C   0  0  0  0  0  0  0  0  0  0  0  0
   -0.2522   -2.8542    0.6288 C   0  0  0  0  0  0  0  0  0  0  0  0
    0.1506   -2.0909    1.8305 N   0  0  0  0  0  0  0  0  0  0  0  0
   -0.8854   -2.0593    2.8794 C   0  0  0  0  0  0  0  0  0  0  0  0
   -2.2072   -1.4015    2.4377 C   0  0  0  0  0  0  0  0  0  0  0  0
   -3.2272   -1.3819    3.5774 C   0  0  0  0  0  0  0  0  0  0  0  0
   -3.4945   -2.7576    3.9853 N   0  0  0  0  0  0  0  0  0  0  0  0
   -3.8631   -2.9086    5.3224 C   0  0  0  0  0  0  0  0  0  0  0  0
   -3.5440   -4.1031    5.9561 C   0  0  0  0  0  0  0  0  0  0  0  0
   -3.7015   -4.2214    7.3245 C   0  0  0  0  0  0  0  0  0  0  0  0
   -3.2645   -5.3176    7.9685 N   0  0  0  0  0  0  0  0  0  0  0  0
   -3.3893   -5.3757    9.3180 C   0  0  0  0  0  0  0  0  0  0  0  0
   -2.8383   -6.5193    9.9021 N   0  0  0  0  0  0  0  0  0  0  0  0
   -3.4946   -7.6987   10.1121 C   0  0  0  0  0  0  0  0  0  0  0  0
   -2.8671   -8.6549   10.5592 O   0  0  0  0  0  0  0  0  0  0  0  0
   -4.8159   -7.7429    9.7682 N   0  0  0  0  0  0  0  0  0  0  0  0
   -5.6674   -8.9364    9.8963 C   0  0  0  0  0  0  0  0  0  0  0  0
   -5.8423   -9.3052   11.3771 C   0  0  0  0  0  0  0  0  0  0  0  0
   -7.0487   -8.6004    9.3056 C   0  0  0  0  0  0  0  0  0  0  0  0
   -5.1035  -10.1402    9.1187 C   0  0  0  0  0  0  0  0  0  0  0  0
   -3.9430   -4.3525   10.1109 C   0  0  0  0  0  0  0  0  0  0  0  0
   -4.0143   -4.3481   11.5949 C   0  0  0  0  0  0  0  0  0  0  0  0
   -2.9847   -4.8606   12.4032 C   0  0  0  0  0  0  0  0  0  0  0  0
   -3.0748   -4.8499   13.7974 C   0  0  0  0  0  0  0  0  0  0  0  0
   -4.1865   -4.2942   14.4218 C   0  0  0  0  0  0  0  0  0  0  0  0
   -5.2004   -3.7365   13.6517 C   0  0  0  0  0  0  0  0  0  0  0  0
   -5.1168   -3.7715   12.2572 C   0  0  0  0  0  0  0  0  0  0  0  0
   -4.3963   -3.2293    9.4027 C   0  0  0  0  0  0  0  0  0  0  0  0
   -4.2764   -3.1516    8.0106 C   0  0  0  0  0  0  0  0  0  0  0  0
   -4.6686   -2.0336    7.2851 C   0  0  0  0  0  0  0  0  0  0  0  0
   -4.4590   -1.8907    5.9653 N   0  0  0  0  0  0  0  0  0  0  0  0
    1.3979   -2.7052    2.3553 C   0  0  0  0  0  0  0  0  0  0  0  0
    1.3639   -4.2486    2.5237 C   0  0  0  0  0  0  0  0  0  0  0  0
    0.5283   -6.8805    0.5710 H   0  0  0  0  0  0  0  0  0  0  0  0
    0.1086   -6.6504    2.2816 H   0  0  0  0  0  0  0  0  0  0  0  0
    1.8064   -6.7945    1.7733 H   0  0  0  0  0  0  0  0  0  0  0  0
   -1.1653   -4.6083    1.5498 H   0  0  0  0  0  0  0  0  0  0  0  0
   -0.6391   -4.8381   -0.1165 H   0  0  0  0  0  0  0  0  0  0  0  0
   -1.1877   -2.4712    0.2102 H   0  0  0  0  0  0  0  0  0  0  0  0
    0.4941   -2.6597   -0.1543 H   0  0  0  0  0  0  0  0  0  0  0  0
   -0.4977   -1.4769    3.7253 H   0  0  0  0  0  0  0  0  0  0  0  0
   -1.0798   -3.0659    3.2624 H   0  0  0  0  0  0  0  0  0  0  0  0
   -2.6535   -1.9429    1.5965 H   0  0  0  0  0  0  0  0  0  0  0  0
   -2.0160   -0.3737    2.1072 H   0  0  0  0  0  0  0  0  0  0  0  0
   -4.1539   -0.8982    3.2490 H   0  0  0  0  0  0  0  0  0  0  0  0
   -2.8058   -0.7859    4.3982 H   0  0  0  0  0  0  0  0  0  0  0  0
   -4.1390   -3.2565    3.3794 H   0  0  0  0  0  0  0  0  0  0  0  0
   -3.0703   -4.9048    5.3998 H   0  0  0  0  0  0  0  0  0  0  0  0
   -1.9090   -6.7392    9.5718 H   0  0  0  0  0  0  0  0  0  0  0  0
   -5.0861   -7.0771    9.0587 H   0  0  0  0  0  0  0  0  0  0  0  0
   -6.0935   -8.4213   11.9748 H   0  0  0  0  0  0  0  0  0  0  0  0
   -4.9250   -9.7333   11.7992 H   0  0  0  0  0  0  0  0  0  0  0  0
   -6.6399  -10.0432   11.5140 H   0  0  0  0  0  0  0  0  0  0  0  0
   -7.5162   -7.7660    9.8402 H   0  0  0  0  0  0  0  0  0  0  0  0
   -7.7267   -9.4598    9.3562 H   0  0  0  0  0  0  0  0  0  0  0  0
   -6.9638   -8.3071    8.2521 H   0  0  0  0  0  0  0  0  0  0  0  0
   -4.1467  -10.4835    9.5233 H   0  0  0  0  0  0  0  0  0  0  0  0
   -4.9426   -9.8920    8.0636 H   0  0  0  0  0  0  0  0  0  0  0  0
   -5.7909  -10.9934    9.1638 H   0  0  0  0  0  0  0  0  0  0  0  0
   -2.0817   -5.2783   11.9629 H   0  0  0  0  0  0  0  0  0  0  0  0
   -2.2781   -5.2840   14.3953 H   0  0  0  0  0  0  0  0  0  0  0  0
   -4.2618   -4.2921   15.5053 H   0  0  0  0  0  0  0  0  0  0  0  0
   -6.0616   -3.2790   14.1317 H   0  0  0  0  0  0  0  0  0  0  0  0
   -5.9373   -3.3325   11.6928 H   0  0  0  0  0  0  0  0  0  0  0  0
   -4.7970   -2.3686    9.9374 H   0  0  0  0  0  0  0  0  0  0  0  0
   -5.1473   -1.1810    7.7615 H   0  0  0  0  0  0  0  0  0  0  0  0
    1.6785   -2.2408    3.3092 H   0  0  0  0  0  0  0  0  0  0  0  0
    2.2092   -2.4544    1.6590 H   0  0  0  0  0  0  0  0  0  0  0  0
    0.7101   -4.5091    3.3676 H   0  0  0  0  0  0  0  0  0  0  0  0
    2.3736   -4.5866    2.7846 H   0  0  0  0  0  0  0  0  0  0  0  0
  1  2  1  0  0  0  0
  1 36  1  0  0  0  0
  1 37  1  0  0  0  0
  1 38  1  0  0  0  0
  2  3  1  0  0  0  0
  2 35  1  0  0  0  0
  3  4  1  0  0  0  0
  3 39  1  0  0  0  0
  3 40  1  0  0  0  0
  4  5  1  0  0  0  0
  4 41  1  0  0  0  0
  4 42  1  0  0  0  0
  5  6  1  0  0  0  0
  5 34  1  0  0  0  0
  6  7  1  0  0  0  0
  6 43  1  0  0  0  0
  6 44  1  0  0  0  0
  7  8  1  0  0  0  0
  7 45  1  0  0  0  0
  7 46  1  0  0  0  0
  8  9  1  0  0  0  0
  8 47  1  0  0  0  0
  8 48  1  0  0  0  0
  9 10  1  0  0  0  0
  9 49  1  0  0  0  0
 10 11  1  0  0  0  0
 10 33  2  0  0  0  0
 11 12  2  0  0  0  0
 11 50  1  0  0  0  0
 12 13  1  0  0  0  0
 12 31  1  0  0  0  0
 13 14  2  0  0  0  0
 14 15  1  0  0  0  0
 14 23  1  0  0  0  0
 15 16  1  0  0  0  0
 15 51  1  0  0  0  0
 16 17  2  0  0  0  0
 16 18  1  0  0  0  0
 18 19  1  0  0  0  0
 18 52  1  0  0  0  0
 19 20  1  0  0  0  0
 19 21  1  0  0  0  0
 19 22  1  0  0  0  0
 20 53  1  0  0  0  0
 20 54  1  0  0  0  0
 20 55  1  0  0  0  0
 21 56  1  0  0  0  0
 21 57  1  0  0  0  0
 21 58  1  0  0  0  0
 22 59  1  0  0  0  0
 22 60  1  0  0  0  0
 22 61  1  0  0  0  0
 23 24  1  0  0  0  0
 23 30  2  0  0  0  0
 24 25  1  0  0  0  0
 24 29  2  0  0  0  0
 25 26  2  0  0  0  0
 25 62  1  0  0  0  0
 26 27  1  0  0  0  0
 26 63  1  0  0  0  0
 27 28  2  0  0  0  0
 27 64  1  0  0  0  0
 28 29  1  0  0  0  0
 28 65  1  0  0  0  0
 29 66  1  0  0  0  0
 30 31  1  0  0  0  0
 30 67  1  0  0  0  0
 31 32  2  0  0  0  0
 32 33  1  0  0  0  0
 32 68  1  0  0  0  0
 34 35  1  0  0  0  0
 34 69  1  0  0  0  0
 34 70  1  0  0  0  0
 35 71  1  0  0  0  0
 35 72  1  0  0  0  0
M  END
$$$$
