CHEMBL4090562
 OpenBabel04072215383D

 67 73  0  0  1  0  0  0  0  0999 V2000
    4.8308    2.8853   -1.0486 N   0  0  0  0  0  0  0  0  0  0  0  0
    4.5266    1.5808   -0.9130 C   0  0  0  0  0  0  0  0  0  0  0  0
    5.3072    0.7054   -0.3287 N   0  0  0  0  0  0  0  0  0  0  0  0
    4.6447   -0.4745   -0.4590 C   0  0  0  0  0  0  0  0  0  0  0  0
    5.2389   -1.5638    0.0694 N   0  0  0  0  0  0  0  0  0  0  0  0
    4.9698   -2.9398   -0.0724 C   0  0  0  0  0  0  0  0  0  0  0  0
    4.1575   -3.4557   -1.0791 C   0  0  0  0  0  0  0  0  0  0  0  0
    3.8522   -4.8253   -1.1402 C   0  0  0  0  0  0  0  0  0  0  0  0
    4.3246   -5.7450   -0.1919 C   0  0  0  0  0  0  0  0  0  0  0  0
    3.9747   -7.0963   -0.3107 N   0  0  0  0  0  0  0  0  0  0  0  0
    4.7786   -8.1254    0.3726 C   0  0  0  0  0  0  0  0  0  0  0  0
    4.4041   -9.5413   -0.1508 C   0  0  0  0  0  0  0  0  0  0  0  0
    2.9614   -9.9047   -0.0712 N   0  0  0  0  0  0  0  0  0  0  0  0
    2.5146  -10.1700    1.3045 C   0  0  3  0  0  0  0  0  0  0  0  0
    3.1837  -11.4215    1.9423 C   0  0  0  0  0  0  0  0  0  0  0  0
    1.9973  -12.2243    2.5071 C   0  0  3  0  0  0  0  0  0  0  0  0
    1.2470  -12.8776    1.3344 C   0  0  0  0  0  0  0  0  0  0  0  0
    0.5187  -11.6892    0.6940 C   0  0  0  0  0  0  0  0  0  0  0  0
    1.0027  -10.4892    1.5283 C   0  0  3  0  0  0  0  0  0  0  0  0
    1.0360  -11.1164    2.9276 C   0  0  0  0  0  0  0  0  0  0  0  0
    2.2078   -8.8202   -0.7459 C   0  0  0  0  0  0  0  0  0  0  0  0
    2.5173   -7.3729   -0.2789 C   0  0  0  0  0  0  0  0  0  0  0  0
    5.1597   -5.2280    0.8054 C   0  0  0  0  0  0  0  0  0  0  0  0
    5.4676   -3.8508    0.8707 C   0  0  0  0  0  0  0  0  0  0  0  0
    3.4696   -0.3748   -1.0753 N   0  0  0  0  0  0  0  0  0  0  0  0
    3.3424    0.9530   -1.3309 N   0  0  0  0  0  0  0  0  0  0  0  0
    2.1284    1.5472   -1.8509 C   0  0  0  0  0  0  0  0  0  0  0  0
    2.1446    2.8928   -2.0466 N   0  0  0  0  0  0  0  0  0  0  0  0
    0.9703    3.4714   -2.3318 C   0  0  0  0  0  0  0  0  0  0  0  0
   -0.2113    2.8487   -2.4112 N   0  0  0  0  0  0  0  0  0  0  0  0
   -0.2210    1.5264   -2.2349 C   0  0  0  0  0  0  0  0  0  0  0  0
   -1.4622    0.8879   -2.2585 C   0  0  0  0  0  0  0  0  0  0  0  0
   -1.5948   -0.4881   -2.0831 C   0  0  0  0  0  0  0  0  0  0  0  0
   -0.4568   -1.2606   -1.9598 C   0  0  0  0  0  0  0  0  0  0  0  0
   -0.5745   -2.9649   -1.7704 Cl  0  0  0  0  0  0  0  0  0  0  0  0
    0.7930   -0.6504   -1.9631 C   0  0  0  0  0  0  0  0  0  0  0  0
    0.9438    0.7658   -2.0140 C   0  0  0  0  0  0  0  0  0  0  0  0
    5.7859    3.1464   -0.8194 H   0  0  0  0  0  0  0  0  0  0  0  0
    4.4252    3.4112   -1.8213 H   0  0  0  0  0  0  0  0  0  0  0  0
    6.0812   -1.3671    0.5946 H   0  0  0  0  0  0  0  0  0  0  0  0
    3.7707   -2.8100   -1.8610 H   0  0  0  0  0  0  0  0  0  0  0  0
    3.2522   -5.1742   -1.9765 H   0  0  0  0  0  0  0  0  0  0  0  0
    4.6313   -8.0772    1.4580 H   0  0  0  0  0  0  0  0  0  0  0  0
    5.8442   -7.9645    0.1672 H   0  0  0  0  0  0  0  0  0  0  0  0
    5.0246  -10.2922    0.3501 H   0  0  0  0  0  0  0  0  0  0  0  0
    4.6926   -9.5951   -1.2105 H   0  0  0  0  0  0  0  0  0  0  0  0
    2.7527   -9.3050    1.9380 H   0  0  0  0  0  0  0  0  0  0  0  0
    3.8567  -11.1077    2.7491 H   0  0  0  0  0  0  0  0  0  0  0  0
    3.7657  -12.0234    1.2361 H   0  0  0  0  0  0  0  0  0  0  0  0
    2.2794  -12.9312    3.2902 H   0  0  0  0  0  0  0  0  0  0  0  0
    0.5241  -13.6195    1.6932 H   0  0  0  0  0  0  0  0  0  0  0  0
    1.9192  -13.3746    0.6276 H   0  0  0  0  0  0  0  0  0  0  0  0
   -0.5644  -11.8194    0.8187 H   0  0  0  0  0  0  0  0  0  0  0  0
    0.7219  -11.5975   -0.3756 H   0  0  0  0  0  0  0  0  0  0  0  0
    0.3535   -9.6147    1.4464 H   0  0  0  0  0  0  0  0  0  0  0  0
    0.0618  -11.4930    3.2588 H   0  0  0  0  0  0  0  0  0  0  0  0
    1.4498  -10.4517    3.6928 H   0  0  0  0  0  0  0  0  0  0  0  0
    1.1292   -9.0013   -0.6889 H   0  0  0  0  0  0  0  0  0  0  0  0
    2.4453   -8.8834   -1.8174 H   0  0  0  0  0  0  0  0  0  0  0  0
    2.1334   -7.2187    0.7371 H   0  0  0  0  0  0  0  0  0  0  0  0
    1.9682   -6.6969   -0.9441 H   0  0  0  0  0  0  0  0  0  0  0  0
    5.5713   -5.8727    1.5765 H   0  0  0  0  0  0  0  0  0  0  0  0
    6.0961   -3.5000    1.6865 H   0  0  0  0  0  0  0  0  0  0  0  0
    0.9638    4.5435   -2.4981 H   0  0  0  0  0  0  0  0  0  0  0  0
   -2.3602    1.4908   -2.3911 H   0  0  0  0  0  0  0  0  0  0  0  0
   -2.5808   -0.9434   -2.0505 H   0  0  0  0  0  0  0  0  0  0  0  0
    1.6552   -1.3063   -1.9172 H   0  0  0  0  0  0  0  0  0  0  0  0
  1  2  1  0  0  0  0
  1 38  1  0  0  0  0
  1 39  1  0  0  0  0
  2  3  2  0  0  0  0
  2 26  1  0  0  0  0
  3  4  1  0  0  0  0
  4  5  1  0  0  0  0
  4 25  2  0  0  0  0
  5  6  1  0  0  0  0
  5 40  1  0  0  0  0
  6  7  1  0  0  0  0
  6 24  2  0  0  0  0
  7  8  2  0  0  0  0
  7 41  1  0  0  0  0
  8  9  1  0  0  0  0
  8 42  1  0  0  0  0
  9 10  1  0  0  0  0
  9 23  2  0  0  0  0
 10 11  1  0  0  0  0
 10 22  1  0  0  0  0
 11 12  1  0  0  0  0
 11 43  1  0  0  0  0
 11 44  1  0  0  0  0
 12 13  1  0  0  0  0
 12 45  1  0  0  0  0
 12 46  1  0  0  0  0
 13 14  1  0  0  0  0
 13 21  1  0  0  0  0
 14 15  1  0  0  0  0
 14 19  1  0  0  0  0
 14 47  1  0  0  0  0
 15 16  1  0  0  0  0
 15 48  1  0  0  0  0
 15 49  1  0  0  0  0
 16 17  1  0  0  0  0
 16 20  1  0  0  0  0
 16 50  1  0  0  0  0
 17 18  1  0  0  0  0
 17 51  1  0  0  0  0
 17 52  1  0  0  0  0
 18 19  1  0  0  0  0
 18 53  1  0  0  0  0
 18 54  1  0  0  0  0
 19 20  1  0  0  0  0
 19 55  1  0  0  0  0
 20 56  1  0  0  0  0
 20 57  1  0  0  0  0
 21 22  1  0  0  0  0
 21 58  1  0  0  0  0
 21 59  1  0  0  0  0
 22 60  1  0  0  0  0
 22 61  1  0  0  0  0
 23 24  1  0  0  0  0
 23 62  1  0  0  0  0
 24 63  1  0  0  0  0
 25 26  1  0  0  0  0
 26 27  1  0  0  0  0
 27 28  1  0  0  0  0
 27 37  2  0  0  0  0
 28 29  2  0  0  0  0
 29 30  1  0  0  0  0
 29 64  1  0  0  0  0
 30 31  2  0  0  0  0
 31 32  1  0  0  0  0
 31 37  1  0  0  0  0
 32 33  2  0  0  0  0
 32 65  1  0  0  0  0
 33 34  1  0  0  0  0
 33 66  1  0  0  0  0
 34 35  1  0  0  0  0
 34 36  2  0  0  0  0
 36 37  1  0  0  0  0
 36 67  1  0  0  0  0
M  END
$$$$
