CHEMBL103667
 OpenBabel04072215353D

 76 80  0  0  0  0  0  0  0  0999 V2000
   -0.4225   -5.4249   -2.0240 C   0  0  0  0  0  0  0  0  0  0  0  0
   -1.2569   -4.2567   -1.5856 C   0  0  0  0  0  0  0  0  0  0  0  0
   -1.1754   -3.0273   -2.2510 C   0  0  0  0  0  0  0  0  0  0  0  0
   -1.9717   -1.9505   -1.8541 C   0  0  0  0  0  0  0  0  0  0  0  0
   -2.8198   -2.0800   -0.7504 C   0  0  0  0  0  0  0  0  0  0  0  0
   -3.5745   -0.9572   -0.3249 N   0  0  0  0  0  0  0  0  0  0  0  0
   -3.9857   -0.0139   -1.2094 N   0  0  0  0  0  0  0  0  0  0  0  0
   -4.8567    0.7493   -0.5310 C   0  0  0  0  0  0  0  0  0  0  0  0
   -5.6477    1.8696   -1.2012 C   0  0  0  0  0  0  0  0  0  0  0  0
   -5.3913    1.9395   -2.7216 C   0  0  0  0  0  0  0  0  0  0  0  0
   -7.1616    1.6550   -0.9810 C   0  0  0  0  0  0  0  0  0  0  0  0
   -5.2601    3.2311   -0.5902 C   0  0  0  0  0  0  0  0  0  0  0  0
   -4.8836    0.3852    0.8392 C   0  0  0  0  0  0  0  0  0  0  0  0
   -4.0252   -0.6851    0.9569 C   0  0  0  0  0  0  0  0  0  0  0  0
   -3.6744   -1.3175    2.1557 N   0  0  0  0  0  0  0  0  0  0  0  0
   -4.7261   -1.7755    2.9990 C   0  0  0  0  0  0  0  0  0  0  0  0
   -5.8740   -1.6421    2.6190 O   0  0  0  0  0  0  0  0  0  0  0  0
   -4.2592   -2.3620    4.1522 N   0  0  0  0  0  0  0  0  0  0  0  0
   -5.1342   -2.9284    5.1350 C   0  0  0  0  0  0  0  0  0  0  0  0
   -6.4226   -3.3225    4.7479 C   0  0  0  0  0  0  0  0  0  0  0  0
   -7.3764   -3.7013    5.6812 C   0  0  0  0  0  0  0  0  0  0  0  0
   -7.0433   -3.7873    7.0243 C   0  0  0  0  0  0  0  0  0  0  0  0
   -7.9629   -4.1449    7.9884 O   0  0  0  0  0  0  0  0  0  0  0  0
   -9.0714   -4.9311    7.5291 C   0  0  0  0  0  0  0  0  0  0  0  0
   -9.6153   -5.7548    8.7055 C   0  0  0  0  0  0  0  0  0  0  0  0
  -10.7664   -6.6191    8.3822 N   0  0  0  0  0  0  0  0  0  0  0  0
  -11.1946   -7.3883    9.5772 C   0  0  0  0  0  0  0  0  0  0  0  0
  -10.2589   -8.5614    9.9281 C   0  0  0  0  0  0  0  0  0  0  0  0
  -10.1099   -9.4586    8.8211 O   0  0  0  0  0  0  0  0  0  0  0  0
   -9.6142   -8.7656    7.6703 C   0  0  0  0  0  0  0  0  0  0  0  0
  -10.5309   -7.5905    7.2906 C   0  0  0  0  0  0  0  0  0  0  0  0
   -5.7282   -3.4883    7.4523 C   0  0  0  0  0  0  0  0  0  0  0  0
   -5.3750   -3.6010    8.8103 C   0  0  0  0  0  0  0  0  0  0  0  0
   -4.0866   -3.3245    9.2626 C   0  0  0  0  0  0  0  0  0  0  0  0
   -3.1171   -2.9369    8.3483 C   0  0  0  0  0  0  0  0  0  0  0  0
   -3.4401   -2.8094    6.9964 C   0  0  0  0  0  0  0  0  0  0  0  0
   -4.7438   -3.0714    6.4998 C   0  0  0  0  0  0  0  0  0  0  0  0
   -2.9263   -3.3148   -0.0940 C   0  0  0  0  0  0  0  0  0  0  0  0
   -2.1545   -4.3988   -0.5209 C   0  0  0  0  0  0  0  0  0  0  0  0
    0.2842   -5.1405   -2.8105 H   0  0  0  0  0  0  0  0  0  0  0  0
   -1.0640   -6.2209   -2.4149 H   0  0  0  0  0  0  0  0  0  0  0  0
    0.1581   -5.8115   -1.1799 H   0  0  0  0  0  0  0  0  0  0  0  0
   -0.4913   -2.8982   -3.0874 H   0  0  0  0  0  0  0  0  0  0  0  0
   -1.8935   -1.0075   -2.3940 H   0  0  0  0  0  0  0  0  0  0  0  0
   -5.7012    1.0155   -3.2239 H   0  0  0  0  0  0  0  0  0  0  0  0
   -4.3287    2.0973   -2.9410 H   0  0  0  0  0  0  0  0  0  0  0  0
   -5.9465    2.7661   -3.1807 H   0  0  0  0  0  0  0  0  0  0  0  0
   -7.5012    0.7136   -1.4281 H   0  0  0  0  0  0  0  0  0  0  0  0
   -7.7474    2.4678   -1.4267 H   0  0  0  0  0  0  0  0  0  0  0  0
   -7.4134    1.6205    0.0856 H   0  0  0  0  0  0  0  0  0  0  0  0
   -4.1919    3.4366   -0.7246 H   0  0  0  0  0  0  0  0  0  0  0  0
   -5.4705    3.2651    0.4850 H   0  0  0  0  0  0  0  0  0  0  0  0
   -5.8204    4.0489   -1.0583 H   0  0  0  0  0  0  0  0  0  0  0  0
   -5.4357    0.8705    1.6304 H   0  0  0  0  0  0  0  0  0  0  0  0
   -2.7170   -1.6101    2.2829 H   0  0  0  0  0  0  0  0  0  0  0  0
   -3.3079   -2.1818    4.4282 H   0  0  0  0  0  0  0  0  0  0  0  0
   -6.7432   -3.3361    3.7105 H   0  0  0  0  0  0  0  0  0  0  0  0
   -8.3775   -3.9109    5.3157 H   0  0  0  0  0  0  0  0  0  0  0  0
   -8.7312   -5.6208    6.7502 H   0  0  0  0  0  0  0  0  0  0  0  0
   -9.8487   -4.2684    7.1360 H   0  0  0  0  0  0  0  0  0  0  0  0
   -9.9264   -5.0404    9.4825 H   0  0  0  0  0  0  0  0  0  0  0  0
   -8.7846   -6.3178    9.1426 H   0  0  0  0  0  0  0  0  0  0  0  0
  -12.1916   -7.7947    9.3626 H   0  0  0  0  0  0  0  0  0  0  0  0
  -11.3132   -6.7250   10.4415 H   0  0  0  0  0  0  0  0  0  0  0  0
  -10.6798   -9.1333   10.7609 H   0  0  0  0  0  0  0  0  0  0  0  0
   -9.2677   -8.2141   10.2401 H   0  0  0  0  0  0  0  0  0  0  0  0
   -9.5821   -9.4850    6.8453 H   0  0  0  0  0  0  0  0  0  0  0  0
   -8.5868   -8.4351    7.8603 H   0  0  0  0  0  0  0  0  0  0  0  0
  -11.5104   -8.0020    7.0142 H   0  0  0  0  0  0  0  0  0  0  0  0
  -10.1644   -7.1011    6.3832 H   0  0  0  0  0  0  0  0  0  0  0  0
   -6.1200   -3.9043    9.5515 H   0  0  0  0  0  0  0  0  0  0  0  0
   -3.8494   -3.4242   10.3170 H   0  0  0  0  0  0  0  0  0  0  0  0
   -2.1083   -2.7310    8.7000 H   0  0  0  0  0  0  0  0  0  0  0  0
   -2.6307   -2.5103    6.3344 H   0  0  0  0  0  0  0  0  0  0  0  0
   -3.6511   -3.4878    0.6963 H   0  0  0  0  0  0  0  0  0  0  0  0
   -2.2667   -5.3661   -0.0329 H   0  0  0  0  0  0  0  0  0  0  0  0
  1  2  1  0  0  0  0
  1 40  1  0  0  0  0
  1 41  1  0  0  0  0
  1 42  1  0  0  0  0
  2  3  1  0  0  0  0
  2 39  2  0  0  0  0
  3  4  2  0  0  0  0
  3 43  1  0  0  0  0
  4  5  1  0  0  0  0
  4 44  1  0  0  0  0
  5  6  1  0  0  0  0
  5 38  2  0  0  0  0
  6  7  1  0  0  0  0
  6 14  1  0  0  0  0
  7  8  2  0  0  0  0
  8  9  1  0  0  0  0
  8 13  1  0  0  0  0
  9 10  1  0  0  0  0
  9 11  1  0  0  0  0
  9 12  1  0  0  0  0
 10 45  1  0  0  0  0
 10 46  1  0  0  0  0
 10 47  1  0  0  0  0
 11 48  1  0  0  0  0
 11 49  1  0  0  0  0
 11 50  1  0  0  0  0
 12 51  1  0  0  0  0
 12 52  1  0  0  0  0
 12 53  1  0  0  0  0
 13 14  2  0  0  0  0
 13 54  1  0  0  0  0
 14 15  1  0  0  0  0
 15 16  1  0  0  0  0
 15 55  1  0  0  0  0
 16 17  2  0  0  0  0
 16 18  1  0  0  0  0
 18 19  1  0  0  0  0
 18 56  1  0  0  0  0
 19 20  1  0  0  0  0
 19 37  2  0  0  0  0
 20 21  2  0  0  0  0
 20 57  1  0  0  0  0
 21 22  1  0  0  0  0
 21 58  1  0  0  0  0
 22 23  1  0  0  0  0
 22 32  2  0  0  0  0
 23 24  1  0  0  0  0
 24 25  1  0  0  0  0
 24 59  1  0  0  0  0
 24 60  1  0  0  0  0
 25 26  1  0  0  0  0
 25 61  1  0  0  0  0
 25 62  1  0  0  0  0
 26 27  1  0  0  0  0
 26 31  1  0  0  0  0
 27 28  1  0  0  0  0
 27 63  1  0  0  0  0
 27 64  1  0  0  0  0
 28 29  1  0  0  0  0
 28 65  1  0  0  0  0
 28 66  1  0  0  0  0
 29 30  1  0  0  0  0
 30 31  1  0  0  0  0
 30 67  1  0  0  0  0
 30 68  1  0  0  0  0
 31 69  1  0  0  0  0
 31 70  1  0  0  0  0
 32 33  1  0  0  0  0
 32 37  1  0  0  0  0
 33 34  2  0  0  0  0
 33 71  1  0  0  0  0
 34 35  1  0  0  0  0
 34 72  1  0  0  0  0
 35 36  2  0  0  0  0
 35 73  1  0  0  0  0
 36 37  1  0  0  0  0
 36 74  1  0  0  0  0
 38 39  1  0  0  0  0
 38 75  1  0  0  0  0
 39 76  1  0  0  0  0
M  END
$$$$
