CHEMBL1945803
 OpenBabel04072215363D

 53 56  0  0  0  0  0  0  0  0999 V2000
    2.7390    2.9486   -2.1165 C   0  0  0  0  0  0  0  0  0  0  0  0
    2.3206    2.7851   -0.7222 N   0  0  0  0  0  0  0  0  0  0  0  0
    0.8584    2.7239   -0.6500 C   0  0  0  0  0  0  0  0  0  0  0  0
    2.9038    1.5862   -0.0980 C   0  0  0  0  0  0  0  0  0  0  0  0
    4.4334    1.6084   -0.0037 C   0  0  0  0  0  0  0  0  0  0  0  0
    4.9676    2.8235    0.7654 C   0  0  0  0  0  0  0  0  0  0  0  0
    6.4722    2.8399    0.7828 C   0  0  0  0  0  0  0  0  0  0  0  0
    7.1885    3.0002   -0.3985 C   0  0  0  0  0  0  0  0  0  0  0  0
    8.5311    2.9942   -0.4722 N   0  0  0  0  0  0  0  0  0  0  0  0
    9.1967    2.8035    0.6939 C   0  0  0  0  0  0  0  0  0  0  0  0
    8.6008    2.6135    1.9418 C   0  0  0  0  0  0  0  0  0  0  0  0
    9.3091    2.3986    3.1358 N   0  0  0  0  0  0  0  0  0  0  0  0
   10.5821    1.8450    3.3033 C   0  0  0  0  0  0  0  0  0  0  0  0
   10.7871    1.2199    4.4722 N   0  0  0  0  0  0  0  0  0  0  0  0
   11.9513    0.5585    4.6072 C   0  0  0  0  0  0  0  0  0  0  0  0
   12.9163    0.5009    3.6355 C   0  0  0  0  0  0  0  0  0  0  0  0
   12.6473    1.2000    2.4809 C   0  0  0  0  0  0  0  0  0  0  0  0
   11.4910    1.8869    2.3216 N   0  0  0  0  0  0  0  0  0  0  0  0
   13.5815    1.2359    1.3397 C   0  0  0  0  0  0  0  0  0  0  0  0
   13.8537    2.4608    0.6948 C   0  0  0  0  0  0  0  0  0  0  0  0
   14.7489    2.5388   -0.3768 C   0  0  0  0  0  0  0  0  0  0  0  0
   15.3376    1.3806   -0.8679 C   0  0  0  0  0  0  0  0  0  0  0  0
   16.4859    1.4712   -2.1455 Cl  0  0  0  0  0  0  0  0  0  0  0  0
   15.0456    0.1481   -0.2945 C   0  0  0  0  0  0  0  0  0  0  0  0
   14.2240    0.0783    0.8394 C   0  0  0  0  0  0  0  0  0  0  0  0
   14.1504   -1.1931    1.4477 N   0  0  0  0  0  0  0  0  0  0  0  0
   14.2090   -1.4407    2.7930 C   0  0  0  0  0  0  0  0  0  0  0  0
   14.4580   -3.0171    3.3043 S   0  0  0  0  0  0  0  0  0  0  0  0
   14.1741   -0.2903    3.7796 C   0  0  0  0  0  0  0  0  0  0  0  0
    7.2013    2.6762    1.9672 C   0  0  0  0  0  0  0  0  0  0  0  0
    2.2740    3.8392   -2.5541 H   0  0  0  0  0  0  0  0  0  0  0  0
    2.4735    2.0820   -2.7325 H   0  0  0  0  0  0  0  0  0  0  0  0
    3.8185    3.1129   -2.1922 H   0  0  0  0  0  0  0  0  0  0  0  0
    0.4111    3.6187   -1.0972 H   0  0  0  0  0  0  0  0  0  0  0  0
    0.5262    2.6972    0.3936 H   0  0  0  0  0  0  0  0  0  0  0  0
    0.4567    1.8435   -1.1650 H   0  0  0  0  0  0  0  0  0  0  0  0
    2.5974    0.6819   -0.6402 H   0  0  0  0  0  0  0  0  0  0  0  0
    2.5141    1.4884    0.9237 H   0  0  0  0  0  0  0  0  0  0  0  0
    4.8638    1.5626   -1.0112 H   0  0  0  0  0  0  0  0  0  0  0  0
    4.7667    0.6895    0.4963 H   0  0  0  0  0  0  0  0  0  0  0  0
    4.5761    2.8068    1.7901 H   0  0  0  0  0  0  0  0  0  0  0  0
    4.6223    3.7626    0.3167 H   0  0  0  0  0  0  0  0  0  0  0  0
    6.6843    3.1344   -1.3518 H   0  0  0  0  0  0  0  0  0  0  0  0
   10.2739    2.8138    0.5701 H   0  0  0  0  0  0  0  0  0  0  0  0
    8.7515    2.1320    3.9348 H   0  0  0  0  0  0  0  0  0  0  0  0
   12.0619    0.0448    5.5560 H   0  0  0  0  0  0  0  0  0  0  0  0
   13.3788    3.3755    1.0491 H   0  0  0  0  0  0  0  0  0  0  0  0
   14.9823    3.5050   -0.8168 H   0  0  0  0  0  0  0  0  0  0  0  0
   15.5300   -0.7457   -0.6801 H   0  0  0  0  0  0  0  0  0  0  0  0
   14.3709   -2.0024    0.8730 H   0  0  0  0  0  0  0  0  0  0  0  0
   15.0428    0.3573    3.6034 H   0  0  0  0  0  0  0  0  0  0  0  0
   14.2757   -0.6540    4.8094 H   0  0  0  0  0  0  0  0  0  0  0  0
    6.6701    2.5668    2.9093 H   0  0  0  0  0  0  0  0  0  0  0  0
  1  2  1  0  0  0  0
  1 31  1  0  0  0  0
  1 32  1  0  0  0  0
  1 33  1  0  0  0  0
  2  3  1  0  0  0  0
  2  4  1  0  0  0  0
  3 34  1  0  0  0  0
  3 35  1  0  0  0  0
  3 36  1  0  0  0  0
  4  5  1  0  0  0  0
  4 37  1  0  0  0  0
  4 38  1  0  0  0  0
  5  6  1  0  0  0  0
  5 39  1  0  0  0  0
  5 40  1  0  0  0  0
  6  7  1  0  0  0  0
  6 41  1  0  0  0  0
  6 42  1  0  0  0  0
  7  8  1  0  0  0  0
  7 30  2  0  0  0  0
  8  9  2  0  0  0  0
  8 43  1  0  0  0  0
  9 10  1  0  0  0  0
 10 11  2  0  0  0  0
 10 44  1  0  0  0  0
 11 12  1  0  0  0  0
 11 30  1  0  0  0  0
 12 13  1  0  0  0  0
 12 45  1  0  0  0  0
 13 14  1  0  0  0  0
 13 18  2  0  0  0  0
 14 15  2  0  0  0  0
 15 16  1  0  0  0  0
 15 46  1  0  0  0  0
 16 17  2  0  0  0  0
 16 29  1  0  0  0  0
 17 18  1  0  0  0  0
 17 19  1  0  0  0  0
 19 20  1  0  0  0  0
 19 25  2  0  0  0  0
 20 21  2  0  0  0  0
 20 47  1  0  0  0  0
 21 22  1  0  0  0  0
 21 48  1  0  0  0  0
 22 23  1  0  0  0  0
 22 24  2  0  0  0  0
 24 25  1  0  0  0  0
 24 49  1  0  0  0  0
 25 26  1  0  0  0  0
 26 27  1  0  0  0  0
 26 50  1  0  0  0  0
 27 28  2  0  0  0  0
 27 29  1  0  0  0  0
 29 51  1  0  0  0  0
 29 52  1  0  0  0  0
 30 53  1  0  0  0  0
M  END
$$$$
