CHEMBL3962623
 OpenBabel04072215373D

 55 59  0  0  1  0  0  0  0  0999 V2000
  -19.2297    4.2339   -8.7412 C   0  0  0  0  0  0  0  0  0  0  0  0
  -17.7546    4.4679   -8.9428 C   0  0  0  0  0  0  0  0  0  0  0  0
  -17.1367    5.5223   -8.2697 C   0  0  0  0  0  0  0  0  0  0  0  0
  -15.7672    5.7482   -8.4370 C   0  0  0  0  0  0  0  0  0  0  0  0
  -14.9588    4.9135   -9.2219 C   0  0  0  0  0  0  0  0  0  0  0  0
  -13.5338    5.1033   -9.2887 N   0  0  0  0  0  0  0  0  0  0  0  0
  -12.8512    5.7130   -8.2436 C   0  0  0  0  0  0  0  0  0  0  0  0
  -13.3980    5.9380   -7.1703 O   0  0  0  0  0  0  0  0  0  0  0  0
  -11.5291    6.0600   -8.5144 N   0  0  0  0  0  0  0  0  0  0  0  0
  -10.7331    6.8248   -7.5913 C   0  0  0  0  0  0  0  0  0  0  0  0
  -11.0976    6.9828   -6.2504 C   0  0  0  0  0  0  0  0  0  0  0  0
  -10.4322    7.8448   -5.3816 C   0  0  0  0  0  0  0  0  0  0  0  0
   -9.3086    8.5512   -5.7996 C   0  0  0  0  0  0  0  0  0  0  0  0
   -8.6251    9.4353   -4.7606 C   0  0  3  0  0  0  0  0  0  0  0  0
   -7.1526    9.7607   -5.0677 C   0  0  0  0  0  0  0  0  0  0  0  0
   -7.0271   11.0329   -5.8143 N   0  0  0  0  0  0  0  0  0  0  0  0
   -7.6376   12.0078   -5.2181 C   0  0  0  0  0  0  0  0  0  0  0  0
   -7.6955   13.3652   -5.6985 C   0  0  0  0  0  0  0  0  0  0  0  0
   -8.2112   13.6183   -6.9605 C   0  0  0  0  0  0  0  0  0  0  0  0
   -8.4599   14.9370   -7.3134 C   0  0  0  0  0  0  0  0  0  0  0  0
   -8.0850   15.9689   -6.4442 C   0  0  0  0  0  0  0  0  0  0  0  0
   -7.6653   15.6877   -5.1360 C   0  0  0  0  0  0  0  0  0  0  0  0
   -7.6404   14.3592   -4.7365 C   0  0  0  0  0  0  0  0  0  0  0  0
   -7.9010   13.9650   -3.3989 N   0  0  0  0  0  0  0  0  0  0  0  0
   -8.6349   12.7956   -3.1748 C   0  0  0  0  0  0  0  0  0  0  0  0
   -9.3744   12.6888   -2.2063 O   0  0  0  0  0  0  0  0  0  0  0  0
   -8.4645   11.8089   -4.1465 N   0  0  0  0  0  0  0  0  0  0  0  0
   -9.3978   10.7381   -4.4477 C   0  0  0  0  0  0  0  0  0  0  0  0
   -8.8740    8.3404   -7.1235 C   0  0  0  0  0  0  0  0  0  0  0  0
   -9.5694    7.4794   -8.0086 C   0  0  0  0  0  0  0  0  0  0  0  0
  -15.5879    3.8816   -9.9197 C   0  0  0  0  0  0  0  0  0  0  0  0
  -16.9784    3.6622   -9.7712 C   0  0  0  0  0  0  0  0  0  0  0  0
  -19.6538    4.9463   -8.0215 H   0  0  0  0  0  0  0  0  0  0  0  0
  -19.4114    3.2286   -8.3462 H   0  0  0  0  0  0  0  0  0  0  0  0
  -19.7646    4.3616   -9.6850 H   0  0  0  0  0  0  0  0  0  0  0  0
  -17.6960    6.1752   -7.6073 H   0  0  0  0  0  0  0  0  0  0  0  0
  -15.3565    6.6054   -7.9112 H   0  0  0  0  0  0  0  0  0  0  0  0
  -13.0082    4.4974   -9.8965 H   0  0  0  0  0  0  0  0  0  0  0  0
  -11.2144    6.0165   -9.4728 H   0  0  0  0  0  0  0  0  0  0  0  0
  -11.9263    6.4400   -5.8066 H   0  0  0  0  0  0  0  0  0  0  0  0
  -10.8129    7.9479   -4.3672 H   0  0  0  0  0  0  0  0  0  0  0  0
   -8.6106    8.8546   -3.8266 H   0  0  0  0  0  0  0  0  0  0  0  0
   -6.5887    9.8327   -4.1220 H   0  0  0  0  0  0  0  0  0  0  0  0
   -6.6608    8.9608   -5.6303 H   0  0  0  0  0  0  0  0  0  0  0  0
   -8.5326   12.7908   -7.5896 H   0  0  0  0  0  0  0  0  0  0  0  0
   -8.9647   15.1545   -8.2500 H   0  0  0  0  0  0  0  0  0  0  0  0
   -8.2100   17.0014   -6.7643 H   0  0  0  0  0  0  0  0  0  0  0  0
   -7.4902   16.5007   -4.4409 H   0  0  0  0  0  0  0  0  0  0  0  0
   -8.0437   14.6966   -2.7010 H   0  0  0  0  0  0  0  0  0  0  0  0
   -9.9196   11.0621   -5.3707 H   0  0  0  0  0  0  0  0  0  0  0  0
  -10.1778   10.6360   -3.6917 H   0  0  0  0  0  0  0  0  0  0  0  0
   -7.9840    8.8480   -7.4962 H   0  0  0  0  0  0  0  0  0  0  0  0
   -9.1879    7.3539   -9.0178 H   0  0  0  0  0  0  0  0  0  0  0  0
  -15.0228    3.2081  -10.5613 H   0  0  0  0  0  0  0  0  0  0  0  0
  -17.4451    2.8360  -10.3106 H   0  0  0  0  0  0  0  0  0  0  0  0
  1  2  1  0  0  0  0
  1 33  1  0  0  0  0
  1 34  1  0  0  0  0
  1 35  1  0  0  0  0
  2  3  1  0  0  0  0
  2 32  2  0  0  0  0
  3  4  2  0  0  0  0
  3 36  1  0  0  0  0
  4  5  1  0  0  0  0
  4 37  1  0  0  0  0
  5  6  1  0  0  0  0
  5 31  2  0  0  0  0
  6  7  1  0  0  0  0
  6 38  1  0  0  0  0
  7  8  2  0  0  0  0
  7  9  1  0  0  0  0
  9 10  1  0  0  0  0
  9 39  1  0  0  0  0
 10 11  1  0  0  0  0
 10 30  2  0  0  0  0
 11 12  2  0  0  0  0
 11 40  1  0  0  0  0
 12 13  1  0  0  0  0
 12 41  1  0  0  0  0
 13 14  1  0  0  0  0
 13 29  2  0  0  0  0
 14 15  1  0  0  0  0
 14 28  1  0  0  0  0
 14 42  1  0  0  0  0
 15 16  1  0  0  0  0
 15 43  1  0  0  0  0
 15 44  1  0  0  0  0
 16 17  2  0  0  0  0
 17 18  1  0  0  0  0
 17 27  1  0  0  0  0
 18 19  1  0  0  0  0
 18 23  2  0  0  0  0
 19 20  2  0  0  0  0
 19 45  1  0  0  0  0
 20 21  1  0  0  0  0
 20 46  1  0  0  0  0
 21 22  2  0  0  0  0
 21 47  1  0  0  0  0
 22 23  1  0  0  0  0
 22 48  1  0  0  0  0
 23 24  1  0  0  0  0
 24 25  1  0  0  0  0
 24 49  1  0  0  0  0
 25 26  2  0  0  0  0
 25 27  1  0  0  0  0
 27 28  1  0  0  0  0
 28 50  1  0  0  0  0
 28 51  1  0  0  0  0
 29 30  1  0  0  0  0
 29 52  1  0  0  0  0
 30 53  1  0  0  0  0
 31 32  1  0  0  0  0
 31 54  1  0  0  0  0
 32 55  1  0  0  0  0
M  END
$$$$
