CHEMBL1990885
 OpenBabel04072215363D

 56 58  0  0  0  0  0  0  0  0999 V2000
    4.7149    1.5379    2.1318 C   0  0  0  0  0  0  0  0  0  0  0  0
    4.3380    1.6157    0.6557 C   0  0  0  0  0  0  0  0  0  0  0  0
    4.7351    0.4466   -0.1504 N   0  0  0  0  0  0  0  0  0  0  0  0
    4.2371   -0.8372    0.3830 C   0  0  0  0  0  0  0  0  0  0  0  0
    2.7225   -1.0429    0.3790 C   0  0  0  0  0  0  0  0  0  0  0  0
    4.3509    0.6139   -1.5726 C   0  0  0  0  0  0  0  0  0  0  0  0
    4.9403    1.8492   -2.2787 C   0  0  0  0  0  0  0  0  0  0  0  0
    6.3869    1.8739   -2.2921 N   0  0  0  0  0  0  0  0  0  0  0  0
    7.0491    2.9207   -2.8955 C   0  0  0  0  0  0  0  0  0  0  0  0
    6.4455    3.8477   -3.4296 O   0  0  0  0  0  0  0  0  0  0  0  0
    8.5149    2.8833   -2.8220 C   0  0  0  0  0  0  0  0  0  0  0  0
    9.3482    1.7705   -2.8086 C   0  0  0  0  0  0  0  0  0  0  0  0
    9.1004    0.3054   -2.8850 C   0  0  0  0  0  0  0  0  0  0  0  0
   10.6481    2.2212   -2.7724 N   0  0  0  0  0  0  0  0  0  0  0  0
   10.7000    3.5896   -2.8066 C   0  0  0  0  0  0  0  0  0  0  0  0
   11.9262    4.3060   -2.8196 C   0  0  0  0  0  0  0  0  0  0  0  0
   13.1920    3.8605   -2.8046 C   0  0  0  0  0  0  0  0  0  0  0  0
   13.7604    2.4617   -2.7669 C   0  0  0  0  0  0  0  0  0  0  0  0
   13.1607    1.4050   -2.7467 O   0  0  0  0  0  0  0  0  0  0  0  0
   15.1388    2.6281   -2.7576 N   0  0  0  0  0  0  0  0  0  0  0  0
   15.4922    3.9703   -2.7856 C   0  0  0  0  0  0  0  0  0  0  0  0
   16.7715    4.4929   -2.7820 C   0  0  0  0  0  0  0  0  0  0  0  0
   16.8933    5.8853   -2.8130 C   0  0  0  0  0  0  0  0  0  0  0  0
   15.7503    6.6946   -2.8464 C   0  0  0  0  0  0  0  0  0  0  0  0
   15.8952    8.0262   -2.8744 F   0  0  0  0  0  0  0  0  0  0  0  0
   14.4659    6.1541   -2.8493 C   0  0  0  0  0  0  0  0  0  0  0  0
   14.3492    4.7746   -2.8173 C   0  0  0  0  0  0  0  0  0  0  0  0
    9.3834    4.0383   -2.8328 C   0  0  0  0  0  0  0  0  0  0  0  0
    8.9169    5.4585   -2.8727 C   0  0  0  0  0  0  0  0  0  0  0  0
    4.6049    2.5265    2.5911 H   0  0  0  0  0  0  0  0  0  0  0  0
    5.7563    1.2261    2.2618 H   0  0  0  0  0  0  0  0  0  0  0  0
    4.0669    0.8478    2.6803 H   0  0  0  0  0  0  0  0  0  0  0  0
    4.8552    2.5012    0.2720 H   0  0  0  0  0  0  0  0  0  0  0  0
    3.2632    1.8132    0.5668 H   0  0  0  0  0  0  0  0  0  0  0  0
    4.6105   -0.9798    1.4036 H   0  0  0  0  0  0  0  0  0  0  0  0
    4.6953   -1.6559   -0.1878 H   0  0  0  0  0  0  0  0  0  0  0  0
    2.1832   -0.1842    0.7879 H   0  0  0  0  0  0  0  0  0  0  0  0
    2.4638   -1.9125    0.9929 H   0  0  0  0  0  0  0  0  0  0  0  0
    2.3510   -1.2354   -0.6327 H   0  0  0  0  0  0  0  0  0  0  0  0
    3.2598    0.6655   -1.6706 H   0  0  0  0  0  0  0  0  0  0  0  0
    4.6854   -0.2722   -2.1282 H   0  0  0  0  0  0  0  0  0  0  0  0
    4.5819    2.7801   -1.8265 H   0  0  0  0  0  0  0  0  0  0  0  0
    4.6013    1.8643   -3.3214 H   0  0  0  0  0  0  0  0  0  0  0  0
    6.8856    1.3194   -1.6076 H   0  0  0  0  0  0  0  0  0  0  0  0
    8.0451    0.0582   -3.0114 H   0  0  0  0  0  0  0  0  0  0  0  0
    9.4608   -0.1873   -1.9762 H   0  0  0  0  0  0  0  0  0  0  0  0
    9.6341   -0.1226   -3.7407 H   0  0  0  0  0  0  0  0  0  0  0  0
   11.4581    1.6074   -2.7655 H   0  0  0  0  0  0  0  0  0  0  0  0
   11.7959    5.3870   -2.8485 H   0  0  0  0  0  0  0  0  0  0  0  0
   15.7780    1.8468   -2.7319 H   0  0  0  0  0  0  0  0  0  0  0  0
   17.6506    3.8585   -2.7559 H   0  0  0  0  0  0  0  0  0  0  0  0
   17.8727    6.3547   -2.8103 H   0  0  0  0  0  0  0  0  0  0  0  0
   13.6071    6.8141   -2.8751 H   0  0  0  0  0  0  0  0  0  0  0  0
    9.7463    6.1706   -2.8633 H   0  0  0  0  0  0  0  0  0  0  0  0
    8.2895    5.6752   -2.0022 H   0  0  0  0  0  0  0  0  0  0  0  0
    8.3381    5.6482   -3.7818 H   0  0  0  0  0  0  0  0  0  0  0  0
  1  2  1  0  0  0  0
  1 30  1  0  0  0  0
  1 31  1  0  0  0  0
  1 32  1  0  0  0  0
  2  3  1  0  0  0  0
  2 33  1  0  0  0  0
  2 34  1  0  0  0  0
  3  4  1  0  0  0  0
  3  6  1  0  0  0  0
  4  5  1  0  0  0  0
  4 35  1  0  0  0  0
  4 36  1  0  0  0  0
  5 37  1  0  0  0  0
  5 38  1  0  0  0  0
  5 39  1  0  0  0  0
  6  7  1  0  0  0  0
  6 40  1  0  0  0  0
  6 41  1  0  0  0  0
  7  8  1  0  0  0  0
  7 42  1  0  0  0  0
  7 43  1  0  0  0  0
  8  9  1  0  0  0  0
  8 44  1  0  0  0  0
  9 10  2  0  0  0  0
  9 11  1  0  0  0  0
 11 12  2  0  0  0  0
 11 28  1  0  0  0  0
 12 13  1  0  0  0  0
 12 14  1  0  0  0  0
 13 45  1  0  0  0  0
 13 46  1  0  0  0  0
 13 47  1  0  0  0  0
 14 15  1  0  0  0  0
 14 48  1  0  0  0  0
 15 16  1  0  0  0  0
 15 28  2  0  0  0  0
 16 17  2  3  0  0  0
 16 49  1  0  0  0  0
 17 18  1  0  0  0  0
 17 27  1  0  0  0  0
 18 19  2  0  0  0  0
 18 20  1  0  0  0  0
 20 21  1  0  0  0  0
 20 50  1  0  0  0  0
 21 22  1  0  0  0  0
 21 27  2  0  0  0  0
 22 23  2  0  0  0  0
 22 51  1  0  0  0  0
 23 24  1  0  0  0  0
 23 52  1  0  0  0  0
 24 25  1  0  0  0  0
 24 26  2  0  0  0  0
 26 27  1  0  0  0  0
 26 53  1  0  0  0  0
 28 29  1  0  0  0  0
 29 54  1  0  0  0  0
 29 55  1  0  0  0  0
 29 56  1  0  0  0  0
M  END
$$$$
