CHEMBL3657548
 OpenBabel04072215373D

 58 63  0  0  0  0  0  0  0  0999 V2000
    2.3274   -0.9714   -1.4997 C   0  0  0  0  0  0  0  0  0  0  0  0
    2.8803    0.1375   -0.6753 C   0  0  0  0  0  0  0  0  0  0  0  0
    4.1784    0.4533   -0.7500 N   0  0  0  0  0  0  0  0  0  0  0  0
    4.3708    1.3725    0.2344 N   0  0  0  0  0  0  0  0  0  0  0  0
    5.6429    2.0085    0.4472 C   0  0  0  0  0  0  0  0  0  0  0  0
    6.5827    1.8951   -0.5515 C   0  0  0  0  0  0  0  0  0  0  0  0
    7.7555    2.5730   -0.3398 C   0  0  0  0  0  0  0  0  0  0  0  0
    8.0220    3.2696    0.7764 N   0  0  0  0  0  0  0  0  0  0  0  0
    7.0817    3.3074    1.7264 C   0  0  0  0  0  0  0  0  0  0  0  0
    7.2952    3.9690    2.9256 N   0  0  0  0  0  0  0  0  0  0  0  0
    8.2114    4.9631    3.3352 C   0  0  0  0  0  0  0  0  0  0  0  0
    9.3938    5.3115    2.6767 C   0  0  0  0  0  0  0  0  0  0  0  0
   10.1982    6.3986    3.0932 C   0  0  0  0  0  0  0  0  0  0  0  0
    9.7455    7.1848    4.1650 C   0  0  0  0  0  0  0  0  0  0  0  0
    8.6013    6.8267    4.8802 C   0  0  0  0  0  0  0  0  0  0  0  0
    7.9028    5.6585    4.5086 C   0  0  0  0  0  0  0  0  0  0  0  0
    8.3651    7.8303    5.8641 C   0  0  0  0  0  0  0  0  0  0  0  0
    7.2163    7.8380    6.8322 C   0  0  0  0  0  0  0  0  0  0  0  0
    6.3218    6.8693    6.8259 N   0  0  0  0  0  0  0  0  0  0  0  0
    5.4030    7.0566    7.8293 C   0  0  0  0  0  0  0  0  0  0  0  0
    5.5969    8.1838    8.5977 C   0  0  0  0  0  0  0  0  0  0  0  0
    6.9522    9.0570    8.0146 S   0  0  0  0  0  0  0  0  0  0  0  0
    9.3510    8.7822    5.7236 C   0  0  0  0  0  0  0  0  0  0  0  0
   10.2214    8.3461    4.7484 N   0  0  0  0  0  0  0  0  0  0  0  0
   11.4403    9.0431    4.3997 C   0  0  0  0  0  0  0  0  0  0  0  0
    5.8681    2.7176    1.5859 N   0  0  0  0  0  0  0  0  0  0  0  0
    3.2117    1.5809    0.9488 C   0  0  0  0  0  0  0  0  0  0  0  0
    2.1853    0.9346    0.2782 C   0  0  0  0  0  0  0  0  0  0  0  0
    0.7123    0.9033    0.5573 C   0  0  0  0  0  0  0  0  0  0  0  0
    0.0465    2.2107    0.3860 N   0  0  0  0  0  0  0  0  0  0  0  0
    0.4103    3.2569    1.3779 C   0  0  0  0  0  0  0  0  0  0  0  0
   -0.6461    2.7000    2.3536 C   0  0  0  0  0  0  0  0  0  0  0  0
   -0.1979    1.7416    3.3453 O   0  0  0  0  0  0  0  0  0  0  0  0
   -1.2940    2.1442    1.0572 C   0  0  0  0  0  0  0  0  0  0  0  0
    3.1217   -1.5686   -1.9594 H   0  0  0  0  0  0  0  0  0  0  0  0
    1.6743   -0.5896   -2.2892 H   0  0  0  0  0  0  0  0  0  0  0  0
    1.7402   -1.6497   -0.8679 H   0  0  0  0  0  0  0  0  0  0  0  0
    6.4086    1.3527   -1.4717 H   0  0  0  0  0  0  0  0  0  0  0  0
    8.5404    2.5826   -1.0887 H   0  0  0  0  0  0  0  0  0  0  0  0
    6.4344    3.9598    3.4542 H   0  0  0  0  0  0  0  0  0  0  0  0
    9.7155    4.7503    1.8031 H   0  0  0  0  0  0  0  0  0  0  0  0
   11.1058    6.6438    2.5525 H   0  0  0  0  0  0  0  0  0  0  0  0
    7.0460    5.3549    5.1019 H   0  0  0  0  0  0  0  0  0  0  0  0
    4.6184    6.3286    7.9634 H   0  0  0  0  0  0  0  0  0  0  0  0
    5.0182    8.5186    9.4451 H   0  0  0  0  0  0  0  0  0  0  0  0
    9.5099    9.7251    6.2313 H   0  0  0  0  0  0  0  0  0  0  0  0
   11.4248   10.0448    4.8410 H   0  0  0  0  0  0  0  0  0  0  0  0
   11.5131    9.1273    3.3137 H   0  0  0  0  0  0  0  0  0  0  0  0
   12.2828    8.4790    4.8080 H   0  0  0  0  0  0  0  0  0  0  0  0
    3.2287    2.2202    1.8180 H   0  0  0  0  0  0  0  0  0  0  0  0
    0.5435    0.4137    1.5197 H   0  0  0  0  0  0  0  0  0  0  0  0
    0.2398    0.2395   -0.1821 H   0  0  0  0  0  0  0  0  0  0  0  0
    0.1678    4.2704    1.0266 H   0  0  0  0  0  0  0  0  0  0  0  0
    1.4336    3.2978    1.7423 H   0  0  0  0  0  0  0  0  0  0  0  0
   -1.2385    3.4704    2.8549 H   0  0  0  0  0  0  0  0  0  0  0  0
    0.7711    1.7048    3.2486 H   0  0  0  0  0  0  0  0  0  0  0  0
   -2.0304    2.8304    0.6185 H   0  0  0  0  0  0  0  0  0  0  0  0
   -1.7613    1.1556    1.1264 H   0  0  0  0  0  0  0  0  0  0  0  0
  1  2  1  0  0  0  0
  1 35  1  0  0  0  0
  1 36  1  0  0  0  0
  1 37  1  0  0  0  0
  2  3  2  0  0  0  0
  2 28  1  0  0  0  0
  3  4  1  0  0  0  0
  4  5  1  0  0  0  0
  4 27  1  0  0  0  0
  5  6  1  0  0  0  0
  5 26  2  0  0  0  0
  6  7  2  0  0  0  0
  6 38  1  0  0  0  0
  7  8  1  0  0  0  0
  7 39  1  0  0  0  0
  8  9  2  0  0  0  0
  9 10  1  0  0  0  0
  9 26  1  0  0  0  0
 10 11  1  0  0  0  0
 10 40  1  0  0  0  0
 11 12  1  0  0  0  0
 11 16  2  0  0  0  0
 12 13  2  0  0  0  0
 12 41  1  0  0  0  0
 13 14  1  0  0  0  0
 13 42  1  0  0  0  0
 14 15  2  0  0  0  0
 14 24  1  0  0  0  0
 15 16  1  0  0  0  0
 15 17  1  0  0  0  0
 16 43  1  0  0  0  0
 17 18  1  0  0  0  0
 17 23  2  0  0  0  0
 18 19  2  0  0  0  0
 18 22  1  0  0  0  0
 19 20  1  0  0  0  0
 20 21  2  0  0  0  0
 20 44  1  0  0  0  0
 21 22  1  0  0  0  0
 21 45  1  0  0  0  0
 23 24  1  0  0  0  0
 23 46  1  0  0  0  0
 24 25  1  0  0  0  0
 25 47  1  0  0  0  0
 25 48  1  0  0  0  0
 25 49  1  0  0  0  0
 27 28  2  0  0  0  0
 27 50  1  0  0  0  0
 28 29  1  0  0  0  0
 29 30  1  0  0  0  0
 29 51  1  0  0  0  0
 29 52  1  0  0  0  0
 30 31  1  0  0  0  0
 30 34  1  0  0  0  0
 31 32  1  0  0  0  0
 31 53  1  0  0  0  0
 31 54  1  0  0  0  0
 32 33  1  0  0  0  0
 32 34  1  0  0  0  0
 32 55  1  0  0  0  0
 33 56  1  0  0  0  0
 34 57  1  0  0  0  0
 34 58  1  0  0  0  0
M  END
$$$$
