CHEMBL1241864
 OpenBabel04072215363D

 44 48  0  0  0  0  0  0  0  0999 V2000
    1.0509    0.2987   -0.0161 N   0  0  0  0  0  0  0  0  0  0  0  0
    2.4182    0.1170    0.0460 C   0  0  0  0  0  0  0  0  0  0  0  0
    3.1465    1.2512    0.0781 N   0  0  0  0  0  0  0  0  0  0  0  0
    4.4883    1.1575    0.0845 C   0  0  0  0  0  0  0  0  0  0  0  0
    5.2386    0.0534    0.0763 N   0  0  0  0  0  0  0  0  0  0  0  0
    4.4759   -1.0564    0.0643 C   0  0  0  0  0  0  0  0  0  0  0  0
    3.0885   -1.1180    0.0602 C   0  0  0  0  0  0  0  0  0  0  0  0
    2.7972   -2.5176    0.0453 C   0  0  0  0  0  0  0  0  0  0  0  0
    1.5114   -3.2175    0.0154 C   0  0  0  0  0  0  0  0  0  0  0  0
    1.3547   -4.2907   -0.8844 C   0  0  0  0  0  0  0  0  0  0  0  0
    0.1455   -4.9720   -0.9855 C   0  0  0  0  0  0  0  0  0  0  0  0
   -0.8897   -4.6204   -0.1334 C   0  0  0  0  0  0  0  0  0  0  0  0
   -2.1086   -5.3410   -0.2111 N   0  0  0  0  0  0  0  0  0  0  0  0
   -2.7453   -5.5825    0.9919 C   0  0  0  0  0  0  0  0  0  0  0  0
   -3.3559   -6.6124    1.2446 O   0  0  0  0  0  0  0  0  0  0  0  0
   -2.7274   -4.4396    1.9397 C   0  0  0  0  0  0  0  0  0  0  0  0
   -1.7960   -3.4783    1.8414 C   0  0  0  0  0  0  0  0  0  0  0  0
   -0.7260   -3.6325    0.8504 C   0  0  0  0  0  0  0  0  0  0  0  0
    0.4692   -2.9083    0.9033 C   0  0  0  0  0  0  0  0  0  0  0  0
    3.9257   -3.2513    0.0229 N   0  0  0  0  0  0  0  0  0  0  0  0
    4.9240   -2.3459    0.0355 N   0  0  0  0  0  0  0  0  0  0  0  0
    6.3038   -2.7835    0.0710 C   0  0  0  0  0  0  0  0  0  0  0  0
    6.7410   -3.6391   -1.1217 C   0  0  0  0  0  0  0  0  0  0  0  0
    7.9557   -4.4225   -0.6210 C   0  0  0  0  0  0  0  0  0  0  0  0
    7.9510   -4.3146    0.9030 C   0  0  0  0  0  0  0  0  0  0  0  0
    6.6266   -3.6643    1.2718 C   0  0  0  0  0  0  0  0  0  0  0  0
    0.7781    1.2449    0.2251 H   0  0  0  0  0  0  0  0  0  0  0  0
    0.4376   -0.4506    0.2516 H   0  0  0  0  0  0  0  0  0  0  0  0
    5.0274    2.1068    0.0994 H   0  0  0  0  0  0  0  0  0  0  0  0
    2.1944   -4.6148   -1.4976 H   0  0  0  0  0  0  0  0  0  0  0  0
    0.0401   -5.8068   -1.6732 H   0  0  0  0  0  0  0  0  0  0  0  0
   -2.7526   -4.7485   -0.7324 H   0  0  0  0  0  0  0  0  0  0  0  0
   -3.4798   -4.4606    2.7171 H   0  0  0  0  0  0  0  0  0  0  0  0
   -1.7676   -2.6486    2.5391 H   0  0  0  0  0  0  0  0  0  0  0  0
    0.6107   -2.1536    1.6728 H   0  0  0  0  0  0  0  0  0  0  0  0
    6.9398   -1.8864    0.1033 H   0  0  0  0  0  0  0  0  0  0  0  0
    6.9892   -3.0293   -1.9974 H   0  0  0  0  0  0  0  0  0  0  0  0
    5.9566   -4.3405   -1.4300 H   0  0  0  0  0  0  0  0  0  0  0  0
    8.8857   -4.0060   -1.0243 H   0  0  0  0  0  0  0  0  0  0  0  0
    7.9024   -5.4675   -0.9453 H   0  0  0  0  0  0  0  0  0  0  0  0
    8.7846   -3.6836    1.2324 H   0  0  0  0  0  0  0  0  0  0  0  0
    8.0682   -5.2913    1.3833 H   0  0  0  0  0  0  0  0  0  0  0  0
    6.6947   -3.0869    2.1993 H   0  0  0  0  0  0  0  0  0  0  0  0
    5.8650   -4.4395    1.4198 H   0  0  0  0  0  0  0  0  0  0  0  0
  1  2  1  0  0  0  0
  1 27  1  0  0  0  0
  1 28  1  0  0  0  0
  2  3  1  0  0  0  0
  2  7  2  0  0  0  0
  3  4  2  0  0  0  0
  4  5  1  0  0  0  0
  4 29  1  0  0  0  0
  5  6  2  0  0  0  0
  6  7  1  0  0  0  0
  6 21  1  0  0  0  0
  7  8  1  0  0  0  0
  8  9  1  0  0  0  0
  8 20  2  0  0  0  0
  9 10  1  0  0  0  0
  9 19  2  0  0  0  0
 10 11  2  0  0  0  0
 10 30  1  0  0  0  0
 11 12  1  0  0  0  0
 11 31  1  0  0  0  0
 12 13  1  0  0  0  0
 12 18  2  0  0  0  0
 13 14  1  0  0  0  0
 13 32  1  0  0  0  0
 14 15  2  0  0  0  0
 14 16  1  0  0  0  0
 16 17  2  0  0  0  0
 16 33  1  0  0  0  0
 17 18  1  0  0  0  0
 17 34  1  0  0  0  0
 18 19  1  0  0  0  0
 19 35  1  0  0  0  0
 20 21  1  0  0  0  0
 21 22  1  0  0  0  0
 22 23  1  0  0  0  0
 22 26  1  0  0  0  0
 22 36  1  0  0  0  0
 23 24  1  0  0  0  0
 23 37  1  0  0  0  0
 23 38  1  0  0  0  0
 24 25  1  0  0  0  0
 24 39  1  0  0  0  0
 24 40  1  0  0  0  0
 25 26  1  0  0  0  0
 25 41  1  0  0  0  0
 25 42  1  0  0  0  0
 26 43  1  0  0  0  0
 26 44  1  0  0  0  0
M  END
$$$$
