CHEMBL203789
 OpenBabel04072215363D

 46 49  0  0  0  0  0  0  0  0999 V2000
   -0.3017   -2.0509    5.9204 C   0  0  0  0  0  0  0  0  0  0  0  0
   -0.5590   -2.3286    4.4691 C   0  0  0  0  0  0  0  0  0  0  0  0
    0.5018   -2.4092    3.5666 C   0  0  0  0  0  0  0  0  0  0  0  0
    0.2638   -2.6782    2.2248 C   0  0  0  0  0  0  0  0  0  0  0  0
   -1.0410   -2.8593    1.7719 C   0  0  0  0  0  0  0  0  0  0  0  0
   -2.1361   -2.7540    2.6417 C   0  0  0  0  0  0  0  0  0  0  0  0
   -3.4796   -2.8968    2.2266 N   0  0  0  0  0  0  0  0  0  0  0  0
   -3.8954   -2.7174    0.9587 C   0  0  0  0  0  0  0  0  0  0  0  0
   -3.2708   -2.8065   -0.1947 N   0  0  0  0  0  0  0  0  0  0  0  0
   -4.1721   -2.4637   -1.1645 N   0  0  0  0  0  0  0  0  0  0  0  0
   -5.2920   -2.1633   -0.5565 C   0  0  0  0  0  0  0  0  0  0  0  0
   -6.4621   -1.7567   -1.2468 C   0  0  0  0  0  0  0  0  0  0  0  0
   -7.5052   -0.9488   -0.8453 C   0  0  0  0  0  0  0  0  0  0  0  0
   -7.6143   -0.2878    0.3208 N   0  0  0  0  0  0  0  0  0  0  0  0
   -8.9105    0.0090    0.8971 C   0  0  0  0  0  0  0  0  0  0  0  0
   -9.0779    1.4949    1.0886 C   0  0  0  0  0  0  0  0  0  0  0  0
   -9.0627    2.3601   -0.0090 C   0  0  0  0  0  0  0  0  0  0  0  0
   -9.2091    3.7198    0.2116 C   0  0  0  0  0  0  0  0  0  0  0  0
   -9.3703    4.2708    1.4344 N   0  0  0  0  0  0  0  0  0  0  0  0
   -9.3903    3.4198    2.4807 C   0  0  0  0  0  0  0  0  0  0  0  0
   -9.2549    2.0446    2.3625 C   0  0  0  0  0  0  0  0  0  0  0  0
   -8.4571   -0.8394   -1.8167 N   0  0  0  0  0  0  0  0  0  0  0  0
   -8.0115   -1.5633   -2.8203 C   0  0  0  0  0  0  0  0  0  0  0  0
   -6.8097   -2.1427   -2.5196 N   0  0  0  0  0  0  0  0  0  0  0  0
   -6.0863   -3.0478   -3.3771 C   0  0  0  0  0  0  0  0  0  0  0  0
   -5.1975   -2.3121    0.8082 O   0  0  0  0  0  0  0  0  0  0  0  0
   -1.8720   -2.5112    4.0025 C   0  0  0  0  0  0  0  0  0  0  0  0
    0.7704   -1.9500    6.1204 H   0  0  0  0  0  0  0  0  0  0  0  0
   -0.6781   -2.8756    6.5331 H   0  0  0  0  0  0  0  0  0  0  0  0
   -0.7872   -1.1184    6.2262 H   0  0  0  0  0  0  0  0  0  0  0  0
    1.5271   -2.2701    3.9028 H   0  0  0  0  0  0  0  0  0  0  0  0
    1.0882   -2.7437    1.5211 H   0  0  0  0  0  0  0  0  0  0  0  0
   -1.1760   -3.0733    0.7139 H   0  0  0  0  0  0  0  0  0  0  0  0
   -4.1402   -2.6351    2.9387 H   0  0  0  0  0  0  0  0  0  0  0  0
   -6.8132   -0.1173    0.9193 H   0  0  0  0  0  0  0  0  0  0  0  0
   -8.9872   -0.4938    1.8689 H   0  0  0  0  0  0  0  0  0  0  0  0
   -9.7346   -0.3850    0.2917 H   0  0  0  0  0  0  0  0  0  0  0  0
   -8.9249    1.9780   -1.0171 H   0  0  0  0  0  0  0  0  0  0  0  0
   -9.1921    4.4233   -0.6153 H   0  0  0  0  0  0  0  0  0  0  0  0
   -9.5137    3.8880    3.4531 H   0  0  0  0  0  0  0  0  0  0  0  0
   -9.2806    1.4240    3.2512 H   0  0  0  0  0  0  0  0  0  0  0  0
   -8.5186   -1.7053   -3.7677 H   0  0  0  0  0  0  0  0  0  0  0  0
   -6.6218   -3.1685   -4.3220 H   0  0  0  0  0  0  0  0  0  0  0  0
   -6.0086   -4.0151   -2.8728 H   0  0  0  0  0  0  0  0  0  0  0  0
   -5.0962   -2.6294   -3.5730 H   0  0  0  0  0  0  0  0  0  0  0  0
   -2.6949   -2.4441    4.7096 H   0  0  0  0  0  0  0  0  0  0  0  0
  1  2  1  0  0  0  0
  1 28  1  0  0  0  0
  1 29  1  0  0  0  0
  1 30  1  0  0  0  0
  2  3  1  0  0  0  0
  2 27  2  0  0  0  0
  3  4  2  0  0  0  0
  3 31  1  0  0  0  0
  4  5  1  0  0  0  0
  4 32  1  0  0  0  0
  5  6  2  0  0  0  0
  5 33  1  0  0  0  0
  6  7  1  0  0  0  0
  6 27  1  0  0  0  0
  7  8  1  0  0  0  0
  7 34  1  0  0  0  0
  8  9  2  0  0  0  0
  8 26  1  0  0  0  0
  9 10  1  0  0  0  0
 10 11  2  0  0  0  0
 11 12  1  0  0  0  0
 11 26  1  0  0  0  0
 12 13  2  0  0  0  0
 12 24  1  0  0  0  0
 13 14  1  0  0  0  0
 13 22  1  0  0  0  0
 14 15  1  0  0  0  0
 14 35  1  0  0  0  0
 15 16  1  0  0  0  0
 15 36  1  0  0  0  0
 15 37  1  0  0  0  0
 16 17  1  0  0  0  0
 16 21  2  0  0  0  0
 17 18  2  0  0  0  0
 17 38  1  0  0  0  0
 18 19  1  0  0  0  0
 18 39  1  0  0  0  0
 19 20  2  0  0  0  0
 20 21  1  0  0  0  0
 20 40  1  0  0  0  0
 21 41  1  0  0  0  0
 22 23  2  0  0  0  0
 23 24  1  0  0  0  0
 23 42  1  0  0  0  0
 24 25  1  0  0  0  0
 25 43  1  0  0  0  0
 25 44  1  0  0  0  0
 25 45  1  0  0  0  0
 27 46  1  0  0  0  0
M  END
$$$$
