CHEMBL3952894
 OpenBabel04072215373D

 74 79  0  0  1  0  0  0  0  0999 V2000
    1.1394    0.0261    0.0548 O   0  0  0  0  0  0  0  0  0  0  0  0
    2.3195   -0.2842    0.1613 C   0  0  0  0  0  0  0  0  0  0  0  0
    2.9671   -1.1657   -0.6984 N   0  0  0  0  0  0  0  0  0  0  0  0
    2.3318   -1.7938   -1.8034 C   0  0  0  0  0  0  0  0  0  0  0  0
    1.1381   -1.3025   -2.3426 C   0  0  0  0  0  0  0  0  0  0  0  0
    0.3972   -1.9743   -3.3193 C   0  0  0  0  0  0  0  0  0  0  0  0
   -0.9430   -1.4351   -3.8254 C   0  0  3  0  0  0  0  0  0  0  0  0
   -1.4687   -0.1407   -3.1652 C   0  0  0  0  0  0  0  0  0  0  0  0
   -2.0391   -0.3704   -1.7594 C   0  0  0  0  0  0  0  0  0  0  0  0
   -3.0794   -1.4121   -1.7163 N   0  0  3  0  0  0  0  0  0  0  0  0
   -3.5316   -1.6258   -0.3180 C   0  0  0  0  0  0  0  0  0  0  0  0
   -4.6099   -2.6224    0.0148 C   0  0  0  0  0  0  0  0  0  0  0  0
   -4.9079   -1.1555    0.0719 C   0  0  0  0  0  0  0  0  0  0  0  0
   -2.6142   -2.6625   -2.3340 C   0  0  0  0  0  0  0  0  0  0  0  0
   -2.0797   -2.4670   -3.7548 C   0  0  0  0  0  0  0  0  0  0  0  0
    0.9656   -3.1359   -3.8552 C   0  0  0  0  0  0  0  0  0  0  0  0
    2.2146   -3.6136   -3.4081 C   0  0  0  0  0  0  0  0  0  0  0  0
    2.8328   -4.8393   -4.0354 C   0  0  0  0  0  0  0  0  0  0  0  0
    2.0741   -5.3921   -5.0228 F   0  0  0  0  0  0  0  0  0  0  0  0
    4.0437   -4.5753   -4.6008 F   0  0  0  0  0  0  0  0  0  0  0  0
    3.0525   -5.8340   -3.1320 F   0  0  0  0  0  0  0  0  0  0  0  0
    2.8879   -2.9376   -2.3695 C   0  0  0  0  0  0  0  0  0  0  0  0
    3.1406    0.1923    1.1676 N   0  0  0  0  0  0  0  0  0  0  0  0
    2.7283    1.0523    2.2200 C   0  0  0  0  0  0  0  0  0  0  0  0
    1.4093    1.4953    2.3868 C   0  0  0  0  0  0  0  0  0  0  0  0
    1.0464    2.3382    3.4398 C   0  0  0  0  0  0  0  0  0  0  0  0
    2.0146    2.8104    4.3221 C   0  0  0  0  0  0  0  0  0  0  0  0
    1.7367    3.6893    5.3463 O   0  0  0  0  0  0  0  0  0  0  0  0
    0.7987    4.6849    5.1335 C   0  0  0  0  0  0  0  0  0  0  0  0
    0.6114    5.3018    3.8981 C   0  0  0  0  0  0  0  0  0  0  0  0
   -0.3924    6.2372    3.7957 C   0  0  0  0  0  0  0  0  0  0  0  0
   -1.1537    6.6157    4.8310 N   0  0  0  0  0  0  0  0  0  0  0  0
   -0.9341    6.0687    6.0405 C   0  0  0  0  0  0  0  0  0  0  0  0
   -1.7031    6.4872    7.1378 N   0  0  0  0  0  0  0  0  0  0  0  0
   -2.7234    7.4117    7.0493 C   0  0  0  0  0  0  0  0  0  0  0  0
   -3.1417    7.9865    6.0516 O   0  0  0  0  0  0  0  0  0  0  0  0
   -3.3470    7.7372    8.3702 C   0  0  0  0  0  0  0  0  0  0  0  0
   -4.5959    8.5893    8.4368 C   0  0  0  0  0  0  0  0  0  0  0  0
   -3.2805    9.1606    8.8759 C   0  0  0  0  0  0  0  0  0  0  0  0
    0.0446    5.0957    6.2348 C   0  0  0  0  0  0  0  0  0  0  0  0
    3.3209    2.3409    4.1858 C   0  0  0  0  0  0  0  0  0  0  0  0
    4.2664    2.7289    5.0546 F   0  0  0  0  0  0  0  0  0  0  0  0
    3.6829    1.4735    3.1485 C   0  0  0  0  0  0  0  0  0  0  0  0
    3.8375   -1.5656   -0.3841 H   0  0  0  0  0  0  0  0  0  0  0  0
    0.7692   -0.3486   -1.9924 H   0  0  0  0  0  0  0  0  0  0  0  0
   -0.7657   -1.1968   -4.8831 H   0  0  0  0  0  0  0  0  0  0  0  0
   -2.2677    0.2723   -3.7954 H   0  0  0  0  0  0  0  0  0  0  0  0
   -0.6952    0.6360   -3.1368 H   0  0  0  0  0  0  0  0  0  0  0  0
   -2.4666    0.5778   -1.4081 H   0  0  0  0  0  0  0  0  0  0  0  0
   -1.2345   -0.6206   -1.0588 H   0  0  0  0  0  0  0  0  0  0  0  0
   -2.7525   -1.5242    0.4387 H   0  0  0  0  0  0  0  0  0  0  0  0
   -4.5154   -3.1622    0.9501 H   0  0  0  0  0  0  0  0  0  0  0  0
   -5.0662   -3.1961   -0.7814 H   0  0  0  0  0  0  0  0  0  0  0  0
   -5.0349   -0.7020    1.0472 H   0  0  0  0  0  0  0  0  0  0  0  0
   -5.5511   -0.7466   -0.6984 H   0  0  0  0  0  0  0  0  0  0  0  0
   -3.4631   -3.3524   -2.4114 H   0  0  0  0  0  0  0  0  0  0  0  0
   -1.8583   -3.1519   -1.7086 H   0  0  0  0  0  0  0  0  0  0  0  0
   -2.9037   -2.1187   -4.3932 H   0  0  0  0  0  0  0  0  0  0  0  0
   -1.7765   -3.4376   -4.1611 H   0  0  0  0  0  0  0  0  0  0  0  0
    0.4466   -3.6721   -4.6498 H   0  0  0  0  0  0  0  0  0  0  0  0
    3.8377   -3.3293   -2.0097 H   0  0  0  0  0  0  0  0  0  0  0  0
    4.1198   -0.0437    1.1214 H   0  0  0  0  0  0  0  0  0  0  0  0
    0.6070    1.2153    1.7132 H   0  0  0  0  0  0  0  0  0  0  0  0
    0.0031    2.6350    3.5253 H   0  0  0  0  0  0  0  0  0  0  0  0
    1.1967    5.0508    3.0228 H   0  0  0  0  0  0  0  0  0  0  0  0
   -0.6269    6.7193    2.8524 H   0  0  0  0  0  0  0  0  0  0  0  0
   -1.4812    6.0991    8.0366 H   0  0  0  0  0  0  0  0  0  0  0  0
   -3.2857    6.9479    9.1126 H   0  0  0  0  0  0  0  0  0  0  0  0
   -5.3341    8.3598    9.1967 H   0  0  0  0  0  0  0  0  0  0  0  0
   -5.0240    8.9602    7.5096 H   0  0  0  0  0  0  0  0  0  0  0  0
   -3.1215    9.3200    9.9349 H   0  0  0  0  0  0  0  0  0  0  0  0
   -2.8303    9.9143    8.2373 H   0  0  0  0  0  0  0  0  0  0  0  0
    0.2169    4.6462    7.2059 H   0  0  0  0  0  0  0  0  0  0  0  0
    4.7165    1.1435    3.0893 H   0  0  0  0  0  0  0  0  0  0  0  0
  1  2  2  0  0  0  0
  2  3  1  0  0  0  0
  2 23  1  0  0  0  0
  3  4  1  0  0  0  0
  3 44  1  0  0  0  0
  4  5  1  0  0  0  0
  4 22  2  0  0  0  0
  5  6  2  0  0  0  0
  5 45  1  0  0  0  0
  6  7  1  0  0  0  0
  6 16  1  0  0  0  0
  7  8  1  0  0  0  0
  7 15  1  0  0  0  0
  7 46  1  0  0  0  0
  8  9  1  0  0  0  0
  8 47  1  0  0  0  0
  8 48  1  0  0  0  0
  9 10  1  0  0  0  0
  9 49  1  0  0  0  0
  9 50  1  0  0  0  0
 10 11  1  0  0  0  0
 10 14  1  0  0  0  0
 11 12  1  0  0  0  0
 11 13  1  0  0  0  0
 11 51  1  0  0  0  0
 12 13  1  0  0  0  0
 12 52  1  0  0  0  0
 12 53  1  0  0  0  0
 13 54  1  0  0  0  0
 13 55  1  0  0  0  0
 14 15  1  0  0  0  0
 14 56  1  0  0  0  0
 14 57  1  0  0  0  0
 15 58  1  0  0  0  0
 15 59  1  0  0  0  0
 16 17  2  0  0  0  0
 16 60  1  0  0  0  0
 17 18  1  0  0  0  0
 17 22  1  0  0  0  0
 18 19  1  0  0  0  0
 18 20  1  0  0  0  0
 18 21  1  0  0  0  0
 22 61  1  0  0  0  0
 23 24  1  0  0  0  0
 23 62  1  0  0  0  0
 24 25  1  0  0  0  0
 24 43  2  0  0  0  0
 25 26  2  0  0  0  0
 25 63  1  0  0  0  0
 26 27  1  0  0  0  0
 26 64  1  0  0  0  0
 27 28  1  0  0  0  0
 27 41  2  0  0  0  0
 28 29  1  0  0  0  0
 29 30  1  0  0  0  0
 29 40  2  0  0  0  0
 30 31  2  0  0  0  0
 30 65  1  0  0  0  0
 31 32  1  0  0  0  0
 31 66  1  0  0  0  0
 32 33  2  0  0  0  0
 33 34  1  0  0  0  0
 33 40  1  0  0  0  0
 34 35  1  0  0  0  0
 34 67  1  0  0  0  0
 35 36  2  0  0  0  0
 35 37  1  0  0  0  0
 37 38  1  0  0  0  0
 37 39  1  0  0  0  0
 37 68  1  0  0  0  0
 38 39  1  0  0  0  0
 38 69  1  0  0  0  0
 38 70  1  0  0  0  0
 39 71  1  0  0  0  0
 39 72  1  0  0  0  0
 40 73  1  0  0  0  0
 41 42  1  0  0  0  0
 41 43  1  0  0  0  0
 43 74  1  0  0  0  0
M  END
$$$$
