CHEMBL2006778
 OpenBabel04072215363D

 44 47  0  0  0  0  0  0  0  0999 V2000
    1.1458   -0.2942   -0.6317 C   0  0  0  0  0  0  0  0  0  0  0  0
    2.5834   -0.2201   -0.6774 N   0  0  0  0  0  0  0  0  0  0  0  0
    3.2112    0.8744   -1.2164 C   0  0  0  0  0  0  0  0  0  0  0  0
    2.6246    1.8355   -1.6974 O   0  0  0  0  0  0  0  0  0  0  0  0
    4.6918    0.7780   -1.1601 C   0  0  0  0  0  0  0  0  0  0  0  0
    5.4457    1.7726   -1.6593 C   0  0  0  0  0  0  0  0  0  0  0  0
    6.9128    1.7753   -1.6499 C   0  0  0  0  0  0  0  0  0  0  0  0
    7.6781    0.6311   -1.7561 C   0  0  0  0  0  0  0  0  0  0  0  0
    9.0219    0.6047   -1.7413 N   0  0  0  0  0  0  0  0  0  0  0  0
    9.7198    1.7543   -1.6531 C   0  0  0  0  0  0  0  0  0  0  0  0
   11.0907    1.5583   -1.6084 N   0  0  0  0  0  0  0  0  0  0  0  0
    9.0519    3.0141   -1.6077 C   0  0  0  0  0  0  0  0  0  0  0  0
    9.5502    4.4008   -1.5699 C   0  0  0  0  0  0  0  0  0  0  0  0
   10.9304    4.9209   -1.5945 C   0  0  0  0  0  0  0  0  0  0  0  0
   11.9183    4.3133   -2.3765 C   0  0  0  0  0  0  0  0  0  0  0  0
   13.2393    4.7578   -2.3470 C   0  0  0  0  0  0  0  0  0  0  0  0
   14.1867    4.1003   -3.0275 F   0  0  0  0  0  0  0  0  0  0  0  0
   13.5467    5.9016   -1.6188 C   0  0  0  0  0  0  0  0  0  0  0  0
   14.7372    6.5701   -1.4687 N   0  0  0  0  0  0  0  0  0  0  0  0
   14.5455    7.7173   -0.7371 C   0  0  0  0  0  0  0  0  0  0  0  0
   15.6413    8.6839   -0.4838 C   0  0  0  0  0  0  0  0  0  0  0  0
   13.2192    7.7424   -0.3524 C   0  0  0  0  0  0  0  0  0  0  0  0
   12.5833    6.5925   -0.8929 C   0  0  0  0  0  0  0  0  0  0  0  0
   11.2728    6.0728   -0.8499 C   0  0  0  0  0  0  0  0  0  0  0  0
    8.5072    5.3067   -1.5311 C   0  0  0  0  0  0  0  0  0  0  0  0
    6.9827    4.5824   -1.4877 S   0  0  0  0  0  0  0  0  0  0  0  0
    7.6398    2.9869   -1.5945 C   0  0  0  0  0  0  0  0  0  0  0  0
    0.8570   -1.2496   -0.1852 H   0  0  0  0  0  0  0  0  0  0  0  0
    0.7463   -0.2183   -1.6466 H   0  0  0  0  0  0  0  0  0  0  0  0
    0.7630    0.5338   -0.0289 H   0  0  0  0  0  0  0  0  0  0  0  0
    3.1195   -0.9818   -0.2845 H   0  0  0  0  0  0  0  0  0  0  0  0
    5.1206   -0.1005   -0.7010 H   0  0  0  0  0  0  0  0  0  0  0  0
    4.9543    2.6436   -2.0927 H   0  0  0  0  0  0  0  0  0  0  0  0
    7.2278   -0.3498   -1.8606 H   0  0  0  0  0  0  0  0  0  0  0  0
   11.2864    0.5710   -1.4829 H   0  0  0  0  0  0  0  0  0  0  0  0
   11.5830    2.1796   -0.9798 H   0  0  0  0  0  0  0  0  0  0  0  0
   11.6887    3.4710   -3.0214 H   0  0  0  0  0  0  0  0  0  0  0  0
   15.6099    6.2725   -1.8849 H   0  0  0  0  0  0  0  0  0  0  0  0
   16.5894    8.3414   -0.9084 H   0  0  0  0  0  0  0  0  0  0  0  0
   15.7824    8.8252    0.5914 H   0  0  0  0  0  0  0  0  0  0  0  0
   15.4005    9.6540   -0.9313 H   0  0  0  0  0  0  0  0  0  0  0  0
   12.7501    8.5214    0.2351 H   0  0  0  0  0  0  0  0  0  0  0  0
   10.5327    6.5956   -0.2484 H   0  0  0  0  0  0  0  0  0  0  0  0
    8.5596    6.3876   -1.5205 H   0  0  0  0  0  0  0  0  0  0  0  0
  1  2  1  0  0  0  0
  1 28  1  0  0  0  0
  1 29  1  0  0  0  0
  1 30  1  0  0  0  0
  2  3  1  0  0  0  0
  2 31  1  0  0  0  0
  3  4  2  0  0  0  0
  3  5  1  0  0  0  0
  5  6  2  3  0  0  0
  5 32  1  0  0  0  0
  6  7  1  0  0  0  0
  6 33  1  0  0  0  0
  7  8  1  0  0  0  0
  7 27  2  0  0  0  0
  8  9  2  0  0  0  0
  8 34  1  0  0  0  0
  9 10  1  0  0  0  0
 10 11  1  0  0  0  0
 10 12  2  0  0  0  0
 11 35  1  0  0  0  0
 11 36  1  0  0  0  0
 12 13  1  0  0  0  0
 12 27  1  0  0  0  0
 13 14  1  0  0  0  0
 13 25  2  0  0  0  0
 14 15  1  0  0  0  0
 14 24  2  0  0  0  0
 15 16  2  0  0  0  0
 15 37  1  0  0  0  0
 16 17  1  0  0  0  0
 16 18  1  0  0  0  0
 18 19  1  0  0  0  0
 18 23  2  0  0  0  0
 19 20  1  0  0  0  0
 19 38  1  0  0  0  0
 20 21  1  0  0  0  0
 20 22  2  0  0  0  0
 21 39  1  0  0  0  0
 21 40  1  0  0  0  0
 21 41  1  0  0  0  0
 22 23  1  0  0  0  0
 22 42  1  0  0  0  0
 23 24  1  0  0  0  0
 24 43  1  0  0  0  0
 25 26  1  0  0  0  0
 25 44  1  0  0  0  0
 26 27  1  0  0  0  0
M  END
$$$$
