CHEMBL3946490
 OpenBabel04072215373D

 66 68  0  0  0  0  0  0  0  0999 V2000
    2.8537   -0.0744   -1.1942 C   0  0  0  0  0  0  0  0  0  0  0  0
    1.4243   -0.0414   -0.7354 C   0  0  0  0  0  0  0  0  0  0  0  0
    0.7931   -1.1975   -0.2664 C   0  0  0  0  0  0  0  0  0  0  0  0
   -0.5377   -1.1498    0.1577 C   0  0  0  0  0  0  0  0  0  0  0  0
   -1.2457    0.0506    0.1094 C   0  0  0  0  0  0  0  0  0  0  0  0
   -2.5162    0.0521    0.5397 F   0  0  0  0  0  0  0  0  0  0  0  0
   -0.6450    1.2134   -0.3622 C   0  0  0  0  0  0  0  0  0  0  0  0
   -1.3490    2.5195   -0.4555 C   0  0  0  0  0  0  0  0  0  0  0  0
   -0.7002    3.4642   -0.9039 O   0  0  0  0  0  0  0  0  0  0  0  0
   -2.6532    2.6011    0.0115 N   0  0  0  0  0  0  0  0  0  0  0  0
   -3.4235    3.7872    0.0082 C   0  0  0  0  0  0  0  0  0  0  0  0
   -3.0921    4.8846   -0.7927 C   0  0  0  0  0  0  0  0  0  0  0  0
   -3.8068    6.0799   -0.7072 C   0  0  0  0  0  0  0  0  0  0  0  0
   -4.8648    6.1824    0.1798 C   0  0  0  0  0  0  0  0  0  0  0  0
   -5.2396    5.0806    0.9560 C   0  0  0  0  0  0  0  0  0  0  0  0
   -6.3410    5.2047    1.8510 C   0  0  0  0  0  0  0  0  0  0  0  0
   -7.2836    5.3730    2.5887 C   0  0  0  0  0  0  0  0  0  0  0  0
   -8.4094    5.6289    3.4175 C   0  0  0  0  0  0  0  0  0  0  0  0
   -9.5019    6.3295    2.9168 C   0  0  0  0  0  0  0  0  0  0  0  0
  -10.6053    6.6218    3.6409 N   0  0  0  0  0  0  0  0  0  0  0  0
  -10.5986    6.2161    4.9355 C   0  0  0  0  0  0  0  0  0  0  0  0
   -9.5428    5.5313    5.5323 C   0  0  0  0  0  0  0  0  0  0  0  0
   -9.6053    5.2076    6.9808 C   0  0  0  0  0  0  0  0  0  0  0  0
  -10.6298    5.5475    7.5729 O   0  0  0  0  0  0  0  0  0  0  0  0
   -8.5817    4.4808    7.6208 N   0  0  0  0  0  0  0  0  0  0  0  0
   -8.2848    4.7080    9.1221 S   0  0  0  0  0  0  0  0  0  0  0  0
   -8.1792    6.0166    9.7337 O   0  0  0  0  0  0  0  0  0  0  0  0
   -9.4946    3.7795   10.0701 C   0  0  0  0  0  0  0  0  0  0  0  0
   -9.2843    3.9542   11.5733 C   0  0  0  0  0  0  0  0  0  0  0  0
  -10.3026    3.1908   12.4023 C   0  0  0  0  0  0  0  0  0  0  0  0
  -11.6098    3.6623   12.1193 O   0  0  0  0  0  0  0  0  0  0  0  0
   -6.7376    3.8567    9.4725 C   0  0  0  0  0  0  0  0  0  0  0  0
   -5.5710    4.3903    8.6452 C   0  0  0  0  0  0  0  0  0  0  0  0
   -5.2956    5.8711    8.8730 C   0  0  0  0  0  0  0  0  0  0  0  0
   -4.2032    6.2801    8.0612 O   0  0  0  0  0  0  0  0  0  0  0  0
   -8.4311    5.2155    4.7476 C   0  0  0  0  0  0  0  0  0  0  0  0
   -4.5285    3.8774    0.8604 C   0  0  0  0  0  0  0  0  0  0  0  0
    0.6985    1.1563   -0.7794 C   0  0  0  0  0  0  0  0  0  0  0  0
    3.2776   -1.0807   -1.1109 H   0  0  0  0  0  0  0  0  0  0  0  0
    3.4649    0.5976   -0.5830 H   0  0  0  0  0  0  0  0  0  0  0  0
    2.9218    0.2302   -2.2436 H   0  0  0  0  0  0  0  0  0  0  0  0
    1.3321   -2.1419   -0.2270 H   0  0  0  0  0  0  0  0  0  0  0  0
   -1.0258   -2.0466    0.5237 H   0  0  0  0  0  0  0  0  0  0  0  0
   -3.0183    1.8141    0.5391 H   0  0  0  0  0  0  0  0  0  0  0  0
   -2.2740    4.8394   -1.5024 H   0  0  0  0  0  0  0  0  0  0  0  0
   -3.5156    6.9209   -1.3309 H   0  0  0  0  0  0  0  0  0  0  0  0
   -5.3980    7.1257    0.2636 H   0  0  0  0  0  0  0  0  0  0  0  0
   -9.5190    6.6931    1.8914 H   0  0  0  0  0  0  0  0  0  0  0  0
  -11.4951    6.4797    5.4917 H   0  0  0  0  0  0  0  0  0  0  0  0
   -9.4060    2.7295    9.7784 H   0  0  0  0  0  0  0  0  0  0  0  0
  -10.4823    4.1422    9.7694 H   0  0  0  0  0  0  0  0  0  0  0  0
   -9.3674    5.0173   11.8299 H   0  0  0  0  0  0  0  0  0  0  0  0
   -8.2765    3.6294   11.8493 H   0  0  0  0  0  0  0  0  0  0  0  0
  -10.1079    3.3293   13.4725 H   0  0  0  0  0  0  0  0  0  0  0  0
  -10.2653    2.1194   12.1858 H   0  0  0  0  0  0  0  0  0  0  0  0
  -11.6097    4.6304   12.2286 H   0  0  0  0  0  0  0  0  0  0  0  0
   -6.8954    2.7949    9.2579 H   0  0  0  0  0  0  0  0  0  0  0  0
   -6.5239    3.9635   10.5412 H   0  0  0  0  0  0  0  0  0  0  0  0
   -5.7580    4.2241    7.5785 H   0  0  0  0  0  0  0  0  0  0  0  0
   -4.6600    3.8200    8.8720 H   0  0  0  0  0  0  0  0  0  0  0  0
   -5.0579    6.0813    9.9212 H   0  0  0  0  0  0  0  0  0  0  0  0
   -6.1479    6.4840    8.5783 H   0  0  0  0  0  0  0  0  0  0  0  0
   -3.4142    5.7993    8.3611 H   0  0  0  0  0  0  0  0  0  0  0  0
   -7.5896    4.6763    5.1721 H   0  0  0  0  0  0  0  0  0  0  0  0
   -4.8194    3.0348    1.4816 H   0  0  0  0  0  0  0  0  0  0  0  0
    1.1893    2.0632   -1.1410 H   0  0  0  0  0  0  0  0  0  0  0  0
  1  2  1  0  0  0  0
  1 39  1  0  0  0  0
  1 40  1  0  0  0  0
  1 41  1  0  0  0  0
  2  3  1  0  0  0  0
  2 38  2  0  0  0  0
  3  4  2  0  0  0  0
  3 42  1  0  0  0  0
  4  5  1  0  0  0  0
  4 43  1  0  0  0  0
  5  6  1  0  0  0  0
  5  7  2  0  0  0  0
  7  8  1  0  0  0  0
  7 38  1  0  0  0  0
  8  9  2  0  0  0  0
  8 10  1  0  0  0  0
 10 11  1  0  0  0  0
 10 44  1  0  0  0  0
 11 12  1  0  0  0  0
 11 37  2  0  0  0  0
 12 13  2  0  0  0  0
 12 45  1  0  0  0  0
 13 14  1  0  0  0  0
 13 46  1  0  0  0  0
 14 15  2  0  0  0  0
 14 47  1  0  0  0  0
 15 16  1  0  0  0  0
 15 37  1  0  0  0  0
 16 17  3  0  0  0  0
 17 18  1  0  0  0  0
 18 19  1  0  0  0  0
 18 36  2  0  0  0  0
 19 20  2  0  0  0  0
 19 48  1  0  0  0  0
 20 21  1  0  0  0  0
 21 22  2  0  0  0  0
 21 49  1  0  0  0  0
 22 23  1  0  0  0  0
 22 36  1  0  0  0  0
 23 24  2  0  0  0  0
 23 25  1  0  0  0  0
 25 26  2  0  0  0  0
 26 27  2  0  0  0  0
 26 28  1  0  0  0  0
 26 32  1  0  0  0  0
 28 29  1  0  0  0  0
 28 50  1  0  0  0  0
 28 51  1  0  0  0  0
 29 30  1  0  0  0  0
 29 52  1  0  0  0  0
 29 53  1  0  0  0  0
 30 31  1  0  0  0  0
 30 54  1  0  0  0  0
 30 55  1  0  0  0  0
 31 56  1  0  0  0  0
 32 33  1  0  0  0  0
 32 57  1  0  0  0  0
 32 58  1  0  0  0  0
 33 34  1  0  0  0  0
 33 59  1  0  0  0  0
 33 60  1  0  0  0  0
 34 35  1  0  0  0  0
 34 61  1  0  0  0  0
 34 62  1  0  0  0  0
 35 63  1  0  0  0  0
 36 64  1  0  0  0  0
 37 65  1  0  0  0  0
 38 66  1  0  0  0  0
M  END
$$$$
