CHEMBL397089
 OpenBabel04072215373D

 54 57  0  0  0  0  0  0  0  0999 V2000
   13.5805    6.4273    0.4953 C   0  0  0  0  0  0  0  0  0  0  0  0
   12.4516    6.4541    1.3925 N   0  0  0  0  0  0  0  0  0  0  0  0
   11.7573    5.2614    1.5467 C   0  0  0  0  0  0  0  0  0  0  0  0
   12.3472    4.0928    1.3519 N   0  0  0  0  0  0  0  0  0  0  0  0
   11.5776    3.0297    1.5765 C   0  0  0  0  0  0  0  0  0  0  0  0
   10.3067    3.0383    1.9724 N   0  0  0  0  0  0  0  0  0  0  0  0
    9.8088    4.2559    2.1498 C   0  0  0  0  0  0  0  0  0  0  0  0
    8.4644    4.4286    2.7189 C   0  0  0  0  0  0  0  0  0  0  0  0
    8.2011    5.6001    3.4720 C   0  0  0  0  0  0  0  0  0  0  0  0
    6.9603    5.8439    4.0494 C   0  0  0  0  0  0  0  0  0  0  0  0
    5.9600    4.9329    3.8126 C   0  0  0  0  0  0  0  0  0  0  0  0
    6.1381    3.8200    3.0790 N   0  0  0  0  0  0  0  0  0  0  0  0
    7.3941    3.5360    2.6114 C   0  0  0  0  0  0  0  0  0  0  0  0
    7.5741    2.2604    2.0610 O   0  0  0  0  0  0  0  0  0  0  0  0
    6.7768    1.2540    2.6037 C   0  0  0  0  0  0  0  0  0  0  0  0
    6.5552    1.1931    3.9908 C   0  0  0  0  0  0  0  0  0  0  0  0
    5.6167    0.3254    4.5498 C   0  0  0  0  0  0  0  0  0  0  0  0
    5.3007    0.3237    5.9322 N   0  0  0  0  0  0  0  0  0  0  0  0
    6.0387    0.9529    6.9233 C   0  0  0  0  0  0  0  0  0  0  0  0
    7.1147    1.5255    6.7809 O   0  0  0  0  0  0  0  0  0  0  0  0
    5.5064    0.8810    8.3096 C   0  0  0  0  0  0  0  0  0  0  0  0
    4.1399    0.9062    8.6013 C   0  0  0  0  0  0  0  0  0  0  0  0
    3.7185    0.9213    9.9347 C   0  0  0  0  0  0  0  0  0  0  0  0
    4.6538    0.9006   10.9745 C   0  0  0  0  0  0  0  0  0  0  0  0
    6.0266    0.8610   10.6983 C   0  0  0  0  0  0  0  0  0  0  0  0
    7.0567    0.8047   11.7996 C   0  0  0  0  0  0  0  0  0  0  0  0
    6.5135    0.7955   13.0500 F   0  0  0  0  0  0  0  0  0  0  0  0
    7.8306   -0.3128   11.7240 F   0  0  0  0  0  0  0  0  0  0  0  0
    7.9164    1.8599   11.7744 F   0  0  0  0  0  0  0  0  0  0  0  0
    6.4408    0.8657    9.3583 C   0  0  0  0  0  0  0  0  0  0  0  0
    4.9370   -0.5487    3.7011 C   0  0  0  0  0  0  0  0  0  0  0  0
    5.2454   -0.5873    2.3348 C   0  0  0  0  0  0  0  0  0  0  0  0
    6.1760    0.3040    1.7691 C   0  0  0  0  0  0  0  0  0  0  0  0
    6.5241    0.1895    0.3138 C   0  0  0  0  0  0  0  0  0  0  0  0
   10.4937    5.3907    1.9256 N   0  0  0  0  0  0  0  0  0  0  0  0
   13.9924    7.4381    0.4051 H   0  0  0  0  0  0  0  0  0  0  0  0
   13.2928    6.0948   -0.5078 H   0  0  0  0  0  0  0  0  0  0  0  0
   14.3791    5.7846    0.8790 H   0  0  0  0  0  0  0  0  0  0  0  0
   11.7682    7.1862    1.2357 H   0  0  0  0  0  0  0  0  0  0  0  0
   12.0414    2.0590    1.4336 H   0  0  0  0  0  0  0  0  0  0  0  0
    8.9954    6.3277    3.6397 H   0  0  0  0  0  0  0  0  0  0  0  0
    6.7900    6.7201    4.6634 H   0  0  0  0  0  0  0  0  0  0  0  0
    4.9682    5.0590    4.2349 H   0  0  0  0  0  0  0  0  0  0  0  0
    7.0791    1.9058    4.6160 H   0  0  0  0  0  0  0  0  0  0  0  0
    4.5270   -0.2621    6.2145 H   0  0  0  0  0  0  0  0  0  0  0  0
    3.3952    0.9594    7.8122 H   0  0  0  0  0  0  0  0  0  0  0  0
    2.6567    0.9638   10.1694 H   0  0  0  0  0  0  0  0  0  0  0  0
    4.3050    0.9217   12.0067 H   0  0  0  0  0  0  0  0  0  0  0  0
    7.5071    0.8642    9.1249 H   0  0  0  0  0  0  0  0  0  0  0  0
    4.1832   -1.2299    4.0855 H   0  0  0  0  0  0  0  0  0  0  0  0
    4.7387   -1.3213    1.7010 H   0  0  0  0  0  0  0  0  0  0  0  0
    5.8605   -0.5162   -0.2001 H   0  0  0  0  0  0  0  0  0  0  0  0
    7.5468   -0.1882    0.2072 H   0  0  0  0  0  0  0  0  0  0  0  0
    6.4348    1.1535   -0.1935 H   0  0  0  0  0  0  0  0  0  0  0  0
  1  2  1  0  0  0  0
  1 36  1  0  0  0  0
  1 37  1  0  0  0  0
  1 38  1  0  0  0  0
  2  3  1  0  0  0  0
  2 39  1  0  0  0  0
  3  4  1  0  0  0  0
  3 35  2  0  0  0  0
  4  5  2  0  0  0  0
  5  6  1  0  0  0  0
  5 40  1  0  0  0  0
  6  7  2  0  0  0  0
  7  8  1  0  0  0  0
  7 35  1  0  0  0  0
  8  9  1  0  0  0  0
  8 13  2  0  0  0  0
  9 10  2  0  0  0  0
  9 41  1  0  0  0  0
 10 11  1  0  0  0  0
 10 42  1  0  0  0  0
 11 12  2  0  0  0  0
 11 43  1  0  0  0  0
 12 13  1  0  0  0  0
 13 14  1  0  0  0  0
 14 15  1  0  0  0  0
 15 16  1  0  0  0  0
 15 33  2  0  0  0  0
 16 17  2  0  0  0  0
 16 44  1  0  0  0  0
 17 18  1  0  0  0  0
 17 31  1  0  0  0  0
 18 19  1  0  0  0  0
 18 45  1  0  0  0  0
 19 20  2  0  0  0  0
 19 21  1  0  0  0  0
 21 22  1  0  0  0  0
 21 30  2  0  0  0  0
 22 23  2  0  0  0  0
 22 46  1  0  0  0  0
 23 24  1  0  0  0  0
 23 47  1  0  0  0  0
 24 25  2  0  0  0  0
 24 48  1  0  0  0  0
 25 26  1  0  0  0  0
 25 30  1  0  0  0  0
 26 27  1  0  0  0  0
 26 28  1  0  0  0  0
 26 29  1  0  0  0  0
 30 49  1  0  0  0  0
 31 32  2  0  0  0  0
 31 50  1  0  0  0  0
 32 33  1  0  0  0  0
 32 51  1  0  0  0  0
 33 34  1  0  0  0  0
 34 52  1  0  0  0  0
 34 53  1  0  0  0  0
 34 54  1  0  0  0  0
M  END
$$$$
