CHEMBL1271780
 OpenBabel04072215363D

 35 37  0  0  0  0  0  0  0  0999 V2000
    1.1663    0.1285   -0.7040 C   0  0  0  0  0  0  0  0  0  0  0  0
    2.6436    0.2072   -0.4151 C   0  0  0  0  0  0  0  0  0  0  0  0
    3.3915   -0.9715   -0.3678 C   0  0  0  0  0  0  0  0  0  0  0  0
    4.7524   -0.9083   -0.0928 C   0  0  0  0  0  0  0  0  0  0  0  0
    5.7416   -2.5264   -0.0296 Br  0  0  0  0  0  0  0  0  0  0  0  0
    5.3975    0.3167    0.1538 C   0  0  0  0  0  0  0  0  0  0  0  0
    4.6783    1.5259    0.1346 C   0  0  0  0  0  0  0  0  0  0  0  0
    5.3237    2.8811    0.4650 C   0  0  0  0  0  0  0  0  0  0  0  0
    4.5962    3.8696    0.5279 O   0  0  0  0  0  0  0  0  0  0  0  0
    6.7111    2.9174    0.6272 N   0  0  0  0  0  0  0  0  0  0  0  0
    7.5595    4.0396    0.8817 C   0  0  0  0  0  0  0  0  0  0  0  0
    7.1962    5.3124    1.3145 C   0  0  0  0  0  0  0  0  0  0  0  0
    8.0810    6.3564    1.4505 N   0  0  0  0  0  0  0  0  0  0  0  0
    9.3554    6.1957    1.0287 C   0  0  0  0  0  0  0  0  0  0  0  0
   10.2316    7.2808    0.9378 C   0  0  0  0  0  0  0  0  0  0  0  0
   11.4767    7.1734    0.3052 C   0  0  0  0  0  0  0  0  0  0  0  0
   11.9112    5.9382   -0.1552 C   0  0  0  0  0  0  0  0  0  0  0  0
   11.1064    4.8164    0.0353 C   0  0  0  0  0  0  0  0  0  0  0  0
    9.8158    4.9459    0.5849 C   0  0  0  0  0  0  0  0  0  0  0  0
    8.9171    3.8606    0.6091 C   0  0  0  0  0  0  0  0  0  0  0  0
    3.2966    1.4396   -0.1734 C   0  0  0  0  0  0  0  0  0  0  0  0
    2.4833    2.5505   -0.2639 O   0  0  0  0  0  0  0  0  0  0  0  0
    0.8290   -0.9099   -0.8140 H   0  0  0  0  0  0  0  0  0  0  0  0
    0.9244    0.6500   -1.6350 H   0  0  0  0  0  0  0  0  0  0  0  0
    0.5936    0.5648    0.1208 H   0  0  0  0  0  0  0  0  0  0  0  0
    2.9084   -1.9328   -0.5391 H   0  0  0  0  0  0  0  0  0  0  0  0
    6.4572    0.2805    0.3735 H   0  0  0  0  0  0  0  0  0  0  0  0
    7.2147    2.0876    0.3776 H   0  0  0  0  0  0  0  0  0  0  0  0
    6.1772    5.5727    1.5797 H   0  0  0  0  0  0  0  0  0  0  0  0
    9.9102    8.2543    1.3056 H   0  0  0  0  0  0  0  0  0  0  0  0
   12.0849    8.0599    0.1408 H   0  0  0  0  0  0  0  0  0  0  0  0
   12.8532    5.8505   -0.6906 H   0  0  0  0  0  0  0  0  0  0  0  0
   11.4554    3.8519   -0.3326 H   0  0  0  0  0  0  0  0  0  0  0  0
    9.2831    2.8815    0.3117 H   0  0  0  0  0  0  0  0  0  0  0  0
    3.0303    3.3430   -0.0567 H   0  0  0  0  0  0  0  0  0  0  0  0
  1  2  1  0  0  0  0
  1 23  1  0  0  0  0
  1 24  1  0  0  0  0
  1 25  1  0  0  0  0
  2  3  1  0  0  0  0
  2 21  2  0  0  0  0
  3  4  2  0  0  0  0
  3 26  1  0  0  0  0
  4  5  1  0  0  0  0
  4  6  1  0  0  0  0
  6  7  2  0  0  0  0
  6 27  1  0  0  0  0
  7  8  1  0  0  0  0
  7 21  1  0  0  0  0
  8  9  2  0  0  0  0
  8 10  1  0  0  0  0
 10 11  1  0  0  0  0
 10 28  1  0  0  0  0
 11 12  1  0  0  0  0
 11 20  2  0  0  0  0
 12 13  2  0  0  0  0
 12 29  1  0  0  0  0
 13 14  1  0  0  0  0
 14 15  1  0  0  0  0
 14 19  2  0  0  0  0
 15 16  2  0  0  0  0
 15 30  1  0  0  0  0
 16 17  1  0  0  0  0
 16 31  1  0  0  0  0
 17 18  2  0  0  0  0
 17 32  1  0  0  0  0
 18 19  1  0  0  0  0
 18 33  1  0  0  0  0
 19 20  1  0  0  0  0
 20 34  1  0  0  0  0
 21 22  1  0  0  0  0
 22 35  1  0  0  0  0
M  END
$$$$
