CHEMBL3982740
 OpenBabel04072215373D

 73 76  0  0  1  0  0  0  0  0999 V2000
    1.9130   -2.3313   -4.9379 C   0  0  0  0  0  0  0  0  0  0  0  0
    1.8294   -1.1671   -4.2103 O   0  0  0  0  0  0  0  0  0  0  0  0
    2.8281   -0.7006   -3.4255 C   0  0  0  0  0  0  0  0  0  0  0  0
    2.4569    0.0982   -2.3400 C   0  0  0  0  0  0  0  0  0  0  0  0
    3.4028    0.5225   -1.4157 C   0  0  0  0  0  0  0  0  0  0  0  0
    2.9812    1.2621   -0.3546 O   0  0  0  0  0  0  0  0  0  0  0  0
    3.8001    1.9228    0.5373 C   0  0  0  0  0  0  0  0  0  0  0  0
    4.7426    0.1347   -1.5912 C   0  0  0  0  0  0  0  0  0  0  0  0
    5.1565   -0.6696   -2.6766 C   0  0  0  0  0  0  0  0  0  0  0  0
    6.4941   -1.2197   -2.6788 N   0  0  0  0  0  0  0  0  0  0  0  0
    6.9044   -1.8098   -1.3281 C   0  0  0  0  0  0  0  0  0  0  0  0
    5.8653   -2.3078   -0.2056 C   0  0  0  0  0  0  0  0  0  0  0  0
    4.8962   -3.4900   -0.4721 C   0  0  0  0  0  0  0  0  0  0  0  0
    4.0363   -3.8135    0.7336 N   0  0  0  0  0  0  0  0  0  0  0  0
    4.7701   -4.2394    1.9363 C   0  0  0  0  0  0  0  0  0  0  0  0
    5.0322   -5.7195    1.7497 C   0  0  0  0  0  0  0  0  0  0  0  0
    3.6604   -6.1704    1.3287 C   0  0  0  0  0  0  0  0  0  0  0  0
    3.1418   -4.9869    0.4616 C   0  0  1  0  0  0  0  0  0  0  0  0
    1.6895   -4.6447    0.8741 C   0  0  0  0  0  0  0  0  0  0  0  0
    0.8461   -5.7590    0.7012 O   0  0  0  0  0  0  0  0  0  0  0  0
    7.3218   -1.6418   -3.8596 C   0  0  0  0  0  0  0  0  0  0  0  0
    7.6519   -2.9771   -3.7707 C   0  0  0  0  0  0  0  0  0  0  0  0
    8.6913   -3.5025   -4.3994 C   0  0  0  0  0  0  0  0  0  0  0  0
    9.4426   -2.8101   -5.2847 C   0  0  0  0  0  0  0  0  0  0  0  0
   10.5483   -3.4183   -5.5740 N   0  0  0  0  0  0  0  0  0  0  0  0
   11.3784   -2.9968   -6.4784 C   0  0  0  0  0  0  0  0  0  0  0  0
   11.0330   -1.9836   -7.3606 C   0  0  0  0  0  0  0  0  0  0  0  0
   12.0078   -2.2333   -8.6269 C   0  0  0  0  0  0  0  0  0  0  0  0
   12.2962   -3.6071   -8.8905 C   0  0  0  0  0  0  0  0  0  0  0  0
   13.1917   -3.7738   -9.8455 N   0  0  0  0  0  0  0  0  0  0  0  0
   13.5103   -2.5943  -10.3104 N   0  0  0  0  0  0  0  0  0  0  0  0
   14.5463   -2.5729  -11.3663 C   0  0  0  0  0  0  0  0  0  0  0  0
   12.7845   -1.6069   -9.6594 C   0  0  0  0  0  0  0  0  0  0  0  0
    9.9300   -1.1442   -6.9274 N   0  0  0  0  0  0  0  0  0  0  0  0
    9.1132   -1.5486   -5.7889 C   0  0  0  0  0  0  0  0  0  0  0  0
    7.9942   -0.8781   -4.9976 C   0  0  0  0  0  0  0  0  0  0  0  0
    4.1888   -1.0652   -3.6145 C   0  0  0  0  0  0  0  0  0  0  0  0
   -0.5257   -1.0716   -0.0356 Cl  0  0  0  0  0  0  0  0  0  0  0  0
    0.9205   -2.5602   -5.3733 H   0  0  0  0  0  0  0  0  0  0  0  0
    2.1888   -3.1624   -4.2501 H   0  0  0  0  0  0  0  0  0  0  0  0
    2.6647   -2.2403   -5.7467 H   0  0  0  0  0  0  0  0  0  0  0  0
    1.4131    0.3592   -2.1907 H   0  0  0  0  0  0  0  0  0  0  0  0
    3.1791    2.4270    1.3065 H   0  0  0  0  0  0  0  0  0  0  0  0
    4.3798    2.6925   -0.0131 H   0  0  0  0  0  0  0  0  0  0  0  0
    4.4877    1.2187    1.0527 H   0  0  0  0  0  0  0  0  0  0  0  0
    5.4739    0.4212   -0.8491 H   0  0  0  0  0  0  0  0  0  0  0  0
    7.6015   -1.0939   -0.8581 H   0  0  0  0  0  0  0  0  0  0  0  0
    7.5626   -2.6898   -1.4086 H   0  0  0  0  0  0  0  0  0  0  0  0
    5.2912   -1.4734    0.2336 H   0  0  0  0  0  0  0  0  0  0  0  0
    6.5481   -2.6353    0.6007 H   0  0  0  0  0  0  0  0  0  0  0  0
    5.4685   -4.3847   -0.7928 H   0  0  0  0  0  0  0  0  0  0  0  0
    4.2240   -3.1960   -1.3075 H   0  0  0  0  0  0  0  0  0  0  0  0
    4.0971   -4.1095    2.8194 H   0  0  0  0  0  0  0  0  0  0  0  0
    5.6764   -3.6622    2.1797 H   0  0  0  0  0  0  0  0  0  0  0  0
    5.4075   -6.2482    2.6540 H   0  0  0  0  0  0  0  0  0  0  0  0
    5.7555   -5.8516    0.9224 H   0  0  0  0  0  0  0  0  0  0  0  0
    3.0649   -6.2517    2.2636 H   0  0  0  0  0  0  0  0  0  0  0  0
    3.6242   -7.1643    0.8226 H   0  0  0  0  0  0  0  0  0  0  0  0
    3.1669   -5.2685   -0.6142 H   0  0  0  0  0  0  0  0  0  0  0  0
    1.2980   -3.7828    0.3066 H   0  0  0  0  0  0  0  0  0  0  0  0
    1.6551   -4.3666    1.9525 H   0  0  0  0  0  0  0  0  0  0  0  0
    0.7413   -5.8876   -0.2747 H   0  0  0  0  0  0  0  0  0  0  0  0
    7.1623   -3.6530   -3.1007 H   0  0  0  0  0  0  0  0  0  0  0  0
    8.9879   -4.5032   -4.1481 H   0  0  0  0  0  0  0  0  0  0  0  0
   12.2586   -3.6079   -6.5543 H   0  0  0  0  0  0  0  0  0  0  0  0
   11.9101   -4.4838   -8.3881 H   0  0  0  0  0  0  0  0  0  0  0  0
   14.9328   -3.6197  -11.5386 H   0  0  0  0  0  0  0  0  0  0  0  0
   15.4392   -1.9902  -11.0619 H   0  0  0  0  0  0  0  0  0  0  0  0
   14.1380   -2.2408  -12.3366 H   0  0  0  0  0  0  0  0  0  0  0  0
   12.9046   -0.5585   -9.8842 H   0  0  0  0  0  0  0  0  0  0  0  0
    7.7252    0.1666   -5.1795 H   0  0  0  0  0  0  0  0  0  0  0  0
    4.4771   -1.7150   -4.4253 H   0  0  0  0  0  0  0  0  0  0  0  0
    0.8100   -1.3870    0.0470 H   0  0  0  0  0  0  0  0  0  0  0  0
  1  2  1  0  0  0  0
  1 39  1  0  0  0  0
  1 40  1  0  0  0  0
  1 41  1  0  0  0  0
  2  3  1  0  0  0  0
  3  4  1  0  0  0  0
  3 37  2  0  0  0  0
  4  5  2  0  0  0  0
  4 42  1  0  0  0  0
  5  6  1  0  0  0  0
  5  8  1  0  0  0  0
  6  7  1  0  0  0  0
  7 43  1  0  0  0  0
  7 44  1  0  0  0  0
  7 45  1  0  0  0  0
  8  9  2  0  0  0  0
  8 46  1  0  0  0  0
  9 10  1  0  0  0  0
  9 37  1  0  0  0  0
 10 11  1  0  0  0  0
 10 21  1  0  0  0  0
 11 12  1  0  0  0  0
 11 47  1  0  0  0  0
 11 48  1  0  0  0  0
 12 13  1  0  0  0  0
 12 49  1  0  0  0  0
 12 50  1  0  0  0  0
 13 14  1  0  0  0  0
 13 51  1  0  0  0  0
 13 52  1  0  0  0  0
 14 15  1  0  0  0  0
 14 18  1  0  0  0  0
 15 16  1  0  0  0  0
 15 53  1  0  0  0  0
 15 54  1  0  0  0  0
 16 17  1  0  0  0  0
 16 55  1  0  0  0  0
 16 56  1  0  0  0  0
 17 18  1  0  0  0  0
 17 57  1  0  0  0  0
 17 58  1  0  0  0  0
 18 19  1  0  0  0  0
 18 59  1  6  0  0  0
 19 20  1  0  0  0  0
 19 60  1  0  0  0  0
 19 61  1  0  0  0  0
 20 62  1  0  0  0  0
 21 22  1  0  0  0  0
 21 36  2  0  0  0  0
 22 23  2  0  0  0  0
 22 63  1  0  0  0  0
 23 24  1  0  0  0  0
 23 64  1  0  0  0  0
 24 25  1  0  0  0  0
 24 35  2  0  0  0  0
 25 26  2  0  0  0  0
 26 27  1  0  0  0  0
 26 65  1  0  0  0  0
 27 28  1  0  0  0  0
 27 34  2  0  0  0  0
 28 29  1  0  0  0  0
 28 33  2  0  0  0  0
 29 30  2  0  0  0  0
 29 66  1  0  0  0  0
 30 31  1  0  0  0  0
 31 32  1  0  0  0  0
 31 33  1  0  0  0  0
 32 67  1  0  0  0  0
 32 68  1  0  0  0  0
 32 69  1  0  0  0  0
 33 70  1  0  0  0  0
 34 35  1  0  0  0  0
 35 36  1  0  0  0  0
 36 71  1  0  0  0  0
 37 72  1  0  0  0  0
 38 73  1  0  0  0  0
M  END
$$$$
