CHEMBL3891572
 OpenBabel04072215373D

 63 65  0  0  0  0  0  0  0  0999 V2000
    2.1888   -0.6788    1.2200 C   0  0  0  0  0  0  0  0  0  0  0  0
    0.8827   -0.2984    0.6178 C   0  0  0  0  0  0  0  0  0  0  0  0
    0.5049    1.0240    0.2474 C   0  0  0  0  0  0  0  0  0  0  0  0
   -0.7595    0.9367   -0.2713 C   0  0  0  0  0  0  0  0  0  0  0  0
   -1.1991   -0.3443   -0.2537 O   0  0  0  0  0  0  0  0  0  0  0  0
   -0.2045   -1.1139    0.2900 C   0  0  0  0  0  0  0  0  0  0  0  0
   -0.4342   -2.5501    0.4087 C   0  0  0  0  0  0  0  0  0  0  0  0
    0.4081   -3.2910    0.9085 O   0  0  0  0  0  0  0  0  0  0  0  0
   -1.6395   -2.9933   -0.1445 N   0  0  0  0  0  0  0  0  0  0  0  0
   -2.0859   -4.3376   -0.1769 C   0  0  0  0  0  0  0  0  0  0  0  0
   -1.5393   -5.3200    0.6514 C   0  0  0  0  0  0  0  0  0  0  0  0
   -1.9208   -6.6528    0.5242 C   0  0  0  0  0  0  0  0  0  0  0  0
   -2.8331   -7.0240   -0.4635 C   0  0  0  0  0  0  0  0  0  0  0  0
   -3.4085   -6.0555   -1.2924 C   0  0  0  0  0  0  0  0  0  0  0  0
   -4.2616   -6.4663   -2.3839 C   0  0  0  0  0  0  0  0  0  0  0  0
   -4.9008   -6.8493   -3.3226 C   0  0  0  0  0  0  0  0  0  0  0  0
   -5.6398   -7.3497   -4.4617 C   0  0  0  0  0  0  0  0  0  0  0  0
   -6.3657   -6.4515   -5.2635 C   0  0  0  0  0  0  0  0  0  0  0  0
   -7.0784   -6.9344   -6.3678 C   0  0  0  0  0  0  0  0  0  0  0  0
   -7.8231   -6.0352   -7.3000 C   0  0  0  0  0  0  0  0  0  0  0  0
   -8.3942   -6.5794   -8.2413 O   0  0  0  0  0  0  0  0  0  0  0  0
   -7.7682   -4.6325   -7.1686 N   0  0  0  0  0  0  0  0  0  0  0  0
   -8.9636   -3.7597   -7.6236 S   0  0  3  0  0  0  0  0  0  0  0  0
   -9.0260   -3.8111   -9.4081 C   0  0  0  0  0  0  0  0  0  0  0  0
  -10.3144   -3.9413   -7.1292 O   0  0  0  0  0  0  0  0  0  0  0  0
   -8.5144   -2.0549   -7.2890 C   0  0  0  0  0  0  0  0  0  0  0  0
   -9.5988   -1.0494   -7.6836 C   0  0  0  0  0  0  0  0  0  0  0  0
   -9.1956    0.3999   -7.3922 C   0  0  0  0  0  0  0  0  0  0  0  0
   -7.9466    0.8265   -8.1627 C   0  0  0  0  0  0  0  0  0  0  0  0
   -7.5555    2.2540   -7.8622 C   0  0  0  0  0  0  0  0  0  0  0  0
   -8.1524    3.0048   -7.1092 O   0  0  0  0  0  0  0  0  0  0  0  0
   -6.4372    2.6314   -8.5220 O   0  0  0  0  0  0  0  0  0  0  0  0
   -7.0555   -8.2995   -6.6005 C   0  0  0  0  0  0  0  0  0  0  0  0
   -6.3725   -9.1949   -5.8358 N   0  0  0  0  0  0  0  0  0  0  0  0
   -5.6629   -8.7141   -4.7918 C   0  0  0  0  0  0  0  0  0  0  0  0
   -4.8385   -9.6478   -4.1701 N   0  0  0  0  0  0  0  0  0  0  0  0
   -3.0730   -4.7043   -1.1084 C   0  0  0  0  0  0  0  0  0  0  0  0
    2.8580    0.1893    1.2870 H   0  0  0  0  0  0  0  0  0  0  0  0
    2.6915   -1.4334    0.6096 H   0  0  0  0  0  0  0  0  0  0  0  0
    2.0546   -1.0658    2.2347 H   0  0  0  0  0  0  0  0  0  0  0  0
    1.0933    1.9290    0.3443 H   0  0  0  0  0  0  0  0  0  0  0  0
   -1.4497    1.6615   -0.6817 H   0  0  0  0  0  0  0  0  0  0  0  0
   -2.1321   -2.3230   -0.7234 H   0  0  0  0  0  0  0  0  0  0  0  0
   -0.8010   -5.0769    1.4098 H   0  0  0  0  0  0  0  0  0  0  0  0
   -1.4775   -7.3991    1.1787 H   0  0  0  0  0  0  0  0  0  0  0  0
   -3.0715   -8.0766   -0.5887 H   0  0  0  0  0  0  0  0  0  0  0  0
   -6.3607   -5.3916   -5.0372 H   0  0  0  0  0  0  0  0  0  0  0  0
   -9.2830   -4.8220   -9.7259 H   0  0  0  0  0  0  0  0  0  0  0  0
   -8.0504   -3.5247   -9.8066 H   0  0  0  0  0  0  0  0  0  0  0  0
   -9.8001   -3.1296   -9.7620 H   0  0  0  0  0  0  0  0  0  0  0  0
   -7.5813   -1.8650   -7.8264 H   0  0  0  0  0  0  0  0  0  0  0  0
   -8.3143   -1.9835   -6.2143 H   0  0  0  0  0  0  0  0  0  0  0  0
  -10.5263   -1.2722   -7.1406 H   0  0  0  0  0  0  0  0  0  0  0  0
   -9.8357   -1.1396   -8.7486 H   0  0  0  0  0  0  0  0  0  0  0  0
   -9.0312    0.5260   -6.3150 H   0  0  0  0  0  0  0  0  0  0  0  0
  -10.0295    1.0653   -7.6558 H   0  0  0  0  0  0  0  0  0  0  0  0
   -8.1239    0.7299   -9.2400 H   0  0  0  0  0  0  0  0  0  0  0  0
   -7.0988    0.1922   -7.8833 H   0  0  0  0  0  0  0  0  0  0  0  0
   -6.0529    1.9429   -9.0934 H   0  0  0  0  0  0  0  0  0  0  0  0
   -7.5801   -8.7474   -7.4459 H   0  0  0  0  0  0  0  0  0  0  0  0
   -5.1134  -10.5825   -4.4522 H   0  0  0  0  0  0  0  0  0  0  0  0
   -4.7241   -9.5238   -3.1721 H   0  0  0  0  0  0  0  0  0  0  0  0
   -3.5401   -3.9519   -1.7384 H   0  0  0  0  0  0  0  0  0  0  0  0
  1  2  1  0  0  0  0
  1 38  1  0  0  0  0
  1 39  1  0  0  0  0
  1 40  1  0  0  0  0
  2  3  1  0  0  0  0
  2  6  2  0  0  0  0
  3  4  2  0  0  0  0
  3 41  1  0  0  0  0
  4  5  1  0  0  0  0
  4 42  1  0  0  0  0
  5  6  1  0  0  0  0
  6  7  1  0  0  0  0
  7  8  2  0  0  0  0
  7  9  1  0  0  0  0
  9 10  1  0  0  0  0
  9 43  1  0  0  0  0
 10 11  1  0  0  0  0
 10 37  2  0  0  0  0
 11 12  2  0  0  0  0
 11 44  1  0  0  0  0
 12 13  1  0  0  0  0
 12 45  1  0  0  0  0
 13 14  2  0  0  0  0
 13 46  1  0  0  0  0
 14 15  1  0  0  0  0
 14 37  1  0  0  0  0
 15 16  3  0  0  0  0
 16 17  1  0  0  0  0
 17 18  1  0  0  0  0
 17 35  2  0  0  0  0
 18 19  2  0  0  0  0
 18 47  1  0  0  0  0
 19 20  1  0  0  0  0
 19 33  1  0  0  0  0
 20 21  2  0  0  0  0
 20 22  1  0  0  0  0
 22 23  2  0  0  0  0
 23 24  1  0  0  0  0
 23 25  2  0  0  0  0
 23 26  1  0  0  0  0
 24 48  1  0  0  0  0
 24 49  1  0  0  0  0
 24 50  1  0  0  0  0
 26 27  1  0  0  0  0
 26 51  1  0  0  0  0
 26 52  1  0  0  0  0
 27 28  1  0  0  0  0
 27 53  1  0  0  0  0
 27 54  1  0  0  0  0
 28 29  1  0  0  0  0
 28 55  1  0  0  0  0
 28 56  1  0  0  0  0
 29 30  1  0  0  0  0
 29 57  1  0  0  0  0
 29 58  1  0  0  0  0
 30 31  2  0  0  0  0
 30 32  1  0  0  0  0
 32 59  1  0  0  0  0
 33 34  2  0  0  0  0
 33 60  1  0  0  0  0
 34 35  1  0  0  0  0
 35 36  1  0  0  0  0
 36 61  1  0  0  0  0
 36 62  1  0  0  0  0
 37 63  1  0  0  0  0
M  END
$$$$
