CHEMBL246356
 OpenBabel04072215363D

 58 61  0  0  0  0  0  0  0  0999 V2000
   13.8490    5.8951   -1.6167 C   0  0  0  0  0  0  0  0  0  0  0  0
   12.7013    6.2558   -0.8228 N   0  0  0  0  0  0  0  0  0  0  0  0
   11.9614    5.2151   -0.2869 C   0  0  0  0  0  0  0  0  0  0  0  0
   12.5125    4.0367   -0.0403 N   0  0  0  0  0  0  0  0  0  0  0  0
   11.7034    3.1448    0.5288 C   0  0  0  0  0  0  0  0  0  0  0  0
   10.4293    3.3292    0.8639 N   0  0  0  0  0  0  0  0  0  0  0  0
    9.9714    4.5426    0.5799 C   0  0  0  0  0  0  0  0  0  0  0  0
    8.6273    4.9482    1.0235 C   0  0  0  0  0  0  0  0  0  0  0  0
    8.3998    6.3217    1.2938 C   0  0  0  0  0  0  0  0  0  0  0  0
    7.1686    6.7956    1.7307 C   0  0  0  0  0  0  0  0  0  0  0  0
    6.1416    5.8906    1.8343 C   0  0  0  0  0  0  0  0  0  0  0  0
    6.2837    4.5831    1.5536 N   0  0  0  0  0  0  0  0  0  0  0  0
    7.5292    4.1094    1.2358 C   0  0  0  0  0  0  0  0  0  0  0  0
    7.6631    2.7144    1.1854 O   0  0  0  0  0  0  0  0  0  0  0  0
    6.8170    1.9984    2.0318 C   0  0  0  0  0  0  0  0  0  0  0  0
    6.5816    2.4477    3.3441 C   0  0  0  0  0  0  0  0  0  0  0  0
    5.5969    1.8800    4.1504 C   0  0  0  0  0  0  0  0  0  0  0  0
    5.2623    2.3826    5.4320 N   0  0  0  0  0  0  0  0  0  0  0  0
    5.9893    3.3208    6.1485 C   0  0  0  0  0  0  0  0  0  0  0  0
    7.0502    3.8384    5.8154 O   0  0  0  0  0  0  0  0  0  0  0  0
    5.4674    3.6690    7.4967 C   0  0  0  0  0  0  0  0  0  0  0  0
    6.4132    3.9390    8.4943 C   0  0  0  0  0  0  0  0  0  0  0  0
    6.0007    4.2479    9.7849 C   0  0  0  0  0  0  0  0  0  0  0  0
    4.6402    4.3248   10.0794 C   0  0  0  0  0  0  0  0  0  0  0  0
    3.6843    4.1182    9.0809 C   0  0  0  0  0  0  0  0  0  0  0  0
    2.3293    4.1976    9.2634 O   0  0  0  0  0  0  0  0  0  0  0  0
    1.8608    5.0764   10.2990 C   0  0  0  0  0  0  0  0  0  0  0  0
    2.2705    4.6204   11.5109 F   0  0  0  0  0  0  0  0  0  0  0  0
    2.4150    6.3040   10.1058 F   0  0  0  0  0  0  0  0  0  0  0  0
    0.3370    5.1874   10.2730 C   0  0  0  0  0  0  0  0  0  0  0  0
   -0.2459    3.9796   10.5078 F   0  0  0  0  0  0  0  0  0  0  0  0
   -0.1089    6.0199   11.2533 F   0  0  0  0  0  0  0  0  0  0  0  0
    4.1007    3.7670    7.7886 C   0  0  0  0  0  0  0  0  0  0  0  0
    4.8899    0.7830    3.6564 C   0  0  0  0  0  0  0  0  0  0  0  0
    5.2086    0.2408    2.4028 C   0  0  0  0  0  0  0  0  0  0  0  0
    6.1807    0.8354    1.5774 C   0  0  0  0  0  0  0  0  0  0  0  0
    6.5303    0.1937    0.2669 C   0  0  0  0  0  0  0  0  0  0  0  0
   10.6971    5.5054   -0.0153 N   0  0  0  0  0  0  0  0  0  0  0  0
   14.2940    6.8037   -2.0369 H   0  0  0  0  0  0  0  0  0  0  0  0
   13.5774    5.2402   -2.4497 H   0  0  0  0  0  0  0  0  0  0  0  0
   14.6175    5.4131   -1.0038 H   0  0  0  0  0  0  0  0  0  0  0  0
   12.0476    6.9079   -1.2463 H   0  0  0  0  0  0  0  0  0  0  0  0
   12.1340    2.1760    0.7536 H   0  0  0  0  0  0  0  0  0  0  0  0
    9.2149    7.0378    1.1938 H   0  0  0  0  0  0  0  0  0  0  0  0
    7.0268    7.8398    1.9823 H   0  0  0  0  0  0  0  0  0  0  0  0
    5.1562    6.1892    2.1773 H   0  0  0  0  0  0  0  0  0  0  0  0
    7.1381    3.3120    3.6860 H   0  0  0  0  0  0  0  0  0  0  0  0
    4.4792    1.9395    5.8925 H   0  0  0  0  0  0  0  0  0  0  0  0
    7.4773    3.8993    8.2658 H   0  0  0  0  0  0  0  0  0  0  0  0
    6.7390    4.4285   10.5625 H   0  0  0  0  0  0  0  0  0  0  0  0
    4.3695    4.5453   11.1070 H   0  0  0  0  0  0  0  0  0  0  0  0
   -0.0269    5.5611    9.3125 H   0  0  0  0  0  0  0  0  0  0  0  0
    3.3570    3.6160    7.0112 H   0  0  0  0  0  0  0  0  0  0  0  0
    4.1037    0.3149    4.2422 H   0  0  0  0  0  0  0  0  0  0  0  0
    4.6780   -0.6491    2.0682 H   0  0  0  0  0  0  0  0  0  0  0  0
    5.8266   -0.6093    0.0166 H   0  0  0  0  0  0  0  0  0  0  0  0
    7.5283   -0.2536    0.3275 H   0  0  0  0  0  0  0  0  0  0  0  0
    6.5030    0.9196   -0.5499 H   0  0  0  0  0  0  0  0  0  0  0  0
  1  2  1  0  0  0  0
  1 39  1  0  0  0  0
  1 40  1  0  0  0  0
  1 41  1  0  0  0  0
  2  3  1  0  0  0  0
  2 42  1  0  0  0  0
  3  4  1  0  0  0  0
  3 38  2  0  0  0  0
  4  5  2  0  0  0  0
  5  6  1  0  0  0  0
  5 43  1  0  0  0  0
  6  7  2  0  0  0  0
  7  8  1  0  0  0  0
  7 38  1  0  0  0  0
  8  9  1  0  0  0  0
  8 13  2  0  0  0  0
  9 10  2  0  0  0  0
  9 44  1  0  0  0  0
 10 11  1  0  0  0  0
 10 45  1  0  0  0  0
 11 12  2  0  0  0  0
 11 46  1  0  0  0  0
 12 13  1  0  0  0  0
 13 14  1  0  0  0  0
 14 15  1  0  0  0  0
 15 16  1  0  0  0  0
 15 36  2  0  0  0  0
 16 17  2  0  0  0  0
 16 47  1  0  0  0  0
 17 18  1  0  0  0  0
 17 34  1  0  0  0  0
 18 19  1  0  0  0  0
 18 48  1  0  0  0  0
 19 20  2  0  0  0  0
 19 21  1  0  0  0  0
 21 22  1  0  0  0  0
 21 33  2  0  0  0  0
 22 23  2  0  0  0  0
 22 49  1  0  0  0  0
 23 24  1  0  0  0  0
 23 50  1  0  0  0  0
 24 25  2  0  0  0  0
 24 51  1  0  0  0  0
 25 26  1  0  0  0  0
 25 33  1  0  0  0  0
 26 27  1  0  0  0  0
 27 28  1  0  0  0  0
 27 29  1  0  0  0  0
 27 30  1  0  0  0  0
 30 31  1  0  0  0  0
 30 32  1  0  0  0  0
 30 52  1  0  0  0  0
 33 53  1  0  0  0  0
 34 35  2  0  0  0  0
 34 54  1  0  0  0  0
 35 36  1  0  0  0  0
 35 55  1  0  0  0  0
 36 37  1  0  0  0  0
 37 56  1  0  0  0  0
 37 57  1  0  0  0  0
 37 58  1  0  0  0  0
M  END
$$$$
