CHEMBL429481
 OpenBabel04072215383D

 36 39  0  0  0  0  0  0  0  0999 V2000
    0.7889   -0.3120    0.0552 C   0  0  0  0  0  0  0  0  0  0  0  0
    2.2820   -0.1877   -0.0440 C   0  0  0  0  0  0  0  0  0  0  0  0
    2.8506    1.0406   -0.3725 C   0  0  0  0  0  0  0  0  0  0  0  0
    4.2274    1.1532   -0.6174 C   0  0  0  0  0  0  0  0  0  0  0  0
    4.7780    2.6239   -1.6831 Br  0  0  0  0  0  0  0  0  0  0  0  0
    5.1025    0.0864   -0.3019 C   0  0  0  0  0  0  0  0  0  0  0  0
    6.5278   -0.1208   -0.1754 C   0  0  0  0  0  0  0  0  0  0  0  0
    7.5957    0.8392   -0.1020 C   0  0  0  0  0  0  0  0  0  0  0  0
    8.8935    0.6422   -0.4234 C   0  0  0  0  0  0  0  0  0  0  0  0
    9.5700   -0.5616   -0.9239 C   0  0  0  0  0  0  0  0  0  0  0  0
    9.1768   -1.3887   -1.7445 O   0  0  0  0  0  0  0  0  0  0  0  0
   10.8184   -0.4799   -0.3343 N   0  0  0  0  0  0  0  0  0  0  0  0
   11.1341    0.7993    0.0735 N   0  0  0  0  0  0  0  0  0  0  0  0
   10.0377    1.5088   -0.0619 C   0  0  0  0  0  0  0  0  0  0  0  0
   10.0342    2.9314   -0.0252 C   0  0  0  0  0  0  0  0  0  0  0  0
    9.2171    3.8658   -0.6354 C   0  0  0  0  0  0  0  0  0  0  0  0
    9.6277    5.1839   -0.4974 N   0  0  0  0  0  0  0  0  0  0  0  0
   10.7370    5.2763    0.2153 N   0  0  0  0  0  0  0  0  0  0  0  0
   11.3076    3.7945    0.7305 S   0  0  0  0  0  0  0  0  0  0  0  0
    6.7163   -1.4729    0.0022 C   0  0  0  0  0  0  0  0  0  0  0  0
    5.5004   -2.0895   -0.0022 N   0  0  0  0  0  0  0  0  0  0  0  0
    5.3111   -3.5249    0.0198 C   0  0  0  0  0  0  0  0  0  0  0  0
    4.4906   -1.1546   -0.0525 C   0  0  0  0  0  0  0  0  0  0  0  0
    3.0963   -1.3207    0.0497 C   0  0  0  0  0  0  0  0  0  0  0  0
    0.3141    0.6742    0.1069 H   0  0  0  0  0  0  0  0  0  0  0  0
    0.4988   -0.8653    0.9530 H   0  0  0  0  0  0  0  0  0  0  0  0
    0.4036   -0.8237   -0.8321 H   0  0  0  0  0  0  0  0  0  0  0  0
    2.2050    1.9048   -0.5080 H   0  0  0  0  0  0  0  0  0  0  0  0
    7.3370    1.7684    0.4084 H   0  0  0  0  0  0  0  0  0  0  0  0
   11.5594   -1.1514   -0.5022 H   0  0  0  0  0  0  0  0  0  0  0  0
    8.3385    3.6635   -1.2327 H   0  0  0  0  0  0  0  0  0  0  0  0
    7.6221   -2.0616    0.1165 H   0  0  0  0  0  0  0  0  0  0  0  0
    6.2827   -4.0267    0.0132 H   0  0  0  0  0  0  0  0  0  0  0  0
    4.7490   -3.8077   -0.8743 H   0  0  0  0  0  0  0  0  0  0  0  0
    4.7617   -3.7881    0.9250 H   0  0  0  0  0  0  0  0  0  0  0  0
    2.6667   -2.3042    0.2017 H   0  0  0  0  0  0  0  0  0  0  0  0
  1  2  1  0  0  0  0
  1 25  1  0  0  0  0
  1 26  1  0  0  0  0
  1 27  1  0  0  0  0
  2  3  1  0  0  0  0
  2 24  2  0  0  0  0
  3  4  2  0  0  0  0
  3 28  1  0  0  0  0
  4  5  1  0  0  0  0
  4  6  1  0  0  0  0
  6  7  1  0  0  0  0
  6 23  2  0  0  0  0
  7  8  1  0  0  0  0
  7 20  2  0  0  0  0
  8  9  2  0  0  0  0
  8 29  1  0  0  0  0
  9 10  1  0  0  0  0
  9 14  1  0  0  0  0
 10 11  2  0  0  0  0
 10 12  1  0  0  0  0
 12 13  1  0  0  0  0
 12 30  1  0  0  0  0
 13 14  2  0  0  0  0
 14 15  1  0  0  0  0
 15 16  2  0  0  0  0
 15 19  1  0  0  0  0
 16 17  1  0  0  0  0
 16 31  1  0  0  0  0
 17 18  2  0  0  0  0
 18 19  1  0  0  0  0
 20 21  1  0  0  0  0
 20 32  1  0  0  0  0
 21 22  1  0  0  0  0
 21 23  1  0  0  0  0
 22 33  1  0  0  0  0
 22 34  1  0  0  0  0
 22 35  1  0  0  0  0
 23 24  1  0  0  0  0
 24 36  1  0  0  0  0
M  END
$$$$
