CHEMBL2023230
 OpenBabel04072215363D

 56 60  0  0  0  0  0  0  0  0999 V2000
    6.9487    3.6634    1.6513 C   0  0  0  0  0  0  0  0  0  0  0  0
    6.0571    3.1512    0.6565 O   0  0  0  0  0  0  0  0  0  0  0  0
    4.9039    2.5782    1.1461 C   0  0  0  0  0  0  0  0  0  0  0  0
    4.4858    2.7230    2.4848 C   0  0  0  0  0  0  0  0  0  0  0  0
    3.2896    2.1710    2.9389 C   0  0  0  0  0  0  0  0  0  0  0  0
    2.4871    1.4692    2.0629 C   0  0  0  0  0  0  0  0  0  0  0  0
    2.9030    1.2942    0.7467 C   0  0  0  0  0  0  0  0  0  0  0  0
    4.1005    1.8446    0.2504 C   0  0  0  0  0  0  0  0  0  0  0  0
    4.4977    1.6453   -1.1142 N   0  0  0  0  0  0  0  0  0  0  0  0
    3.6169    1.2271   -2.0961 C   0  0  0  0  0  0  0  0  0  0  0  0
    2.4169    1.0796   -1.8846 O   0  0  0  0  0  0  0  0  0  0  0  0
    4.1842    0.9638   -3.3343 N   0  0  0  0  0  0  0  0  0  0  0  0
    3.3829    0.5596   -4.4448 C   0  0  0  0  0  0  0  0  0  0  0  0
    2.0054    0.7964   -4.4828 C   0  0  0  0  0  0  0  0  0  0  0  0
    1.1824    0.1807   -5.4175 C   0  0  0  0  0  0  0  0  0  0  0  0
    1.7262   -0.5909   -6.4414 C   0  0  0  0  0  0  0  0  0  0  0  0
    0.8334   -1.3246   -7.3500 C   0  0  0  0  0  0  0  0  0  0  0  0
   -0.3971   -0.7775   -7.6588 C   0  0  0  0  0  0  0  0  0  0  0  0
   -1.3435   -1.7647   -8.6390 S   0  0  0  0  0  0  0  0  0  0  0  0
   -0.1108   -2.9686   -8.7758 C   0  0  0  0  0  0  0  0  0  0  0  0
   -0.1508   -4.1601   -9.5323 C   0  0  0  0  0  0  0  0  0  0  0  0
   -1.2645   -4.4881  -10.4100 C   0  0  0  0  0  0  0  0  0  0  0  0
   -2.1230   -3.6800  -11.1923 C   0  0  0  0  0  0  0  0  0  0  0  0
   -3.0113   -4.3883  -11.8927 N   0  0  0  0  0  0  0  0  0  0  0  0
   -2.7174   -5.6586  -11.5728 N   0  0  0  0  0  0  0  0  0  0  0  0
   -3.4566   -6.7426  -12.1728 C   0  0  0  0  0  0  0  0  0  0  0  0
   -1.6809   -5.7741  -10.6931 C   0  0  0  0  0  0  0  0  0  0  0  0
    0.9393   -4.9891   -9.3951 C   0  0  0  0  0  0  0  0  0  0  0  0
    1.9958   -4.7504   -8.6019 N   0  0  0  0  0  0  0  0  0  0  0  0
    2.0491   -3.6133   -7.8833 C   0  0  0  0  0  0  0  0  0  0  0  0
    3.1756   -3.5212   -7.0770 N   0  0  0  0  0  0  0  0  0  0  0  0
    1.0019   -2.6476   -7.9663 C   0  0  0  0  0  0  0  0  0  0  0  0
    3.1229   -0.6466   -6.5346 C   0  0  0  0  0  0  0  0  0  0  0  0
    3.9475   -0.1305   -5.5160 C   0  0  0  0  0  0  0  0  0  0  0  0
    7.8481    4.0375    1.1549 H   0  0  0  0  0  0  0  0  0  0  0  0
    7.2541    2.8663    2.3389 H   0  0  0  0  0  0  0  0  0  0  0  0
    6.5114    4.5070    2.1991 H   0  0  0  0  0  0  0  0  0  0  0  0
    5.0652    3.2763    3.2170 H   0  0  0  0  0  0  0  0  0  0  0  0
    2.9827    2.2913    3.9727 H   0  0  0  0  0  0  0  0  0  0  0  0
    1.5389    1.0477    2.3818 H   0  0  0  0  0  0  0  0  0  0  0  0
    2.2388    0.6964    0.1344 H   0  0  0  0  0  0  0  0  0  0  0  0
    5.3873    2.0456   -1.3834 H   0  0  0  0  0  0  0  0  0  0  0  0
    5.1629    0.7181   -3.3543 H   0  0  0  0  0  0  0  0  0  0  0  0
    1.5058    1.4234   -3.7509 H   0  0  0  0  0  0  0  0  0  0  0  0
    0.1099    0.3047   -5.2900 H   0  0  0  0  0  0  0  0  0  0  0  0
   -0.8149    0.1671   -7.3357 H   0  0  0  0  0  0  0  0  0  0  0  0
   -2.1446   -2.6013  -11.2917 H   0  0  0  0  0  0  0  0  0  0  0  0
   -4.2372   -6.3361  -12.8209 H   0  0  0  0  0  0  0  0  0  0  0  0
   -3.9043   -7.3387  -11.3740 H   0  0  0  0  0  0  0  0  0  0  0  0
   -2.7574   -7.3433  -12.7598 H   0  0  0  0  0  0  0  0  0  0  0  0
   -1.3436   -6.7431  -10.3490 H   0  0  0  0  0  0  0  0  0  0  0  0
    1.0103   -5.9258   -9.9421 H   0  0  0  0  0  0  0  0  0  0  0  0
    3.6472   -4.4179   -7.0471 H   0  0  0  0  0  0  0  0  0  0  0  0
    2.9980   -3.0960   -6.1758 H   0  0  0  0  0  0  0  0  0  0  0  0
    3.5943   -1.1506   -7.3762 H   0  0  0  0  0  0  0  0  0  0  0  0
    5.0154   -0.3210   -5.5697 H   0  0  0  0  0  0  0  0  0  0  0  0
  1  2  1  0  0  0  0
  1 35  1  0  0  0  0
  1 36  1  0  0  0  0
  1 37  1  0  0  0  0
  2  3  1  0  0  0  0
  3  4  1  0  0  0  0
  3  8  2  0  0  0  0
  4  5  2  0  0  0  0
  4 38  1  0  0  0  0
  5  6  1  0  0  0  0
  5 39  1  0  0  0  0
  6  7  2  0  0  0  0
  6 40  1  0  0  0  0
  7  8  1  0  0  0  0
  7 41  1  0  0  0  0
  8  9  1  0  0  0  0
  9 10  1  0  0  0  0
  9 42  1  0  0  0  0
 10 11  2  0  0  0  0
 10 12  1  0  0  0  0
 12 13  1  0  0  0  0
 12 43  1  0  0  0  0
 13 14  1  0  0  0  0
 13 34  2  0  0  0  0
 14 15  2  0  0  0  0
 14 44  1  0  0  0  0
 15 16  1  0  0  0  0
 15 45  1  0  0  0  0
 16 17  1  0  0  0  0
 16 33  2  0  0  0  0
 17 18  2  0  0  0  0
 17 32  1  0  0  0  0
 18 19  1  0  0  0  0
 18 46  1  0  0  0  0
 19 20  1  0  0  0  0
 20 21  1  0  0  0  0
 20 32  2  0  0  0  0
 21 22  1  0  0  0  0
 21 28  2  0  0  0  0
 22 23  1  0  0  0  0
 22 27  2  0  0  0  0
 23 24  2  0  0  0  0
 23 47  1  0  0  0  0
 24 25  1  0  0  0  0
 25 26  1  0  0  0  0
 25 27  1  0  0  0  0
 26 48  1  0  0  0  0
 26 49  1  0  0  0  0
 26 50  1  0  0  0  0
 27 51  1  0  0  0  0
 28 29  1  0  0  0  0
 28 52  1  0  0  0  0
 29 30  2  0  0  0  0
 30 31  1  0  0  0  0
 30 32  1  0  0  0  0
 31 53  1  0  0  0  0
 31 54  1  0  0  0  0
 33 34  1  0  0  0  0
 33 55  1  0  0  0  0
 34 56  1  0  0  0  0
M  END
$$$$
