CHEMBL392306
 OpenBabel04072215373D

 66 69  0  0  0  0  0  0  0  0999 V2000
   -7.6236   -2.5107   -1.3596 C   0  0  0  0  0  0  0  0  0  0  0  0
   -6.1665   -2.5021   -1.4097 N   0  0  0  0  0  0  0  0  0  0  0  0
   -5.6186   -1.2754   -0.8050 C   0  0  0  0  0  0  0  0  0  0  0  0
   -4.0741   -1.2715   -0.8451 C   0  0  0  0  0  0  0  0  0  0  0  0
   -3.4395   -2.4287   -0.1841 N   0  0  0  0  0  0  0  0  0  0  0  0
   -3.5770   -2.4268    1.2816 C   0  0  0  0  0  0  0  0  0  0  0  0
   -2.9560   -1.2253    2.0234 C   0  0  0  0  0  0  0  0  0  0  0  0
   -3.1092   -1.2987    3.5309 C   0  0  0  0  0  0  0  0  0  0  0  0
   -3.1155   -2.5227    4.2111 C   0  0  0  0  0  0  0  0  0  0  0  0
   -3.2191   -2.5679    5.5979 C   0  0  0  0  0  0  0  0  0  0  0  0
   -3.2737   -1.3954    6.3535 C   0  0  0  0  0  0  0  0  0  0  0  0
   -3.3562   -1.4256    7.7548 N   0  0  0  0  0  0  0  0  0  0  0  0
   -2.7739   -2.4000    8.5695 C   0  0  0  0  0  0  0  0  0  0  0  0
   -3.3872   -2.6598    9.7278 N   0  0  0  0  0  0  0  0  0  0  0  0
   -2.7815   -3.5565   10.5325 C   0  0  0  0  0  0  0  0  0  0  0  0
   -1.6061   -4.2117   10.2323 C   0  0  0  0  0  0  0  0  0  0  0  0
   -0.9125   -5.2287   11.4322 Cl  0  0  0  0  0  0  0  0  0  0  0  0
   -1.0660   -3.9380    8.9846 C   0  0  0  0  0  0  0  0  0  0  0  0
    0.1433   -4.5695    8.3959 C   0  0  0  0  0  0  0  0  0  0  0  0
    0.4647   -5.9173    8.6067 C   0  0  0  0  0  0  0  0  0  0  0  0
    1.6435   -6.4880    8.1082 C   0  0  0  0  0  0  0  0  0  0  0  0
    2.5431   -5.7494    7.3283 C   0  0  0  0  0  0  0  0  0  0  0  0
    3.8660   -6.3353    6.8149 C   0  0  0  0  0  0  0  0  0  0  0  0
    3.8853   -6.3752    5.2778 C   0  0  0  0  0  0  0  0  0  0  0  0
    5.0561   -5.5088    7.3368 C   0  0  0  0  0  0  0  0  0  0  0  0
    4.1029   -7.7163    7.2693 N   0  0  0  0  0  0  0  0  0  0  0  0
    2.1821   -4.4232    7.0339 C   0  0  0  0  0  0  0  0  0  0  0  0
    1.0111   -3.8483    7.5571 C   0  0  0  0  0  0  0  0  0  0  0  0
   -1.6456   -3.0148    8.1734 N   0  0  0  0  0  0  0  0  0  0  0  0
   -3.3049   -0.1718    5.6814 C   0  0  0  0  0  0  0  0  0  0  0  0
   -3.2027   -0.1204    4.2859 C   0  0  0  0  0  0  0  0  0  0  0  0
   -4.0448   -3.6664   -0.7418 C   0  0  0  0  0  0  0  0  0  0  0  0
   -5.5961   -3.6901   -0.7499 C   0  0  0  0  0  0  0  0  0  0  0  0
   -8.0285   -1.6445   -1.8942 H   0  0  0  0  0  0  0  0  0  0  0  0
   -8.0055   -2.4920   -0.3327 H   0  0  0  0  0  0  0  0  0  0  0  0
   -8.0184   -3.4018   -1.8596 H   0  0  0  0  0  0  0  0  0  0  0  0
   -5.9638   -1.1607    0.2311 H   0  0  0  0  0  0  0  0  0  0  0  0
   -5.9756   -0.4018   -1.3626 H   0  0  0  0  0  0  0  0  0  0  0  0
   -3.6921   -0.3288   -0.4411 H   0  0  0  0  0  0  0  0  0  0  0  0
   -3.7544   -1.2719   -1.8963 H   0  0  0  0  0  0  0  0  0  0  0  0
   -3.0623   -3.3314    1.6255 H   0  0  0  0  0  0  0  0  0  0  0  0
   -4.6243   -2.5244    1.5910 H   0  0  0  0  0  0  0  0  0  0  0  0
   -3.4375   -0.3011    1.6850 H   0  0  0  0  0  0  0  0  0  0  0  0
   -1.8877   -1.1486    1.7878 H   0  0  0  0  0  0  0  0  0  0  0  0
   -3.0289   -3.4704    3.6911 H   0  0  0  0  0  0  0  0  0  0  0  0
   -3.2322   -3.5416    6.0818 H   0  0  0  0  0  0  0  0  0  0  0  0
   -4.2848   -1.2348    8.1104 H   0  0  0  0  0  0  0  0  0  0  0  0
   -3.2916   -3.7312   11.4759 H   0  0  0  0  0  0  0  0  0  0  0  0
   -0.1987   -6.5665    9.1705 H   0  0  0  0  0  0  0  0  0  0  0  0
    1.8299   -7.5279    8.3590 H   0  0  0  0  0  0  0  0  0  0  0  0
    3.8320   -5.3714    4.8427 H   0  0  0  0  0  0  0  0  0  0  0  0
    3.0396   -6.9507    4.8819 H   0  0  0  0  0  0  0  0  0  0  0  0
    4.8067   -6.8381    4.9029 H   0  0  0  0  0  0  0  0  0  0  0  0
    5.0413   -4.4825    6.9537 H   0  0  0  0  0  0  0  0  0  0  0  0
    6.0136   -5.9490    7.0319 H   0  0  0  0  0  0  0  0  0  0  0  0
    5.0521   -5.4493    8.4325 H   0  0  0  0  0  0  0  0  0  0  0  0
    3.3502   -8.3163    6.9393 H   0  0  0  0  0  0  0  0  0  0  0  0
    4.0980   -7.7424    8.2872 H   0  0  0  0  0  0  0  0  0  0  0  0
    2.8141   -3.8067    6.3966 H   0  0  0  0  0  0  0  0  0  0  0  0
    0.7824   -2.8137    7.2983 H   0  0  0  0  0  0  0  0  0  0  0  0
   -3.3582    0.7587    6.2454 H   0  0  0  0  0  0  0  0  0  0  0  0
   -3.1780    0.8500    3.7942 H   0  0  0  0  0  0  0  0  0  0  0  0
   -3.6711   -4.5470   -0.2028 H   0  0  0  0  0  0  0  0  0  0  0  0
   -3.6869   -3.7827   -1.7729 H   0  0  0  0  0  0  0  0  0  0  0  0
   -5.9686   -3.7751    0.2796 H   0  0  0  0  0  0  0  0  0  0  0  0
   -5.9200   -4.5933   -1.2804 H   0  0  0  0  0  0  0  0  0  0  0  0
  1  2  1  0  0  0  0
  1 34  1  0  0  0  0
  1 35  1  0  0  0  0
  1 36  1  0  0  0  0
  2  3  1  0  0  0  0
  2 33  1  0  0  0  0
  3  4  1  0  0  0  0
  3 37  1  0  0  0  0
  3 38  1  0  0  0  0
  4  5  1  0  0  0  0
  4 39  1  0  0  0  0
  4 40  1  0  0  0  0
  5  6  1  0  0  0  0
  5 32  1  0  0  0  0
  6  7  1  0  0  0  0
  6 41  1  0  0  0  0
  6 42  1  0  0  0  0
  7  8  1  0  0  0  0
  7 43  1  0  0  0  0
  7 44  1  0  0  0  0
  8  9  1  0  0  0  0
  8 31  2  0  0  0  0
  9 10  2  0  0  0  0
  9 45  1  0  0  0  0
 10 11  1  0  0  0  0
 10 46  1  0  0  0  0
 11 12  1  0  0  0  0
 11 30  2  0  0  0  0
 12 13  1  0  0  0  0
 12 47  1  0  0  0  0
 13 14  1  0  0  0  0
 13 29  2  0  0  0  0
 14 15  2  0  0  0  0
 15 16  1  0  0  0  0
 15 48  1  0  0  0  0
 16 17  1  0  0  0  0
 16 18  2  0  0  0  0
 18 19  1  0  0  0  0
 18 29  1  0  0  0  0
 19 20  1  0  0  0  0
 19 28  2  0  0  0  0
 20 21  2  0  0  0  0
 20 49  1  0  0  0  0
 21 22  1  0  0  0  0
 21 50  1  0  0  0  0
 22 23  1  0  0  0  0
 22 27  2  0  0  0  0
 23 24  1  0  0  0  0
 23 25  1  0  0  0  0
 23 26  1  0  0  0  0
 24 51  1  0  0  0  0
 24 52  1  0  0  0  0
 24 53  1  0  0  0  0
 25 54  1  0  0  0  0
 25 55  1  0  0  0  0
 25 56  1  0  0  0  0
 26 57  1  0  0  0  0
 26 58  1  0  0  0  0
 27 28  1  0  0  0  0
 27 59  1  0  0  0  0
 28 60  1  0  0  0  0
 30 31  1  0  0  0  0
 30 61  1  0  0  0  0
 31 62  1  0  0  0  0
 32 33  1  0  0  0  0
 32 63  1  0  0  0  0
 32 64  1  0  0  0  0
 33 65  1  0  0  0  0
 33 66  1  0  0  0  0
M  END
$$$$
