CHEMBL234452
 OpenBabel04072215363D

 50 53  0  0  0  0  0  0  0  0999 V2000
    4.4820    1.6228   -2.2653 C   0  0  0  0  0  0  0  0  0  0  0  0
    4.1649    0.7853   -1.1046 N   0  0  0  0  0  0  0  0  0  0  0  0
    2.7290    0.8500   -0.8268 C   0  0  0  0  0  0  0  0  0  0  0  0
    4.6281   -0.5971   -1.3491 C   0  0  0  0  0  0  0  0  0  0  0  0
    4.4550   -1.5376   -0.1432 C   0  0  0  0  0  0  0  0  0  0  0  0
    5.0121   -2.9225   -0.3871 C   0  0  0  0  0  0  0  0  0  0  0  0
    6.3768   -3.1360   -0.6102 C   0  0  0  0  0  0  0  0  0  0  0  0
    6.8918   -4.4266   -0.7704 C   0  0  0  0  0  0  0  0  0  0  0  0
    6.0563   -5.5633   -0.6798 C   0  0  0  0  0  0  0  0  0  0  0  0
    6.6286   -6.8364   -0.7779 N   0  0  0  0  0  0  0  0  0  0  0  0
    6.1237   -8.0796   -0.3838 C   0  0  0  0  0  0  0  0  0  0  0  0
    7.0081   -9.0669   -0.1877 N   0  0  0  0  0  0  0  0  0  0  0  0
    6.5209  -10.2445    0.2785 C   0  0  0  0  0  0  0  0  0  0  0  0
    5.1973  -10.4823    0.5720 C   0  0  0  0  0  0  0  0  0  0  0  0
    4.6824  -12.0003    1.1779 Cl  0  0  0  0  0  0  0  0  0  0  0  0
    4.3740   -9.4098    0.3439 C   0  0  0  0  0  0  0  0  0  0  0  0
    2.9965   -9.3139    0.8049 C   0  0  0  0  0  0  0  0  0  0  0  0
    1.9624   -8.9048   -0.0175 C   0  0  0  0  0  0  0  0  0  0  0  0
    0.8948   -8.6062    0.7884 N   0  0  0  0  0  0  0  0  0  0  0  0
    1.3592   -8.3977    2.0674 C   0  0  0  0  0  0  0  0  0  0  0  0
    0.8377   -7.6470    3.1237 C   0  0  0  0  0  0  0  0  0  0  0  0
    1.5408   -7.6728    4.3326 C   0  0  0  0  0  0  0  0  0  0  0  0
    2.6555   -8.4922    4.4990 C   0  0  0  0  0  0  0  0  0  0  0  0
    3.1872   -9.1998    3.4172 C   0  0  0  0  0  0  0  0  0  0  0  0
    2.5746   -9.0758    2.1544 C   0  0  0  0  0  0  0  0  0  0  0  0
    4.8196   -8.2363   -0.1572 N   0  0  0  0  0  0  0  0  0  0  0  0
    4.6794   -5.3224   -0.5057 C   0  0  0  0  0  0  0  0  0  0  0  0
    4.1645   -4.0341   -0.3472 C   0  0  0  0  0  0  0  0  0  0  0  0
    4.1870    2.6622   -2.0848 H   0  0  0  0  0  0  0  0  0  0  0  0
    3.9781    1.2743   -3.1749 H   0  0  0  0  0  0  0  0  0  0  0  0
    5.5616    1.6340   -2.4505 H   0  0  0  0  0  0  0  0  0  0  0  0
    2.3994    1.8913   -0.7316 H   0  0  0  0  0  0  0  0  0  0  0  0
    2.4915    0.3765    0.1309 H   0  0  0  0  0  0  0  0  0  0  0  0
    2.1338    0.3729   -1.6130 H   0  0  0  0  0  0  0  0  0  0  0  0
    5.6975   -0.5522   -1.5933 H   0  0  0  0  0  0  0  0  0  0  0  0
    4.1251   -1.0250   -2.2265 H   0  0  0  0  0  0  0  0  0  0  0  0
    3.3916   -1.6301    0.1036 H   0  0  0  0  0  0  0  0  0  0  0  0
    4.9430   -1.1141    0.7436 H   0  0  0  0  0  0  0  0  0  0  0  0
    7.0656   -2.2931   -0.6471 H   0  0  0  0  0  0  0  0  0  0  0  0
    7.9551   -4.5488   -0.9490 H   0  0  0  0  0  0  0  0  0  0  0  0
    7.6391   -6.8772   -0.7586 H   0  0  0  0  0  0  0  0  0  0  0  0
    7.2765  -11.0101    0.4442 H   0  0  0  0  0  0  0  0  0  0  0  0
    1.9093   -8.7516   -1.0866 H   0  0  0  0  0  0  0  0  0  0  0  0
   -0.0379   -8.3810    0.4699 H   0  0  0  0  0  0  0  0  0  0  0  0
   -0.0311   -7.0092    2.9952 H   0  0  0  0  0  0  0  0  0  0  0  0
    1.2122   -7.0431    5.1566 H   0  0  0  0  0  0  0  0  0  0  0  0
    3.1524   -8.5415    5.4648 H   0  0  0  0  0  0  0  0  0  0  0  0
    4.0937   -9.7845    3.5419 H   0  0  0  0  0  0  0  0  0  0  0  0
    3.9720   -6.1450   -0.4598 H   0  0  0  0  0  0  0  0  0  0  0  0
    3.0996   -3.9178   -0.1691 H   0  0  0  0  0  0  0  0  0  0  0  0
  1  2  1  0  0  0  0
  1 29  1  0  0  0  0
  1 30  1  0  0  0  0
  1 31  1  0  0  0  0
  2  3  1  0  0  0  0
  2  4  1  0  0  0  0
  3 32  1  0  0  0  0
  3 33  1  0  0  0  0
  3 34  1  0  0  0  0
  4  5  1  0  0  0  0
  4 35  1  0  0  0  0
  4 36  1  0  0  0  0
  5  6  1  0  0  0  0
  5 37  1  0  0  0  0
  5 38  1  0  0  0  0
  6  7  1  0  0  0  0
  6 28  2  0  0  0  0
  7  8  2  0  0  0  0
  7 39  1  0  0  0  0
  8  9  1  0  0  0  0
  8 40  1  0  0  0  0
  9 10  1  0  0  0  0
  9 27  2  0  0  0  0
 10 11  1  0  0  0  0
 10 41  1  0  0  0  0
 11 12  1  0  0  0  0
 11 26  2  0  0  0  0
 12 13  2  0  0  0  0
 13 14  1  0  0  0  0
 13 42  1  0  0  0  0
 14 15  1  0  0  0  0
 14 16  2  0  0  0  0
 16 17  1  0  0  0  0
 16 26  1  0  0  0  0
 17 18  2  0  0  0  0
 17 25  1  0  0  0  0
 18 19  1  0  0  0  0
 18 43  1  0  0  0  0
 19 20  1  0  0  0  0
 19 44  1  0  0  0  0
 20 21  1  0  0  0  0
 20 25  2  0  0  0  0
 21 22  2  0  0  0  0
 21 45  1  0  0  0  0
 22 23  1  0  0  0  0
 22 46  1  0  0  0  0
 23 24  2  0  0  0  0
 23 47  1  0  0  0  0
 24 25  1  0  0  0  0
 24 48  1  0  0  0  0
 27 28  1  0  0  0  0
 27 49  1  0  0  0  0
 28 50  1  0  0  0  0
M  END
$$$$
