CHEMBL1966842
 OpenBabel04072215363D

 74 79  0  0  0  0  0  0  0  0999 V2000
    5.4711    1.1799   -8.3027 C   0  0  0  0  0  0  0  0  0  0  0  0
    4.7670    0.9295   -7.0921 O   0  0  0  0  0  0  0  0  0  0  0  0
    3.4024    1.0994   -7.1442 C   0  0  0  0  0  0  0  0  0  0  0  0
    2.6816    1.3772   -8.3109 C   0  0  0  0  0  0  0  0  0  0  0  0
    1.2959    1.5143   -8.2695 C   0  0  0  0  0  0  0  0  0  0  0  0
    0.6007    1.2831   -7.0819 C   0  0  0  0  0  0  0  0  0  0  0  0
   -0.9106    1.2751   -7.0553 C   0  0  0  0  0  0  0  0  0  0  0  0
   -1.4832    0.3695   -8.0648 N   0  0  0  0  0  0  0  0  0  0  0  0
   -1.1034   -1.0235   -7.8127 C   0  0  0  0  0  0  0  0  0  0  0  0
   -2.9384    0.4921   -8.0760 C   0  0  0  0  0  0  0  0  0  0  0  0
    1.3272    1.0205   -5.9158 C   0  0  0  0  0  0  0  0  0  0  0  0
    2.7264    0.9951   -5.9124 C   0  0  0  0  0  0  0  0  0  0  0  0
    3.4628    0.9094   -4.7094 N   0  0  0  0  0  0  0  0  0  0  0  0
    3.1540    1.5354   -3.4999 C   0  0  0  0  0  0  0  0  0  0  0  0
    4.1711    1.8545   -2.6905 N   0  0  0  0  0  0  0  0  0  0  0  0
    3.8617    2.4831   -1.5397 C   0  0  0  0  0  0  0  0  0  0  0  0
    2.5766    2.7819   -1.1521 C   0  0  0  0  0  0  0  0  0  0  0  0
    1.5925    2.4248   -2.0401 C   0  0  0  0  0  0  0  0  0  0  0  0
    0.1660    2.6807   -1.8435 C   0  0  0  0  0  0  0  0  0  0  0  0
   -1.0019    1.9360   -2.1146 C   0  0  0  0  0  0  0  0  0  0  0  0
   -1.1433    0.5568   -2.5945 C   0  0  0  0  0  0  0  0  0  0  0  0
   -0.1346   -0.3964   -2.4343 C   0  0  0  0  0  0  0  0  0  0  0  0
   -0.3170   -1.7135   -2.8569 C   0  0  0  0  0  0  0  0  0  0  0  0
   -1.5499   -2.1203   -3.3581 C   0  0  0  0  0  0  0  0  0  0  0  0
   -2.6115   -1.2216   -3.4383 C   0  0  0  0  0  0  0  0  0  0  0  0
   -3.9365   -1.6316   -3.7295 N   0  0  0  0  0  0  0  0  0  0  0  0
   -4.4171   -2.9271   -3.5559 C   0  0  0  0  0  0  0  0  0  0  0  0
   -3.7515   -3.9135   -3.2450 O   0  0  0  0  0  0  0  0  0  0  0  0
   -5.9240   -3.0554   -3.7225 C   0  0  0  0  0  0  0  0  0  0  0  0
   -6.6896   -2.7230   -2.4622 C   0  0  0  0  0  0  0  0  0  0  0  0
   -7.7386   -1.7949   -2.4941 C   0  0  0  0  0  0  0  0  0  0  0  0
   -8.4379   -1.4761   -1.3275 C   0  0  0  0  0  0  0  0  0  0  0  0
   -8.1061   -2.0878   -0.1213 C   0  0  0  0  0  0  0  0  0  0  0  0
   -7.0859   -3.0341   -0.0820 C   0  0  0  0  0  0  0  0  0  0  0  0
   -6.3868   -3.3566   -1.2462 C   0  0  0  0  0  0  0  0  0  0  0  0
   -2.3782    0.1299   -3.1328 C   0  0  0  0  0  0  0  0  0  0  0  0
   -2.1536    2.6661   -1.8122 N   0  0  0  0  0  0  0  0  0  0  0  0
   -1.6847    3.7937   -1.3624 C   0  0  0  0  0  0  0  0  0  0  0  0
   -2.4155    5.2502   -0.7648 S   0  0  0  0  0  0  0  0  0  0  0  0
   -0.7998    5.9320   -0.5563 C   0  0  0  0  0  0  0  0  0  0  0  0
    0.1742    5.0861   -0.9312 C   0  0  0  0  0  0  0  0  0  0  0  0
   -0.3271    3.8763   -1.3694 N   0  0  0  0  0  0  0  0  0  0  0  0
    1.8760    1.8244   -3.2023 N   0  0  0  0  0  0  0  0  0  0  0  0
    6.5384    1.0421   -8.1080 H   0  0  0  0  0  0  0  0  0  0  0  0
    5.3204    2.2156   -8.6247 H   0  0  0  0  0  0  0  0  0  0  0  0
    5.1842    0.4742   -9.0903 H   0  0  0  0  0  0  0  0  0  0  0  0
    3.1630    1.4915   -9.2753 H   0  0  0  0  0  0  0  0  0  0  0  0
    0.7461    1.7446   -9.1795 H   0  0  0  0  0  0  0  0  0  0  0  0
   -1.2356    2.3075   -7.2474 H   0  0  0  0  0  0  0  0  0  0  0  0
   -1.2759    1.0167   -6.0512 H   0  0  0  0  0  0  0  0  0  0  0  0
   -0.0166   -1.1644   -7.8435 H   0  0  0  0  0  0  0  0  0  0  0  0
   -1.5052   -1.6725   -8.6002 H   0  0  0  0  0  0  0  0  0  0  0  0
   -1.4670   -1.3869   -6.8444 H   0  0  0  0  0  0  0  0  0  0  0  0
   -3.2377    1.5264   -8.2793 H   0  0  0  0  0  0  0  0  0  0  0  0
   -3.3870    0.1831   -7.1246 H   0  0  0  0  0  0  0  0  0  0  0  0
   -3.3653   -0.1212   -8.8767 H   0  0  0  0  0  0  0  0  0  0  0  0
    0.7766    0.8295   -5.0000 H   0  0  0  0  0  0  0  0  0  0  0  0
    4.4675    0.9457   -4.8615 H   0  0  0  0  0  0  0  0  0  0  0  0
    4.7122    2.7523   -0.9190 H   0  0  0  0  0  0  0  0  0  0  0  0
    2.3779    3.2635   -0.2055 H   0  0  0  0  0  0  0  0  0  0  0  0
    0.8136   -0.1497   -1.9692 H   0  0  0  0  0  0  0  0  0  0  0  0
    0.4878   -2.4339   -2.7552 H   0  0  0  0  0  0  0  0  0  0  0  0
   -1.6597   -3.1602   -3.6503 H   0  0  0  0  0  0  0  0  0  0  0  0
   -4.6300   -0.8947   -3.7809 H   0  0  0  0  0  0  0  0  0  0  0  0
   -6.1487   -4.0887   -4.0148 H   0  0  0  0  0  0  0  0  0  0  0  0
   -6.2433   -2.4220   -4.5590 H   0  0  0  0  0  0  0  0  0  0  0  0
   -8.0228   -1.3119   -3.4260 H   0  0  0  0  0  0  0  0  0  0  0  0
   -9.2438   -0.7466   -1.3611 H   0  0  0  0  0  0  0  0  0  0  0  0
   -8.6456   -1.8305    0.7873 H   0  0  0  0  0  0  0  0  0  0  0  0
   -6.8301   -3.5213    0.8570 H   0  0  0  0  0  0  0  0  0  0  0  0
   -5.5955   -4.1043   -1.1942 H   0  0  0  0  0  0  0  0  0  0  0  0
   -3.1841    0.8546   -3.2369 H   0  0  0  0  0  0  0  0  0  0  0  0
   -0.6501    6.9312   -0.1712 H   0  0  0  0  0  0  0  0  0  0  0  0
    1.2363    5.2840   -0.9061 H   0  0  0  0  0  0  0  0  0  0  0  0
  1  2  1  0  0  0  0
  1 44  1  0  0  0  0
  1 45  1  0  0  0  0
  1 46  1  0  0  0  0
  2  3  1  0  0  0  0
  3  4  1  0  0  0  0
  3 12  2  0  0  0  0
  4  5  2  0  0  0  0
  4 47  1  0  0  0  0
  5  6  1  0  0  0  0
  5 48  1  0  0  0  0
  6  7  1  0  0  0  0
  6 11  2  0  0  0  0
  7  8  1  0  0  0  0
  7 49  1  0  0  0  0
  7 50  1  0  0  0  0
  8  9  1  0  0  0  0
  8 10  1  0  0  0  0
  9 51  1  0  0  0  0
  9 52  1  0  0  0  0
  9 53  1  0  0  0  0
 10 54  1  0  0  0  0
 10 55  1  0  0  0  0
 10 56  1  0  0  0  0
 11 12  1  0  0  0  0
 11 57  1  0  0  0  0
 12 13  1  0  0  0  0
 13 14  1  0  0  0  0
 13 58  1  0  0  0  0
 14 15  1  0  0  0  0
 14 43  2  0  0  0  0
 15 16  2  0  0  0  0
 16 17  1  0  0  0  0
 16 59  1  0  0  0  0
 17 18  2  0  0  0  0
 17 60  1  0  0  0  0
 18 19  1  0  0  0  0
 18 43  1  0  0  0  0
 19 20  2  0  0  0  0
 19 42  1  0  0  0  0
 20 21  1  0  0  0  0
 20 37  1  0  0  0  0
 21 22  1  0  0  0  0
 21 36  2  0  0  0  0
 22 23  2  0  0  0  0
 22 61  1  0  0  0  0
 23 24  1  0  0  0  0
 23 62  1  0  0  0  0
 24 25  2  0  0  0  0
 24 63  1  0  0  0  0
 25 26  1  0  0  0  0
 25 36  1  0  0  0  0
 26 27  1  0  0  0  0
 26 64  1  0  0  0  0
 27 28  2  0  0  0  0
 27 29  1  0  0  0  0
 29 30  1  0  0  0  0
 29 65  1  0  0  0  0
 29 66  1  0  0  0  0
 30 31  1  0  0  0  0
 30 35  2  0  0  0  0
 31 32  2  0  0  0  0
 31 67  1  0  0  0  0
 32 33  1  0  0  0  0
 32 68  1  0  0  0  0
 33 34  2  0  0  0  0
 33 69  1  0  0  0  0
 34 35  1  0  0  0  0
 34 70  1  0  0  0  0
 35 71  1  0  0  0  0
 36 72  1  0  0  0  0
 37 38  2  0  0  0  0
 38 39  1  0  0  0  0
 38 42  1  0  0  0  0
 39 40  1  0  0  0  0
 40 41  2  0  0  0  0
 40 73  1  0  0  0  0
 41 42  1  0  0  0  0
 41 74  1  0  0  0  0
M  END
$$$$
