CHEMBL3287305
 OpenBabel04072215363D

 67 71  0  0  0  0  0  0  0  0999 V2000
    7.2723    1.6190    9.0357 C   0  0  0  0  0  0  0  0  0  0  0  0
    7.6762    0.9071   10.6147 S   0  0  0  0  0  0  0  0  0  0  0  0
    7.6666    1.9637   11.6096 O   0  0  0  0  0  0  0  0  0  0  0  0
    6.7918   -0.2381   10.7873 O   0  0  0  0  0  0  0  0  0  0  0  0
    9.3325    0.2614   10.4433 C   0  0  0  0  0  0  0  0  0  0  0  0
   10.3201    1.3456   10.1125 C   0  0  0  0  0  0  0  0  0  0  0  0
   10.9772    2.0622   11.1186 C   0  0  0  0  0  0  0  0  0  0  0  0
   11.9293    3.0287   10.7904 C   0  0  0  0  0  0  0  0  0  0  0  0
   12.2161    3.3049    9.4530 C   0  0  0  0  0  0  0  0  0  0  0  0
   11.5277    2.6468    8.4322 C   0  0  0  0  0  0  0  0  0  0  0  0
   11.8340    2.9340    7.0914 N   0  0  0  0  0  0  0  0  0  0  0  0
   10.9389    2.8375    6.0214 C   0  0  0  0  0  0  0  0  0  0  0  0
    9.6426    3.1542    6.1893 N   0  0  0  0  0  0  0  0  0  0  0  0
    8.8474    3.1108    5.1062 C   0  0  0  0  0  0  0  0  0  0  0  0
    9.2918    2.7564    3.8599 C   0  0  0  0  0  0  0  0  0  0  0  0
   10.6282    2.4553    3.7914 C   0  0  0  0  0  0  0  0  0  0  0  0
   11.1388    2.1477    2.5344 O   0  0  0  0  0  0  0  0  0  0  0  0
   12.4595    2.4681    2.3061 C   0  0  0  0  0  0  0  0  0  0  0  0
   13.2167    1.5700    1.5594 C   0  0  0  0  0  0  0  0  0  0  0  0
   14.5733    1.8251    1.3256 C   0  0  0  0  0  0  0  0  0  0  0  0
   15.1835    2.9769    1.8343 C   0  0  0  0  0  0  0  0  0  0  0  0
   16.5551    3.2685    1.6907 N   0  0  0  0  0  0  0  0  0  0  0  0
   17.5104    2.4809    1.0834 C   0  0  0  0  0  0  0  0  0  0  0  0
   17.3611    1.3847    0.5636 O   0  0  0  0  0  0  0  0  0  0  0  0
   18.8900    3.0572    1.1179 C   0  0  0  0  0  0  0  0  0  0  0  0
   19.6526    2.8333    2.3865 C   0  0  0  0  0  0  0  0  0  0  0  0
   19.8473    3.8056    3.1086 O   0  0  0  0  0  0  0  0  0  0  0  0
   20.0746    1.5353    2.6011 N   0  0  0  0  0  0  0  0  0  0  0  0
   20.8332    1.0978    3.7118 C   0  0  0  0  0  0  0  0  0  0  0  0
   20.9865    1.8715    4.8676 C   0  0  0  0  0  0  0  0  0  0  0  0
   21.8350    1.4657    5.8996 C   0  0  0  0  0  0  0  0  0  0  0  0
   22.5260    0.2667    5.7904 C   0  0  0  0  0  0  0  0  0  0  0  0
   23.6202   -0.1990    7.0324 Cl  0  0  0  0  0  0  0  0  0  0  0  0
   22.3390   -0.5493    4.6761 C   0  0  0  0  0  0  0  0  0  0  0  0
   21.4823   -0.1407    3.6426 C   0  0  0  0  0  0  0  0  0  0  0  0
   19.1487    4.3772    0.3805 C   0  0  0  0  0  0  0  0  0  0  0  0
   19.6623    3.1007   -0.2010 C   0  0  0  0  0  0  0  0  0  0  0  0
   14.3993    3.9011    2.5325 C   0  0  0  0  0  0  0  0  0  0  0  0
   13.0411    3.6579    2.7488 C   0  0  0  0  0  0  0  0  0  0  0  0
   11.4574    2.4569    4.8540 N   0  0  0  0  0  0  0  0  0  0  0  0
   10.6158    1.6409    8.7752 C   0  0  0  0  0  0  0  0  0  0  0  0
    6.2416    1.9817    9.0803 H   0  0  0  0  0  0  0  0  0  0  0  0
    7.3553    0.8474    8.2663 H   0  0  0  0  0  0  0  0  0  0  0  0
    7.9358    2.4576    8.8246 H   0  0  0  0  0  0  0  0  0  0  0  0
    9.3129   -0.5100    9.6660 H   0  0  0  0  0  0  0  0  0  0  0  0
    9.5921   -0.2256   11.3879 H   0  0  0  0  0  0  0  0  0  0  0  0
   10.7575    1.8713   12.1677 H   0  0  0  0  0  0  0  0  0  0  0  0
   12.4436    3.5741   11.5781 H   0  0  0  0  0  0  0  0  0  0  0  0
   12.9542    4.0666    9.2102 H   0  0  0  0  0  0  0  0  0  0  0  0
   12.7028    2.5092    6.7858 H   0  0  0  0  0  0  0  0  0  0  0  0
    7.8143    3.3959    5.2805 H   0  0  0  0  0  0  0  0  0  0  0  0
    8.6460    2.7459    2.9951 H   0  0  0  0  0  0  0  0  0  0  0  0
   12.7688    0.6589    1.1728 H   0  0  0  0  0  0  0  0  0  0  0  0
   15.1293    1.0920    0.7506 H   0  0  0  0  0  0  0  0  0  0  0  0
   16.8847    4.1215    2.1316 H   0  0  0  0  0  0  0  0  0  0  0  0
   19.8992    0.8616    1.8604 H   0  0  0  0  0  0  0  0  0  0  0  0
   20.4515    2.8059    5.0023 H   0  0  0  0  0  0  0  0  0  0  0  0
   21.9541    2.1038    6.7706 H   0  0  0  0  0  0  0  0  0  0  0  0
   22.8729   -1.4927    4.5980 H   0  0  0  0  0  0  0  0  0  0  0  0
   21.3687   -0.7885    2.7768 H   0  0  0  0  0  0  0  0  0  0  0  0
   19.8801    5.0671    0.7946 H   0  0  0  0  0  0  0  0  0  0  0  0
   18.3210    4.8722   -0.1140 H   0  0  0  0  0  0  0  0  0  0  0  0
   20.7320    2.9273   -0.1818 H   0  0  0  0  0  0  0  0  0  0  0  0
   19.1729    2.7282   -1.0951 H   0  0  0  0  0  0  0  0  0  0  0  0
   14.8289    4.8131    2.9381 H   0  0  0  0  0  0  0  0  0  0  0  0
   12.4555    4.3904    3.2971 H   0  0  0  0  0  0  0  0  0  0  0  0
   10.1206    1.0856    7.9813 H   0  0  0  0  0  0  0  0  0  0  0  0
  1  2  1  0  0  0  0
  1 42  1  0  0  0  0
  1 43  1  0  0  0  0
  1 44  1  0  0  0  0
  2  3  2  0  0  0  0
  2  4  2  0  0  0  0
  2  5  1  0  0  0  0
  5  6  1  0  0  0  0
  5 45  1  0  0  0  0
  5 46  1  0  0  0  0
  6  7  1  0  0  0  0
  6 41  2  0  0  0  0
  7  8  2  0  0  0  0
  7 47  1  0  0  0  0
  8  9  1  0  0  0  0
  8 48  1  0  0  0  0
  9 10  2  0  0  0  0
  9 49  1  0  0  0  0
 10 11  1  0  0  0  0
 10 41  1  0  0  0  0
 11 12  1  0  0  0  0
 11 50  1  0  0  0  0
 12 13  1  0  0  0  0
 12 40  2  0  0  0  0
 13 14  2  0  0  0  0
 14 15  1  0  0  0  0
 14 51  1  0  0  0  0
 15 16  2  0  0  0  0
 15 52  1  0  0  0  0
 16 17  1  0  0  0  0
 16 40  1  0  0  0  0
 17 18  1  0  0  0  0
 18 19  1  0  0  0  0
 18 39  2  0  0  0  0
 19 20  2  0  0  0  0
 19 53  1  0  0  0  0
 20 21  1  0  0  0  0
 20 54  1  0  0  0  0
 21 22  1  0  0  0  0
 21 38  2  0  0  0  0
 22 23  1  0  0  0  0
 22 55  1  0  0  0  0
 23 24  2  0  0  0  0
 23 25  1  0  0  0  0
 25 26  1  0  0  0  0
 25 36  1  0  0  0  0
 25 37  1  0  0  0  0
 26 27  2  0  0  0  0
 26 28  1  0  0  0  0
 28 29  1  0  0  0  0
 28 56  1  0  0  0  0
 29 30  1  0  0  0  0
 29 35  2  0  0  0  0
 30 31  2  0  0  0  0
 30 57  1  0  0  0  0
 31 32  1  0  0  0  0
 31 58  1  0  0  0  0
 32 33  1  0  0  0  0
 32 34  2  0  0  0  0
 34 35  1  0  0  0  0
 34 59  1  0  0  0  0
 35 60  1  0  0  0  0
 36 37  1  0  0  0  0
 36 61  1  0  0  0  0
 36 62  1  0  0  0  0
 37 63  1  0  0  0  0
 37 64  1  0  0  0  0
 38 39  1  0  0  0  0
 38 65  1  0  0  0  0
 39 66  1  0  0  0  0
 41 67  1  0  0  0  0
M  END
$$$$
