CHEMBL2086739
 OpenBabel04072215363D

 43 47  0  0  0  0  0  0  0  0999 V2000
    1.0105   -0.5385   -0.4172 N   0  0  0  0  0  0  0  0  0  0  0  0
    2.3758   -0.3035   -0.1961 C   0  0  0  0  0  0  0  0  0  0  0  0
    3.2923   -1.3638   -0.1284 C   0  0  0  0  0  0  0  0  0  0  0  0
    4.6660   -1.1232   -0.0164 C   0  0  0  0  0  0  0  0  0  0  0  0
    5.0756    0.1955    0.0381 C   0  0  0  0  0  0  0  0  0  0  0  0
    4.1868    1.2679   -0.0297 C   0  0  0  0  0  0  0  0  0  0  0  0
    2.8498    1.0087   -0.2521 C   0  0  0  0  0  0  0  0  0  0  0  0
    4.9821    2.5076    0.0794 C   0  0  0  0  0  0  0  0  0  0  0  0
    4.5952    3.8062    0.1946 C   0  0  0  0  0  0  0  0  0  0  0  0
    5.6362    4.8633    0.1564 C   0  0  0  0  0  0  0  0  0  0  0  0
    6.0318    5.4009   -1.0793 C   0  0  0  0  0  0  0  0  0  0  0  0
    6.9262    6.4669   -1.1234 C   0  0  0  0  0  0  0  0  0  0  0  0
    7.4357    6.9932    0.0633 C   0  0  0  0  0  0  0  0  0  0  0  0
    7.0525    6.4572    1.2943 C   0  0  0  0  0  0  0  0  0  0  0  0
    6.1469    5.3994    1.3437 C   0  0  0  0  0  0  0  0  0  0  0  0
    3.2092    4.1917    0.2880 C   0  0  0  0  0  0  0  0  0  0  0  0
    2.1334    3.6413    0.8281 N   0  0  0  0  0  0  0  0  0  0  0  0
    1.0603    4.3933    0.4018 C   0  0  0  0  0  0  0  0  0  0  0  0
   -0.3232    4.1857    0.5453 C   0  0  0  0  0  0  0  0  0  0  0  0
   -1.2049    5.0859   -0.0753 C   0  0  0  0  0  0  0  0  0  0  0  0
   -0.7240    6.1822   -0.7966 C   0  0  0  0  0  0  0  0  0  0  0  0
    0.6465    6.4251   -0.9148 C   0  0  0  0  0  0  0  0  0  0  0  0
    1.4947    5.4982   -0.3120 C   0  0  0  0  0  0  0  0  0  0  0  0
    2.8571    5.4063   -0.2648 N   0  0  0  0  0  0  0  0  0  0  0  0
    6.4371    2.0399    0.0969 C   0  0  0  0  0  0  0  0  0  0  0  0
    7.4617    2.6958    0.1107 O   0  0  0  0  0  0  0  0  0  0  0  0
    6.3832    0.6537    0.1067 N   0  0  0  0  0  0  0  0  0  0  0  0
    0.6748   -1.3789    0.0410 H   0  0  0  0  0  0  0  0  0  0  0  0
    0.4448    0.2708   -0.1653 H   0  0  0  0  0  0  0  0  0  0  0  0
    2.9348   -2.3895   -0.1786 H   0  0  0  0  0  0  0  0  0  0  0  0
    5.3721   -1.9440    0.0119 H   0  0  0  0  0  0  0  0  0  0  0  0
    2.1511    1.8057   -0.4593 H   0  0  0  0  0  0  0  0  0  0  0  0
    5.6360    4.9978   -2.0091 H   0  0  0  0  0  0  0  0  0  0  0  0
    7.2299    6.8845   -2.0795 H   0  0  0  0  0  0  0  0  0  0  0  0
    8.1441    7.8155    0.0296 H   0  0  0  0  0  0  0  0  0  0  0  0
    7.4601    6.8658    2.2145 H   0  0  0  0  0  0  0  0  0  0  0  0
    5.8449    4.9939    2.3062 H   0  0  0  0  0  0  0  0  0  0  0  0
   -0.6984    3.3305    1.0959 H   0  0  0  0  0  0  0  0  0  0  0  0
   -2.2782    4.9243   -0.0026 H   0  0  0  0  0  0  0  0  0  0  0  0
   -1.4254    6.8590   -1.2804 H   0  0  0  0  0  0  0  0  0  0  0  0
    1.0278    7.2727   -1.4725 H   0  0  0  0  0  0  0  0  0  0  0  0
    3.4973    6.0778   -0.6593 H   0  0  0  0  0  0  0  0  0  0  0  0
    7.2129    0.0814    0.1144 H   0  0  0  0  0  0  0  0  0  0  0  0
  1  2  1  0  0  0  0
  1 28  1  0  0  0  0
  1 29  1  0  0  0  0
  2  3  1  0  0  0  0
  2  7  2  0  0  0  0
  3  4  2  0  0  0  0
  3 30  1  0  0  0  0
  4  5  1  0  0  0  0
  4 31  1  0  0  0  0
  5  6  2  0  0  0  0
  5 27  1  0  0  0  0
  6  7  1  0  0  0  0
  6  8  1  0  0  0  0
  7 32  1  0  0  0  0
  8  9  2  3  0  0  0
  8 25  1  0  0  0  0
  9 10  1  0  0  0  0
  9 16  1  0  0  0  0
 10 11  1  0  0  0  0
 10 15  2  0  0  0  0
 11 12  2  0  0  0  0
 11 33  1  0  0  0  0
 12 13  1  0  0  0  0
 12 34  1  0  0  0  0
 13 14  2  0  0  0  0
 13 35  1  0  0  0  0
 14 15  1  0  0  0  0
 14 36  1  0  0  0  0
 15 37  1  0  0  0  0
 16 17  2  0  0  0  0
 16 24  1  0  0  0  0
 17 18  1  0  0  0  0
 18 19  1  0  0  0  0
 18 23  2  0  0  0  0
 19 20  2  0  0  0  0
 19 38  1  0  0  0  0
 20 21  1  0  0  0  0
 20 39  1  0  0  0  0
 21 22  2  0  0  0  0
 21 40  1  0  0  0  0
 22 23  1  0  0  0  0
 22 41  1  0  0  0  0
 23 24  1  0  0  0  0
 24 42  1  0  0  0  0
 25 26  2  0  0  0  0
 25 27  1  0  0  0  0
 27 43  1  0  0  0  0
M  END
$$$$
