CHEMBL3656027
 OpenBabel04072215373D

 54 57  0  0  0  0  0  0  0  0999 V2000
   -0.5686    0.9306    2.6772 C   0  0  0  0  0  0  0  0  0  0  0  0
   -1.7802    0.9452    1.8111 C   0  0  0  0  0  0  0  0  0  0  0  0
   -2.4331    2.1049    1.3081 C   0  0  0  0  0  0  0  0  0  0  0  0
   -3.4886    1.6609    0.5509 C   0  0  0  0  0  0  0  0  0  0  0  0
   -3.5371    0.3061    0.5457 O   0  0  0  0  0  0  0  0  0  0  0  0
   -2.4974   -0.1414    1.3198 C   0  0  0  0  0  0  0  0  0  0  0  0
   -2.3187   -1.5776    1.4974 C   0  0  0  0  0  0  0  0  0  0  0  0
   -1.4286   -2.0227    2.2147 O   0  0  0  0  0  0  0  0  0  0  0  0
   -3.2133   -2.3586    0.7625 N   0  0  0  0  0  0  0  0  0  0  0  0
   -3.2719   -3.7726    0.7448 C   0  0  0  0  0  0  0  0  0  0  0  0
   -2.6330   -4.5567    1.7085 C   0  0  0  0  0  0  0  0  0  0  0  0
   -2.6294   -5.9469    1.6214 C   0  0  0  0  0  0  0  0  0  0  0  0
   -3.2886   -6.5766    0.5751 C   0  0  0  0  0  0  0  0  0  0  0  0
   -4.0440   -5.8223   -0.3258 C   0  0  0  0  0  0  0  0  0  0  0  0
   -4.8141   -6.3850   -1.3248 O   0  0  0  0  0  0  0  0  0  0  0  0
   -5.3896   -7.6250   -1.1267 C   0  0  0  0  0  0  0  0  0  0  0  0
   -5.8374   -8.1040    0.1017 C   0  0  0  0  0  0  0  0  0  0  0  0
   -6.3389   -9.3933    0.1593 C   0  0  0  0  0  0  0  0  0  0  0  0
   -6.4685  -10.2020   -0.9159 N   0  0  0  0  0  0  0  0  0  0  0  0
   -6.0819   -9.6909   -2.1119 C   0  0  0  0  0  0  0  0  0  0  0  0
   -6.2551  -10.5835   -3.2522 C   0  0  0  0  0  0  0  0  0  0  0  0
   -5.9739  -10.4231   -4.5997 C   0  0  0  0  0  0  0  0  0  0  0  0
   -6.3878  -11.5893   -5.3112 C   0  0  0  0  0  0  0  0  0  0  0  0
   -6.3060  -11.8057   -6.7565 C   0  0  0  0  0  0  0  0  0  0  0  0
   -5.8507  -10.9727   -7.5309 O   0  0  0  0  0  0  0  0  0  0  0  0
   -6.7907  -13.0182   -7.1842 N   0  0  0  0  0  0  0  0  0  0  0  0
   -6.8025  -13.4001   -8.5773 C   0  0  0  0  0  0  0  0  0  0  0  0
   -7.3929  -14.7972   -8.7200 C   0  0  0  0  0  0  0  0  0  0  0  0
   -7.7906  -15.4734   -7.7801 O   0  0  0  0  0  0  0  0  0  0  0  0
   -7.4412  -15.2346   -9.9995 O   0  0  0  0  0  0  0  0  0  0  0  0
   -6.8868  -12.4513   -4.3474 C   0  0  0  0  0  0  0  0  0  0  0  0
   -6.7814  -11.8502   -3.1187 N   0  0  0  0  0  0  0  0  0  0  0  0
   -5.5528   -8.4151   -2.2585 C   0  0  0  0  0  0  0  0  0  0  0  0
   -4.0052   -4.4191   -0.2652 C   0  0  0  0  0  0  0  0  0  0  0  0
   -0.2047    1.9506    2.8502 H   0  0  0  0  0  0  0  0  0  0  0  0
    0.2434    0.3677    2.2062 H   0  0  0  0  0  0  0  0  0  0  0  0
   -0.7887    0.4874    3.6522 H   0  0  0  0  0  0  0  0  0  0  0  0
   -2.1594    3.1376    1.4754 H   0  0  0  0  0  0  0  0  0  0  0  0
   -4.2587    2.1609   -0.0205 H   0  0  0  0  0  0  0  0  0  0  0  0
   -3.8108   -1.8489    0.1222 H   0  0  0  0  0  0  0  0  0  0  0  0
   -2.1237   -4.1118    2.5573 H   0  0  0  0  0  0  0  0  0  0  0  0
   -2.1113   -6.5338    2.3743 H   0  0  0  0  0  0  0  0  0  0  0  0
   -3.2309   -7.6587    0.5019 H   0  0  0  0  0  0  0  0  0  0  0  0
   -5.7717   -7.5126    1.0075 H   0  0  0  0  0  0  0  0  0  0  0  0
   -6.6472   -9.8219    1.1096 H   0  0  0  0  0  0  0  0  0  0  0  0
   -5.5306   -9.5428   -5.0484 H   0  0  0  0  0  0  0  0  0  0  0  0
   -7.1633  -13.6833   -6.5183 H   0  0  0  0  0  0  0  0  0  0  0  0
   -5.7739  -13.3948   -8.9489 H   0  0  0  0  0  0  0  0  0  0  0  0
   -7.4157  -12.6833   -9.1309 H   0  0  0  0  0  0  0  0  0  0  0  0
   -7.0925  -14.5983  -10.6536 H   0  0  0  0  0  0  0  0  0  0  0  0
   -7.3131  -13.4416   -4.4171 H   0  0  0  0  0  0  0  0  0  0  0  0
   -7.0555  -12.2511   -2.2325 H   0  0  0  0  0  0  0  0  0  0  0  0
   -5.2583   -8.0403   -3.2312 H   0  0  0  0  0  0  0  0  0  0  0  0
   -4.5322   -3.8484   -1.0256 H   0  0  0  0  0  0  0  0  0  0  0  0
  1  2  1  0  0  0  0
  1 35  1  0  0  0  0
  1 36  1  0  0  0  0
  1 37  1  0  0  0  0
  2  3  1  0  0  0  0
  2  6  2  0  0  0  0
  3  4  2  0  0  0  0
  3 38  1  0  0  0  0
  4  5  1  0  0  0  0
  4 39  1  0  0  0  0
  5  6  1  0  0  0  0
  6  7  1  0  0  0  0
  7  8  2  0  0  0  0
  7  9  1  0  0  0  0
  9 10  1  0  0  0  0
  9 40  1  0  0  0  0
 10 11  1  0  0  0  0
 10 34  2  0  0  0  0
 11 12  2  0  0  0  0
 11 41  1  0  0  0  0
 12 13  1  0  0  0  0
 12 42  1  0  0  0  0
 13 14  2  0  0  0  0
 13 43  1  0  0  0  0
 14 15  1  0  0  0  0
 14 34  1  0  0  0  0
 15 16  1  0  0  0  0
 16 17  1  0  0  0  0
 16 33  2  0  0  0  0
 17 18  2  0  0  0  0
 17 44  1  0  0  0  0
 18 19  1  0  0  0  0
 18 45  1  0  0  0  0
 19 20  2  0  0  0  0
 20 21  1  0  0  0  0
 20 33  1  0  0  0  0
 21 22  2  0  0  0  0
 21 32  1  0  0  0  0
 22 23  1  0  0  0  0
 22 46  1  0  0  0  0
 23 24  1  0  0  0  0
 23 31  2  0  0  0  0
 24 25  2  0  0  0  0
 24 26  1  0  0  0  0
 26 27  1  0  0  0  0
 26 47  1  0  0  0  0
 27 28  1  0  0  0  0
 27 48  1  0  0  0  0
 27 49  1  0  0  0  0
 28 29  2  0  0  0  0
 28 30  1  0  0  0  0
 30 50  1  0  0  0  0
 31 32  1  0  0  0  0
 31 51  1  0  0  0  0
 32 52  1  0  0  0  0
 33 53  1  0  0  0  0
 34 54  1  0  0  0  0
M  END
$$$$
