CHEMBL3397927
 OpenBabel04072215363D

 58 60  0  0  0  0  0  0  0  0999 V2000
    1.0001   -0.0770   -0.2979 C   0  0  0  0  0  0  0  0  0  0  0  0
    2.5057    0.1692   -0.3516 C   0  0  0  0  0  0  0  0  0  0  0  0
    2.9568    1.4314    0.2629 N   0  0  0  0  0  0  0  0  0  0  0  0
    2.5135    1.6028    1.6574 C   0  0  0  0  0  0  0  0  0  0  0  0
    3.1109    0.6380    2.6769 C   0  0  0  0  0  0  0  0  0  0  0  0
    4.4193    1.5736    0.0687 C   0  0  0  0  0  0  0  0  0  0  0  0
    5.0283    2.8802    0.5979 C   0  0  0  0  0  0  0  0  0  0  0  0
    6.4408    2.9114    0.3225 O   0  0  0  0  0  0  0  0  0  0  0  0
    7.0884    4.0220    0.7999 C   0  0  0  0  0  0  0  0  0  0  0  0
    6.6573    4.7763    1.8867 C   0  0  0  0  0  0  0  0  0  0  0  0
    7.3631    5.9112    2.2849 C   0  0  0  0  0  0  0  0  0  0  0  0
    8.5175    6.3183    1.6216 C   0  0  0  0  0  0  0  0  0  0  0  0
    9.2294    7.4967    1.9675 N   0  0  0  0  0  0  0  0  0  0  0  0
    8.8789    8.3716    2.9799 C   0  0  0  0  0  0  0  0  0  0  0  0
    7.9516    8.2185    3.7721 O   0  0  0  0  0  0  0  0  0  0  0  0
    9.6784    9.6187    3.1441 C   0  0  0  0  0  0  0  0  0  0  0  0
   10.4253   10.2072    2.1267 C   0  0  0  0  0  0  0  0  0  0  0  0
   11.0505   11.4325    2.3654 C   0  0  0  0  0  0  0  0  0  0  0  0
   10.9081   12.0765    3.6025 C   0  0  0  0  0  0  0  0  0  0  0  0
   10.1375   11.5209    4.6370 C   0  0  0  0  0  0  0  0  0  0  0  0
    9.8947   12.2297    5.9145 C   0  0  0  0  0  0  0  0  0  0  0  0
    9.7292   11.5381    7.1313 C   0  0  0  0  0  0  0  0  0  0  0  0
    9.4788   12.2148    8.3308 C   0  0  0  0  0  0  0  0  0  0  0  0
    9.4104   13.6043    8.3468 C   0  0  0  0  0  0  0  0  0  0  0  0
    9.5729   14.3004    7.1569 C   0  0  0  0  0  0  0  0  0  0  0  0
    9.5376   15.6633    7.1203 O   0  0  0  0  0  0  0  0  0  0  0  0
    9.7880   13.6297    5.9552 C   0  0  0  0  0  0  0  0  0  0  0  0
    9.5529   10.2720    4.3863 C   0  0  0  0  0  0  0  0  0  0  0  0
    8.9773    5.5382    0.5545 C   0  0  0  0  0  0  0  0  0  0  0  0
    8.2674    4.3929    0.1533 C   0  0  0  0  0  0  0  0  0  0  0  0
    0.7345   -0.8904   -0.9818 H   0  0  0  0  0  0  0  0  0  0  0  0
    0.4340    0.8102   -0.5990 H   0  0  0  0  0  0  0  0  0  0  0  0
    0.6763   -0.3770    0.7043 H   0  0  0  0  0  0  0  0  0  0  0  0
    2.7858    0.1866   -1.4125 H   0  0  0  0  0  0  0  0  0  0  0  0
    3.0196   -0.6912    0.0935 H   0  0  0  0  0  0  0  0  0  0  0  0
    1.4200    1.5368    1.7053 H   0  0  0  0  0  0  0  0  0  0  0  0
    2.7157    2.6289    1.9817 H   0  0  0  0  0  0  0  0  0  0  0  0
    3.0710   -0.4010    2.3389 H   0  0  0  0  0  0  0  0  0  0  0  0
    2.5495    0.6968    3.6155 H   0  0  0  0  0  0  0  0  0  0  0  0
    4.1533    0.8883    2.8988 H   0  0  0  0  0  0  0  0  0  0  0  0
    4.6424    1.5244   -1.0058 H   0  0  0  0  0  0  0  0  0  0  0  0
    4.9548    0.7273    0.5193 H   0  0  0  0  0  0  0  0  0  0  0  0
    4.8660    2.9104    1.6777 H   0  0  0  0  0  0  0  0  0  0  0  0
    4.5476    3.7403    0.1165 H   0  0  0  0  0  0  0  0  0  0  0  0
    5.7793    4.5231    2.4666 H   0  0  0  0  0  0  0  0  0  0  0  0
    6.9542    6.4502    3.1314 H   0  0  0  0  0  0  0  0  0  0  0  0
   10.0660    7.6868    1.4316 H   0  0  0  0  0  0  0  0  0  0  0  0
   10.4988    9.7690    1.1389 H   0  0  0  0  0  0  0  0  0  0  0  0
   11.6264   11.9140    1.5791 H   0  0  0  0  0  0  0  0  0  0  0  0
   11.3970   13.0366    3.7421 H   0  0  0  0  0  0  0  0  0  0  0  0
    9.7922   10.4519    7.1653 H   0  0  0  0  0  0  0  0  0  0  0  0
    9.3420   11.6507    9.2501 H   0  0  0  0  0  0  0  0  0  0  0  0
    9.2243   14.1198    9.2832 H   0  0  0  0  0  0  0  0  0  0  0  0
    9.5627   15.9933    8.0335 H   0  0  0  0  0  0  0  0  0  0  0  0
    9.8608   14.2205    5.0459 H   0  0  0  0  0  0  0  0  0  0  0  0
    8.9392    9.8046    5.1549 H   0  0  0  0  0  0  0  0  0  0  0  0
    9.8788    5.8076    0.0119 H   0  0  0  0  0  0  0  0  0  0  0  0
    8.6281    3.8013   -0.6832 H   0  0  0  0  0  0  0  0  0  0  0  0
  1  2  1  0  0  0  0
  1 31  1  0  0  0  0
  1 32  1  0  0  0  0
  1 33  1  0  0  0  0
  2  3  1  0  0  0  0
  2 34  1  0  0  0  0
  2 35  1  0  0  0  0
  3  4  1  0  0  0  0
  3  6  1  0  0  0  0
  4  5  1  0  0  0  0
  4 36  1  0  0  0  0
  4 37  1  0  0  0  0
  5 38  1  0  0  0  0
  5 39  1  0  0  0  0
  5 40  1  0  0  0  0
  6  7  1  0  0  0  0
  6 41  1  0  0  0  0
  6 42  1  0  0  0  0
  7  8  1  0  0  0  0
  7 43  1  0  0  0  0
  7 44  1  0  0  0  0
  8  9  1  0  0  0  0
  9 10  1  0  0  0  0
  9 30  2  0  0  0  0
 10 11  2  0  0  0  0
 10 45  1  0  0  0  0
 11 12  1  0  0  0  0
 11 46  1  0  0  0  0
 12 13  1  0  0  0  0
 12 29  2  0  0  0  0
 13 14  1  0  0  0  0
 13 47  1  0  0  0  0
 14 15  2  0  0  0  0
 14 16  1  0  0  0  0
 16 17  1  0  0  0  0
 16 28  2  0  0  0  0
 17 18  2  0  0  0  0
 17 48  1  0  0  0  0
 18 19  1  0  0  0  0
 18 49  1  0  0  0  0
 19 20  2  0  0  0  0
 19 50  1  0  0  0  0
 20 21  1  0  0  0  0
 20 28  1  0  0  0  0
 21 22  1  0  0  0  0
 21 27  2  0  0  0  0
 22 23  2  0  0  0  0
 22 51  1  0  0  0  0
 23 24  1  0  0  0  0
 23 52  1  0  0  0  0
 24 25  2  0  0  0  0
 24 53  1  0  0  0  0
 25 26  1  0  0  0  0
 25 27  1  0  0  0  0
 26 54  1  0  0  0  0
 27 55  1  0  0  0  0
 28 56  1  0  0  0  0
 29 30  1  0  0  0  0
 29 57  1  0  0  0  0
 30 58  1  0  0  0  0
M  END
$$$$
