CHEMBL4169668
 OpenBabel04072215383D

 48 50  0  0  0  0  0  0  0  0999 V2000
    1.1005    0.0153    0.3295 C   0  0  0  0  0  0  0  0  0  0  0  0
    2.4369   -0.0653    0.3457 C   0  0  0  0  0  0  0  0  0  0  0  0
    3.1121   -1.3010    0.8243 C   0  0  0  0  0  0  0  0  0  0  0  0
    2.4868   -2.3323    1.0411 O   0  0  0  0  0  0  0  0  0  0  0  0
    4.4527   -1.1017    1.0453 N   0  0  0  0  0  0  0  0  0  0  0  0
    5.2861   -2.0769    1.5882 C   0  0  0  0  0  0  0  0  0  0  0  0
    5.2096   -3.4075    1.2069 C   0  0  0  0  0  0  0  0  0  0  0  0
    6.0631   -4.3235    1.8200 C   0  0  0  0  0  0  0  0  0  0  0  0
    6.9619   -3.9117    2.8146 C   0  0  0  0  0  0  0  0  0  0  0  0
    7.8970   -4.8504    3.4601 C   0  0  0  0  0  0  0  0  0  0  0  0
    8.4861   -5.8646    2.7021 C   0  0  0  0  0  0  0  0  0  0  0  0
    9.3984   -6.7572    3.2624 C   0  0  0  0  0  0  0  0  0  0  0  0
    9.7720   -6.6845    4.6052 C   0  0  0  0  0  0  0  0  0  0  0  0
   10.7022   -7.5807    5.1909 N   0  0  0  0  0  0  0  0  0  0  0  0
   11.2509   -8.6840    4.5463 C   0  0  0  0  0  0  0  0  0  0  0  0
   10.9300   -9.0326    3.4137 O   0  0  0  0  0  0  0  0  0  0  0  0
   12.1856   -9.3735    5.3010 N   0  0  0  0  0  0  0  0  0  0  0  0
   12.9238  -10.4700    4.7737 C   0  0  0  0  0  0  0  0  0  0  0  0
   13.1518  -10.6171    3.3983 C   0  0  0  0  0  0  0  0  0  0  0  0
   13.7600  -11.7555    2.8757 C   0  0  0  0  0  0  0  0  0  0  0  0
   14.2052  -12.7484    3.7338 C   0  0  0  0  0  0  0  0  0  0  0  0
   14.0672  -12.5984    5.1258 C   0  0  0  0  0  0  0  0  0  0  0  0
   14.5999  -13.6591    6.0521 C   0  0  0  0  0  0  0  0  0  0  0  0
   15.1766  -14.7136    5.4089 F   0  0  0  0  0  0  0  0  0  0  0  0
   15.5529  -13.1752    6.8966 F   0  0  0  0  0  0  0  0  0  0  0  0
   13.6327  -14.1921    6.8475 F   0  0  0  0  0  0  0  0  0  0  0  0
   13.4260  -11.4472    5.6372 C   0  0  0  0  0  0  0  0  0  0  0  0
    9.1995   -5.6733    5.3799 C   0  0  0  0  0  0  0  0  0  0  0  0
    8.2673   -4.7736    4.8144 C   0  0  0  0  0  0  0  0  0  0  0  0
    6.9612   -2.5473    3.0970 C   0  0  0  0  0  0  0  0  0  0  0  0
    6.1799   -1.6204    2.4837 N   0  0  0  0  0  0  0  0  0  0  0  0
    0.5997    0.9020   -0.0422 H   0  0  0  0  0  0  0  0  0  0  0  0
    0.4780   -0.8024    0.6848 H   0  0  0  0  0  0  0  0  0  0  0  0
    3.0490    0.7518   -0.0142 H   0  0  0  0  0  0  0  0  0  0  0  0
    4.7843   -0.1619    1.2054 H   0  0  0  0  0  0  0  0  0  0  0  0
    4.5238   -3.7369    0.4330 H   0  0  0  0  0  0  0  0  0  0  0  0
    6.0090   -5.3643    1.5067 H   0  0  0  0  0  0  0  0  0  0  0  0
    8.2654   -5.9748    1.6422 H   0  0  0  0  0  0  0  0  0  0  0  0
    9.8034   -7.4919    2.5760 H   0  0  0  0  0  0  0  0  0  0  0  0
   10.9738   -7.4087    6.1526 H   0  0  0  0  0  0  0  0  0  0  0  0
   12.0980   -9.3181    6.3040 H   0  0  0  0  0  0  0  0  0  0  0  0
   12.8490   -9.8530    2.6881 H   0  0  0  0  0  0  0  0  0  0  0  0
   13.8702  -11.8612    1.7995 H   0  0  0  0  0  0  0  0  0  0  0  0
   14.6661  -13.6405    3.3155 H   0  0  0  0  0  0  0  0  0  0  0  0
   13.2979  -11.3560    6.7133 H   0  0  0  0  0  0  0  0  0  0  0  0
    9.4506   -5.5651    6.4322 H   0  0  0  0  0  0  0  0  0  0  0  0
    7.8296   -4.0136    5.4599 H   0  0  0  0  0  0  0  0  0  0  0  0
    7.6241   -2.1287    3.8491 H   0  0  0  0  0  0  0  0  0  0  0  0
  1  2  2  0  0  0  0
  1 32  1  0  0  0  0
  1 33  1  0  0  0  0
  2  3  1  0  0  0  0
  2 34  1  0  0  0  0
  3  4  2  0  0  0  0
  3  5  1  0  0  0  0
  5  6  1  0  0  0  0
  5 35  1  0  0  0  0
  6  7  1  0  0  0  0
  6 31  2  0  0  0  0
  7  8  2  0  0  0  0
  7 36  1  0  0  0  0
  8  9  1  0  0  0  0
  8 37  1  0  0  0  0
  9 10  1  0  0  0  0
  9 30  2  0  0  0  0
 10 11  1  0  0  0  0
 10 29  2  0  0  0  0
 11 12  2  0  0  0  0
 11 38  1  0  0  0  0
 12 13  1  0  0  0  0
 12 39  1  0  0  0  0
 13 14  1  0  0  0  0
 13 28  2  0  0  0  0
 14 15  1  0  0  0  0
 14 40  1  0  0  0  0
 15 16  2  0  0  0  0
 15 17  1  0  0  0  0
 17 18  1  0  0  0  0
 17 41  1  0  0  0  0
 18 19  1  0  0  0  0
 18 27  2  0  0  0  0
 19 20  2  0  0  0  0
 19 42  1  0  0  0  0
 20 21  1  0  0  0  0
 20 43  1  0  0  0  0
 21 22  2  0  0  0  0
 21 44  1  0  0  0  0
 22 23  1  0  0  0  0
 22 27  1  0  0  0  0
 23 24  1  0  0  0  0
 23 25  1  0  0  0  0
 23 26  1  0  0  0  0
 27 45  1  0  0  0  0
 28 29  1  0  0  0  0
 28 46  1  0  0  0  0
 29 47  1  0  0  0  0
 30 31  1  0  0  0  0
 30 48  1  0  0  0  0
M  END
$$$$
