CHEMBL1972142
 OpenBabel04072215363D

 42 45  0  0  0  0  0  0  0  0999 V2000
    1.0232    0.1342    0.0201 O   0  0  0  0  0  0  0  0  0  0  0  0
    2.2300   -0.0722    0.1114 C   0  0  0  0  0  0  0  0  0  0  0  0
    2.9297    0.0209    1.2963 N   0  0  0  0  0  0  0  0  0  0  0  0
    2.2532    0.4520    2.4972 C   0  0  0  0  0  0  0  0  0  0  0  0
    2.9171   -0.0760    3.7408 C   0  0  0  0  0  0  0  0  0  0  0  0
    3.3898    0.8006    4.7268 C   0  0  0  0  0  0  0  0  0  0  0  0
    3.9144    0.3048    5.9220 C   0  0  0  0  0  0  0  0  0  0  0  0
    3.9755   -1.0701    6.1418 C   0  0  0  0  0  0  0  0  0  0  0  0
    3.5248   -1.9523    5.1619 C   0  0  0  0  0  0  0  0  0  0  0  0
    2.9994   -1.4586    3.9669 C   0  0  0  0  0  0  0  0  0  0  0  0
    3.0153   -0.4023   -1.1051 C   0  0  0  0  0  0  0  0  0  0  0  0
    2.5491    0.0562   -2.3405 C   0  0  0  0  0  0  0  0  0  0  0  0
    3.2600   -0.2328   -3.4994 C   0  0  0  0  0  0  0  0  0  0  0  0
    4.4397   -0.9747   -3.4242 C   0  0  0  0  0  0  0  0  0  0  0  0
    4.9461   -1.4385   -2.1929 C   0  0  0  0  0  0  0  0  0  0  0  0
    6.2530   -2.1263   -2.1063 C   0  0  0  0  0  0  0  0  0  0  0  0
    7.3100   -1.7817   -2.9640 C   0  0  0  0  0  0  0  0  0  0  0  0
    8.5742   -2.2759   -2.9569 N   0  0  0  0  0  0  0  0  0  0  0  0
    8.7647   -3.1743   -1.9796 C   0  0  0  0  0  0  0  0  0  0  0  0
    9.9557   -3.7978   -1.7291 N   0  0  0  0  0  0  0  0  0  0  0  0
    9.8194   -4.6412   -0.6570 C   0  0  0  0  0  0  0  0  0  0  0  0
    8.5115   -4.5642   -0.2228 C   0  0  0  0  0  0  0  0  0  0  0  0
    7.8349   -3.6318   -1.0555 C   0  0  0  0  0  0  0  0  0  0  0  0
    6.5326   -3.1026   -1.1322 C   0  0  0  0  0  0  0  0  0  0  0  0
    4.1920   -1.1608   -1.0379 C   0  0  0  0  0  0  0  0  0  0  0  0
    3.9372    0.1083    1.2745 H   0  0  0  0  0  0  0  0  0  0  0  0
    1.2088    0.1229    2.4821 H   0  0  0  0  0  0  0  0  0  0  0  0
    2.2508    1.5479    2.4856 H   0  0  0  0  0  0  0  0  0  0  0  0
    3.3320    1.8771    4.5816 H   0  0  0  0  0  0  0  0  0  0  0  0
    4.2606    0.9926    6.6893 H   0  0  0  0  0  0  0  0  0  0  0  0
    4.3659   -1.4538    7.0807 H   0  0  0  0  0  0  0  0  0  0  0  0
    3.5658   -3.0245    5.3352 H   0  0  0  0  0  0  0  0  0  0  0  0
    2.6289   -2.1560    3.2178 H   0  0  0  0  0  0  0  0  0  0  0  0
    1.6349    0.6438   -2.3982 H   0  0  0  0  0  0  0  0  0  0  0  0
    2.9037    0.1273   -4.4616 H   0  0  0  0  0  0  0  0  0  0  0  0
    4.9649   -1.1858   -4.3546 H   0  0  0  0  0  0  0  0  0  0  0  0
    7.1708   -1.0188   -3.7278 H   0  0  0  0  0  0  0  0  0  0  0  0
   10.7941   -3.6273   -2.2636 H   0  0  0  0  0  0  0  0  0  0  0  0
   10.6616   -5.2172   -0.2983 H   0  0  0  0  0  0  0  0  0  0  0  0
    8.0932   -5.1109    0.6122 H   0  0  0  0  0  0  0  0  0  0  0  0
    5.7805   -3.4440   -0.4302 H   0  0  0  0  0  0  0  0  0  0  0  0
    4.5276   -1.5321   -0.0731 H   0  0  0  0  0  0  0  0  0  0  0  0
  1  2  2  0  0  0  0
  2  3  1  0  0  0  0
  2 11  1  0  0  0  0
  3  4  1  0  0  0  0
  3 26  1  0  0  0  0
  4  5  1  0  0  0  0
  4 27  1  0  0  0  0
  4 28  1  0  0  0  0
  5  6  1  0  0  0  0
  5 10  2  0  0  0  0
  6  7  2  0  0  0  0
  6 29  1  0  0  0  0
  7  8  1  0  0  0  0
  7 30  1  0  0  0  0
  8  9  2  0  0  0  0
  8 31  1  0  0  0  0
  9 10  1  0  0  0  0
  9 32  1  0  0  0  0
 10 33  1  0  0  0  0
 11 12  1  0  0  0  0
 11 25  2  0  0  0  0
 12 13  2  0  0  0  0
 12 34  1  0  0  0  0
 13 14  1  0  0  0  0
 13 35  1  0  0  0  0
 14 15  2  0  0  0  0
 14 36  1  0  0  0  0
 15 16  1  0  0  0  0
 15 25  1  0  0  0  0
 16 17  1  0  0  0  0
 16 24  2  0  0  0  0
 17 18  2  0  0  0  0
 17 37  1  0  0  0  0
 18 19  1  0  0  0  0
 19 20  1  0  0  0  0
 19 23  2  0  0  0  0
 20 21  1  0  0  0  0
 20 38  1  0  0  0  0
 21 22  2  0  0  0  0
 21 39  1  0  0  0  0
 22 23  1  0  0  0  0
 22 40  1  0  0  0  0
 23 24  1  0  0  0  0
 24 41  1  0  0  0  0
 25 42  1  0  0  0  0
M  END
$$$$
