CHEMBL3968322
 OpenBabel04072215373D

 42 45  0  0  0  0  0  0  0  0999 V2000
    2.3740   -1.1780   -0.7768 C   0  0  0  0  0  0  0  0  0  0  0  0
    2.3484    0.0441   -0.0257 O   0  0  0  0  0  0  0  0  0  0  0  0
    3.0307    1.0764   -0.6219 C   0  0  0  0  0  0  0  0  0  0  0  0
    4.1422    0.8455   -1.4342 C   0  0  0  0  0  0  0  0  0  0  0  0
    4.7304    1.8856   -2.1798 C   0  0  0  0  0  0  0  0  0  0  0  0
    5.7520    1.6990   -3.1272 C   0  0  0  0  0  0  0  0  0  0  0  0
    6.2605    0.3980   -3.3364 N   0  0  0  0  0  0  0  0  0  0  0  0
    6.7043   -0.1943   -4.5317 C   0  0  0  0  0  0  0  0  0  0  0  0
    6.2674    0.2475   -5.7861 C   0  0  0  0  0  0  0  0  0  0  0  0
    6.6085   -0.4419   -6.9533 C   0  0  0  0  0  0  0  0  0  0  0  0
    7.3986   -1.5889   -6.8831 C   0  0  0  0  0  0  0  0  0  0  0  0
    7.7343   -2.4303   -8.3531 Cl  0  0  0  0  0  0  0  0  0  0  0  0
    7.8661   -2.0279   -5.6418 C   0  0  0  0  0  0  0  0  0  0  0  0
    8.8648   -3.4284   -5.4699 Cl  0  0  0  0  0  0  0  0  0  0  0  0
    7.5135   -1.3369   -4.4756 C   0  0  0  0  0  0  0  0  0  0  0  0
    6.2385    2.7124   -3.8624 N   0  0  0  0  0  0  0  0  0  0  0  0
    5.7025    3.9171   -3.6293 C   0  0  0  0  0  0  0  0  0  0  0  0
    4.7299    4.2055   -2.7630 N   0  0  0  0  0  0  0  0  0  0  0  0
    4.2398    3.1872   -2.0542 C   0  0  0  0  0  0  0  0  0  0  0  0
    3.1939    3.4218   -1.1691 C   0  0  0  0  0  0  0  0  0  0  0  0
    2.5999    2.3935   -0.4188 C   0  0  0  0  0  0  0  0  0  0  0  0
    1.5899    2.6128    0.4915 O   0  0  0  0  0  0  0  0  0  0  0  0
    1.5421    3.9459    1.0347 C   0  0  0  0  0  0  0  0  0  0  0  0
    0.8394    4.0289    2.3567 C   0  0  0  0  0  0  0  0  0  0  0  0
    0.6924    3.0170    3.2882 C   0  0  0  0  0  0  0  0  0  0  0  0
   -0.0858    3.6114    4.6953 S   0  0  0  0  0  0  0  0  0  0  0  0
   -0.1738    5.1611    3.9695 C   0  0  0  0  0  0  0  0  0  0  0  0
    0.3358    5.2632    2.7620 N   0  0  0  0  0  0  0  0  0  0  0  0
    1.5414   -1.8093   -0.4550 H   0  0  0  0  0  0  0  0  0  0  0  0
    3.3036   -1.7238   -0.5786 H   0  0  0  0  0  0  0  0  0  0  0  0
    2.2566   -1.0051   -1.8546 H   0  0  0  0  0  0  0  0  0  0  0  0
    4.5443   -0.1580   -1.5280 H   0  0  0  0  0  0  0  0  0  0  0  0
    6.6499    0.0046   -2.4888 H   0  0  0  0  0  0  0  0  0  0  0  0
    5.6256    1.1224   -5.8692 H   0  0  0  0  0  0  0  0  0  0  0  0
    6.2351   -0.0858   -7.9106 H   0  0  0  0  0  0  0  0  0  0  0  0
    7.8712   -1.7010   -3.5160 H   0  0  0  0  0  0  0  0  0  0  0  0
    6.1056    4.7434   -4.2108 H   0  0  0  0  0  0  0  0  0  0  0  0
    2.8251    4.4428   -1.1075 H   0  0  0  0  0  0  0  0  0  0  0  0
    1.0248    4.5992    0.3204 H   0  0  0  0  0  0  0  0  0  0  0  0
    2.5570    4.3267    1.2081 H   0  0  0  0  0  0  0  0  0  0  0  0
    1.0184    1.9899    3.2118 H   0  0  0  0  0  0  0  0  0  0  0  0
   -0.6173    6.0041    4.4843 H   0  0  0  0  0  0  0  0  0  0  0  0
  1  2  1  0  0  0  0
  1 29  1  0  0  0  0
  1 30  1  0  0  0  0
  1 31  1  0  0  0  0
  2  3  1  0  0  0  0
  3  4  1  0  0  0  0
  3 21  2  0  0  0  0
  4  5  2  0  0  0  0
  4 32  1  0  0  0  0
  5  6  1  0  0  0  0
  5 19  1  0  0  0  0
  6  7  1  0  0  0  0
  6 16  2  0  0  0  0
  7  8  1  0  0  0  0
  7 33  1  0  0  0  0
  8  9  1  0  0  0  0
  8 15  2  0  0  0  0
  9 10  2  0  0  0  0
  9 34  1  0  0  0  0
 10 11  1  0  0  0  0
 10 35  1  0  0  0  0
 11 12  1  0  0  0  0
 11 13  2  0  0  0  0
 13 14  1  0  0  0  0
 13 15  1  0  0  0  0
 15 36  1  0  0  0  0
 16 17  1  0  0  0  0
 17 18  2  0  0  0  0
 17 37  1  0  0  0  0
 18 19  1  0  0  0  0
 19 20  2  0  0  0  0
 20 21  1  0  0  0  0
 20 38  1  0  0  0  0
 21 22  1  0  0  0  0
 22 23  1  0  0  0  0
 23 24  1  0  0  0  0
 23 39  1  0  0  0  0
 23 40  1  0  0  0  0
 24 25  2  0  0  0  0
 24 28  1  0  0  0  0
 25 26  1  0  0  0  0
 25 41  1  0  0  0  0
 26 27  1  0  0  0  0
 27 28  2  0  0  0  0
 27 42  1  0  0  0  0
M  END
$$$$
