CHEMBL270692
 OpenBabel04072215363D

 64 68  0  0  0  0  0  0  0  0999 V2000
    3.3323   -3.6089    9.2750 C   0  0  0  0  0  0  0  0  0  0  0  0
    3.6530   -2.2241    9.2352 O   0  0  0  0  0  0  0  0  0  0  0  0
    3.9451   -1.6657    8.0177 C   0  0  0  0  0  0  0  0  0  0  0  0
    3.5776   -2.2724    6.8111 C   0  0  0  0  0  0  0  0  0  0  0  0
    3.7411   -1.6195    5.5845 C   0  0  0  0  0  0  0  0  0  0  0  0
    3.2598   -2.1980    4.3874 N   0  0  0  0  0  0  0  0  0  0  0  0
    1.9540   -2.7090    4.2782 C   0  0  0  0  0  0  0  0  0  0  0  0
    1.7790   -3.7765    3.5119 N   0  0  0  0  0  0  0  0  0  0  0  0
    0.5290   -4.2358    3.4721 C   0  0  0  0  0  0  0  0  0  0  0  0
   -0.5277   -3.7594    4.1393 N   0  0  0  0  0  0  0  0  0  0  0  0
   -0.2809   -2.6303    4.8007 C   0  0  0  0  0  0  0  0  0  0  0  0
   -1.4014   -1.7722    5.0798 N   0  0  0  0  0  0  0  0  0  0  0  0
   -2.7402   -2.0928    5.4022 C   0  0  0  0  0  0  0  0  0  0  0  0
   -3.1768   -3.2377    6.0051 N   0  0  0  0  0  0  0  0  0  0  0  0
   -4.3957   -3.3532    6.7575 C   0  0  0  0  0  0  0  0  0  0  0  0
   -5.3037   -4.4094    6.4760 C   0  0  0  0  0  0  0  0  0  0  0  0
   -5.2957   -5.1967    5.1942 C   0  0  0  0  0  0  0  0  0  0  0  0
   -6.3709   -4.7029    7.3653 C   0  0  0  0  0  0  0  0  0  0  0  0
   -6.5799   -3.9702    8.5128 C   0  0  0  0  0  0  0  0  0  0  0  0
   -5.7489   -2.8859    8.7649 C   0  0  0  0  0  0  0  0  0  0  0  0
   -4.6794   -2.5496    7.8951 C   0  0  0  0  0  0  0  0  0  0  0  0
   -3.9686   -1.2561    8.1959 C   0  0  0  0  0  0  0  0  0  0  0  0
   -3.5407   -1.1182    5.0223 N   0  0  0  0  0  0  0  0  0  0  0  0
   -2.7523   -0.1636    4.4636 C   0  0  0  0  0  0  0  0  0  0  0  0
   -3.1414    0.9548    3.7192 C   0  0  0  0  0  0  0  0  0  0  0  0
   -2.1562    1.7916    3.1919 C   0  0  0  0  0  0  0  0  0  0  0  0
   -0.8115    1.5723    3.4839 C   0  0  0  0  0  0  0  0  0  0  0  0
   -0.4048    0.4643    4.2381 C   0  0  0  0  0  0  0  0  0  0  0  0
   -1.4049   -0.4349    4.6591 C   0  0  0  0  0  0  0  0  0  0  0  0
    0.9491   -2.1008    4.9116 N   0  0  0  0  0  0  0  0  0  0  0  0
    4.3997   -0.3938    5.5504 C   0  0  0  0  0  0  0  0  0  0  0  0
    4.7489    0.2487    6.7447 C   0  0  0  0  0  0  0  0  0  0  0  0
    5.3187    1.5023    6.7618 O   0  0  0  0  0  0  0  0  0  0  0  0
    4.8382    2.3885    5.7531 C   0  0  0  0  0  0  0  0  0  0  0  0
    4.5420   -0.3904    7.9874 C   0  0  0  0  0  0  0  0  0  0  0  0
    4.8843    0.3538    9.0939 O   0  0  0  0  0  0  0  0  0  0  0  0
    5.3478   -0.3612   10.2324 C   0  0  0  0  0  0  0  0  0  0  0  0
    3.1357   -3.8756   10.3174 H   0  0  0  0  0  0  0  0  0  0  0  0
    4.1781   -4.2092    8.9244 H   0  0  0  0  0  0  0  0  0  0  0  0
    2.4220   -3.8363    8.7111 H   0  0  0  0  0  0  0  0  0  0  0  0
    3.0968   -3.2436    6.7998 H   0  0  0  0  0  0  0  0  0  0  0  0
    3.8853   -2.9128    4.0251 H   0  0  0  0  0  0  0  0  0  0  0  0
    0.3477   -5.0658    2.7949 H   0  0  0  0  0  0  0  0  0  0  0  0
   -2.5400   -4.0009    6.2060 H   0  0  0  0  0  0  0  0  0  0  0  0
   -4.5270   -4.8708    4.4927 H   0  0  0  0  0  0  0  0  0  0  0  0
   -6.2653   -5.0701    4.6931 H   0  0  0  0  0  0  0  0  0  0  0  0
   -5.1601   -6.2618    5.4074 H   0  0  0  0  0  0  0  0  0  0  0  0
   -7.0677   -5.5090    7.1216 H   0  0  0  0  0  0  0  0  0  0  0  0
   -7.3996   -4.2082    9.1927 H   0  0  0  0  0  0  0  0  0  0  0  0
   -5.9502   -2.2767    9.6426 H   0  0  0  0  0  0  0  0  0  0  0  0
   -4.2341   -0.8797    9.1915 H   0  0  0  0  0  0  0  0  0  0  0  0
   -4.2902   -0.4892    7.4812 H   0  0  0  0  0  0  0  0  0  0  0  0
   -2.8842   -1.3710    8.1733 H   0  0  0  0  0  0  0  0  0  0  0  0
   -4.1929    1.1117    3.5093 H   0  0  0  0  0  0  0  0  0  0  0  0
   -2.4472    2.6118    2.5411 H   0  0  0  0  0  0  0  0  0  0  0  0
   -0.0608    2.2494    3.0808 H   0  0  0  0  0  0  0  0  0  0  0  0
    0.6533    0.2854    4.4092 H   0  0  0  0  0  0  0  0  0  0  0  0
    4.5875    0.0735    4.5896 H   0  0  0  0  0  0  0  0  0  0  0  0
    5.0962    3.4106    6.0459 H   0  0  0  0  0  0  0  0  0  0  0  0
    3.7479    2.3371    5.6488 H   0  0  0  0  0  0  0  0  0  0  0  0
    5.3296    2.1841    4.7965 H   0  0  0  0  0  0  0  0  0  0  0  0
    5.8954    0.3424   10.8672 H   0  0  0  0  0  0  0  0  0  0  0  0
    6.0379   -1.1671    9.9594 H   0  0  0  0  0  0  0  0  0  0  0  0
    4.5108   -0.7337   10.8303 H   0  0  0  0  0  0  0  0  0  0  0  0
  1  2  1  0  0  0  0
  1 38  1  0  0  0  0
  1 39  1  0  0  0  0
  1 40  1  0  0  0  0
  2  3  1  0  0  0  0
  3  4  1  0  0  0  0
  3 35  2  0  0  0  0
  4  5  2  0  0  0  0
  4 41  1  0  0  0  0
  5  6  1  0  0  0  0
  5 31  1  0  0  0  0
  6  7  1  0  0  0  0
  6 42  1  0  0  0  0
  7  8  1  0  0  0  0
  7 30  2  0  0  0  0
  8  9  2  0  0  0  0
  9 10  1  0  0  0  0
  9 43  1  0  0  0  0
 10 11  2  0  0  0  0
 11 12  1  0  0  0  0
 11 30  1  0  0  0  0
 12 13  1  0  0  0  0
 12 29  1  0  0  0  0
 13 14  1  0  0  0  0
 13 23  2  0  0  0  0
 14 15  1  0  0  0  0
 14 44  1  0  0  0  0
 15 16  1  0  0  0  0
 15 21  2  0  0  0  0
 16 17  1  0  0  0  0
 16 18  2  0  0  0  0
 17 45  1  0  0  0  0
 17 46  1  0  0  0  0
 17 47  1  0  0  0  0
 18 19  1  0  0  0  0
 18 48  1  0  0  0  0
 19 20  2  0  0  0  0
 19 49  1  0  0  0  0
 20 21  1  0  0  0  0
 20 50  1  0  0  0  0
 21 22  1  0  0  0  0
 22 51  1  0  0  0  0
 22 52  1  0  0  0  0
 22 53  1  0  0  0  0
 23 24  1  0  0  0  0
 24 25  1  0  0  0  0
 24 29  2  0  0  0  0
 25 26  2  0  0  0  0
 25 54  1  0  0  0  0
 26 27  1  0  0  0  0
 26 55  1  0  0  0  0
 27 28  2  0  0  0  0
 27 56  1  0  0  0  0
 28 29  1  0  0  0  0
 28 57  1  0  0  0  0
 31 32  2  0  0  0  0
 31 58  1  0  0  0  0
 32 33  1  0  0  0  0
 32 35  1  0  0  0  0
 33 34  1  0  0  0  0
 34 59  1  0  0  0  0
 34 60  1  0  0  0  0
 34 61  1  0  0  0  0
 35 36  1  0  0  0  0
 36 37  1  0  0  0  0
 37 62  1  0  0  0  0
 37 63  1  0  0  0  0
 37 64  1  0  0  0  0
M  END
$$$$
