CHEMBL214063
 OpenBabel04072215363D

 76 82  0  0  0  0  0  0  0  0999 V2000
   -2.6753    1.1645    5.9644 C   0  0  0  0  0  0  0  0  0  0  0  0
   -3.7447    0.3765    5.2780 C   0  0  0  0  0  0  0  0  0  0  0  0
   -5.0684    0.4295    5.7303 C   0  0  0  0  0  0  0  0  0  0  0  0
   -6.0516   -0.3448    5.1226 C   0  0  0  0  0  0  0  0  0  0  0  0
   -5.7170   -1.2074    4.0735 C   0  0  0  0  0  0  0  0  0  0  0  0
   -4.4007   -1.3090    3.6226 C   0  0  0  0  0  0  0  0  0  0  0  0
   -3.9780   -2.2028    2.6155 N   0  0  0  0  0  0  0  0  0  0  0  0
   -4.6610   -3.3399    2.2035 C   0  0  0  0  0  0  0  0  0  0  0  0
   -5.7430   -3.6865    2.6688 O   0  0  0  0  0  0  0  0  0  0  0  0
   -4.0300   -4.1096    1.2189 N   0  0  0  0  0  0  0  0  0  0  0  0
   -2.8271   -3.7385    0.4795 C   0  0  0  0  0  0  0  0  0  0  0  0
   -1.5609   -4.3559    1.0118 C   0  0  0  0  0  0  0  0  0  0  0  0
   -0.7028   -3.9832    2.0379 C   0  0  0  0  0  0  0  0  0  0  0  0
    0.6360   -4.4901    1.8205 C   0  0  0  0  0  0  0  0  0  0  0  0
    0.7130   -5.2705    0.6809 C   0  0  0  0  0  0  0  0  0  0  0  0
    1.9623   -5.5721   -0.1631 C   0  0  0  0  0  0  0  0  0  0  0  0
    3.1215   -4.8753   -0.0403 N   0  0  0  0  0  0  0  0  0  0  0  0
    3.6385   -4.8688   -1.3169 N   0  0  0  0  0  0  0  0  0  0  0  0
    2.9592   -5.6686   -2.2008 C   0  0  0  0  0  0  0  0  0  0  0  0
    1.9483   -6.2337   -1.4101 C   0  0  0  0  0  0  0  0  0  0  0  0
    0.8130   -6.6545   -2.2720 C   0  0  0  0  0  0  0  0  0  0  0  0
    0.9543   -5.4081   -3.1455 C   0  0  0  0  0  0  0  0  0  0  0  0
    0.3300   -4.1645   -2.9557 C   0  0  0  0  0  0  0  0  0  0  0  0
    0.8502   -3.0460   -3.6271 C   0  0  0  0  0  0  0  0  0  0  0  0
    0.6283   -1.6148   -3.1600 C   0  0  0  0  0  0  0  0  0  0  0  0
   -0.3502   -0.8577   -3.9304 N   0  0  0  0  0  0  0  0  0  0  0  0
   -1.7264   -1.2607   -3.5967 C   0  0  0  0  0  0  0  0  0  0  0  0
   -2.7704   -0.4318   -4.3852 C   0  0  0  0  0  0  0  0  0  0  0  0
   -2.6401    1.0339   -4.2636 N   0  0  0  0  0  0  0  0  0  0  0  0
   -3.1338    1.5222   -2.9797 C   0  0  0  0  0  0  0  0  0  0  0  0
   -1.2321    1.4177   -4.4900 C   0  0  0  0  0  0  0  0  0  0  0  0
   -0.1991    0.5931   -3.6865 C   0  0  0  0  0  0  0  0  0  0  0  0
    1.8184   -3.2707   -4.6084 C   0  0  0  0  0  0  0  0  0  0  0  0
    2.6528   -4.3757   -4.4638 C   0  0  0  0  0  0  0  0  0  0  0  0
    2.3088   -5.3184   -3.5206 C   0  0  0  0  0  0  0  0  0  0  0  0
   -0.8924   -5.7344    0.2573 S   0  0  0  0  0  0  0  0  0  0  0  0
   -4.6394   -5.3944    0.9089 C   0  0  0  0  0  0  0  0  0  0  0  0
   -4.7765   -5.9953   -0.4665 C   0  0  0  0  0  0  0  0  0  0  0  0
   -5.9882   -5.4585    0.2256 C   0  0  0  0  0  0  0  0  0  0  0  0
   -3.4227   -0.4904    4.2137 C   0  0  0  0  0  0  0  0  0  0  0  0
   -3.0968    2.0327    6.4844 H   0  0  0  0  0  0  0  0  0  0  0  0
   -1.9499    1.5475    5.2390 H   0  0  0  0  0  0  0  0  0  0  0  0
   -2.1412    0.5376    6.7035 H   0  0  0  0  0  0  0  0  0  0  0  0
   -5.3413    1.0808    6.5582 H   0  0  0  0  0  0  0  0  0  0  0  0
   -7.0793   -0.2944    5.4664 H   0  0  0  0  0  0  0  0  0  0  0  0
   -6.5167   -1.7961    3.6334 H   0  0  0  0  0  0  0  0  0  0  0  0
   -2.9997   -2.1696    2.3943 H   0  0  0  0  0  0  0  0  0  0  0  0
   -2.7151   -2.6485    0.4606 H   0  0  0  0  0  0  0  0  0  0  0  0
   -2.9688   -4.0055   -0.5755 H   0  0  0  0  0  0  0  0  0  0  0  0
   -0.9536   -3.2628    2.8015 H   0  0  0  0  0  0  0  0  0  0  0  0
    1.4999   -4.1800    2.3930 H   0  0  0  0  0  0  0  0  0  0  0  0
    4.3640   -4.1869   -1.5319 H   0  0  0  0  0  0  0  0  0  0  0  0
   -0.1680   -6.8296   -1.8587 H   0  0  0  0  0  0  0  0  0  0  0  0
    1.0934   -7.5487   -2.8476 H   0  0  0  0  0  0  0  0  0  0  0  0
   -0.3677   -4.0264   -2.1343 H   0  0  0  0  0  0  0  0  0  0  0  0
    1.6103   -1.1340   -3.2340 H   0  0  0  0  0  0  0  0  0  0  0  0
    0.4129   -1.5935   -2.0791 H   0  0  0  0  0  0  0  0  0  0  0  0
   -1.9119   -1.1471   -2.5195 H   0  0  0  0  0  0  0  0  0  0  0  0
   -1.8836   -2.3119   -3.8426 H   0  0  0  0  0  0  0  0  0  0  0  0
   -3.7801   -0.7486   -4.0938 H   0  0  0  0  0  0  0  0  0  0  0  0
   -2.6743   -0.6894   -5.4489 H   0  0  0  0  0  0  0  0  0  0  0  0
   -4.1856    1.2462   -2.8465 H   0  0  0  0  0  0  0  0  0  0  0  0
   -3.0965    2.6172   -2.9525 H   0  0  0  0  0  0  0  0  0  0  0  0
   -2.5709    1.1409   -2.1220 H   0  0  0  0  0  0  0  0  0  0  0  0
   -1.0927    2.4874   -4.2855 H   0  0  0  0  0  0  0  0  0  0  0  0
   -1.0158    1.2947   -5.5596 H   0  0  0  0  0  0  0  0  0  0  0  0
   -0.2968    0.8207   -2.6161 H   0  0  0  0  0  0  0  0  0  0  0  0
    0.8027    0.9207   -3.9901 H   0  0  0  0  0  0  0  0  0  0  0  0
    2.0090   -2.5194   -5.3687 H   0  0  0  0  0  0  0  0  0  0  0  0
    3.4697   -4.5502   -5.1528 H   0  0  0  0  0  0  0  0  0  0  0  0
   -4.5009   -6.0938    1.7317 H   0  0  0  0  0  0  0  0  0  0  0  0
   -4.6800   -7.0726   -0.5468 H   0  0  0  0  0  0  0  0  0  0  0  0
   -4.4475   -5.4614   -1.3473 H   0  0  0  0  0  0  0  0  0  0  0  0
   -6.7154   -6.1566    0.6255 H   0  0  0  0  0  0  0  0  0  0  0  0
   -6.4275   -4.5413   -0.1511 H   0  0  0  0  0  0  0  0  0  0  0  0
   -2.3869   -0.5487    3.8876 H   0  0  0  0  0  0  0  0  0  0  0  0
  1  2  1  0  0  0  0
  1 41  1  0  0  0  0
  1 42  1  0  0  0  0
  1 43  1  0  0  0  0
  2  3  1  0  0  0  0
  2 40  2  0  0  0  0
  3  4  2  0  0  0  0
  3 44  1  0  0  0  0
  4  5  1  0  0  0  0
  4 45  1  0  0  0  0
  5  6  2  0  0  0  0
  5 46  1  0  0  0  0
  6  7  1  0  0  0  0
  6 40  1  0  0  0  0
  7  8  1  0  0  0  0
  7 47  1  0  0  0  0
  8  9  2  0  0  0  0
  8 10  1  0  0  0  0
 10 11  1  0  0  0  0
 10 37  1  0  0  0  0
 11 12  1  0  0  0  0
 11 48  1  0  0  0  0
 11 49  1  0  0  0  0
 12 13  2  0  0  0  0
 12 36  1  0  0  0  0
 13 14  1  0  0  0  0
 13 50  1  0  0  0  0
 14 15  2  0  0  0  0
 14 51  1  0  0  0  0
 15 16  1  0  0  0  0
 15 36  1  0  0  0  0
 16 17  2  0  0  0  0
 16 20  1  0  0  0  0
 17 18  1  0  0  0  0
 18 19  1  0  0  0  0
 18 52  1  0  0  0  0
 19 20  2  0  0  0  0
 19 35  1  0  0  0  0
 20 21  1  0  0  0  0
 21 22  1  0  0  0  0
 21 53  1  0  0  0  0
 21 54  1  0  0  0  0
 22 23  1  0  0  0  0
 22 35  2  0  0  0  0
 23 24  2  0  0  0  0
 23 55  1  0  0  0  0
 24 25  1  0  0  0  0
 24 33  1  0  0  0  0
 25 26  1  0  0  0  0
 25 56  1  0  0  0  0
 25 57  1  0  0  0  0
 26 27  1  0  0  0  0
 26 32  1  0  0  0  0
 27 28  1  0  0  0  0
 27 58  1  0  0  0  0
 27 59  1  0  0  0  0
 28 29  1  0  0  0  0
 28 60  1  0  0  0  0
 28 61  1  0  0  0  0
 29 30  1  0  0  0  0
 29 31  1  0  0  0  0
 30 62  1  0  0  0  0
 30 63  1  0  0  0  0
 30 64  1  0  0  0  0
 31 32  1  0  0  0  0
 31 65  1  0  0  0  0
 31 66  1  0  0  0  0
 32 67  1  0  0  0  0
 32 68  1  0  0  0  0
 33 34  2  0  0  0  0
 33 69  1  0  0  0  0
 34 35  1  0  0  0  0
 34 70  1  0  0  0  0
 37 38  1  0  0  0  0
 37 39  1  0  0  0  0
 37 71  1  0  0  0  0
 38 39  1  0  0  0  0
 38 72  1  0  0  0  0
 38 73  1  0  0  0  0
 39 74  1  0  0  0  0
 39 75  1  0  0  0  0
 40 76  1  0  0  0  0
M  END
$$$$
