CHEMBL3690399
 OpenBabel04072215373D

 44 47  0  0  0  0  0  0  0  0999 V2000
    2.8185    3.1601   -0.4173 O   0  0  0  0  0  0  0  0  0  0  0  0
    2.4343    2.0011   -0.4643 C   0  0  0  0  0  0  0  0  0  0  0  0
    1.0948    1.6743   -0.4286 N   0  0  0  0  0  0  0  0  0  0  0  0
    0.1141    2.7385   -0.1878 C   0  0  0  0  0  0  0  0  0  0  0  0
   -0.0964    3.1158    1.2860 C   0  0  0  0  0  0  0  0  0  0  0  0
    0.6491    2.3487    2.1154 F   0  0  0  0  0  0  0  0  0  0  0  0
    0.1938    4.4089    1.5323 F   0  0  0  0  0  0  0  0  0  0  0  0
   -1.3929    2.9163    1.6328 F   0  0  0  0  0  0  0  0  0  0  0  0
    3.2185    0.8795   -0.5713 N   0  0  0  0  0  0  0  0  0  0  0  0
    4.6276    0.8317   -0.5629 C   0  0  0  0  0  0  0  0  0  0  0  0
    5.4728    1.9341   -0.5175 C   0  0  0  0  0  0  0  0  0  0  0  0
    6.8262    1.8473   -0.4400 N   0  0  0  0  0  0  0  0  0  0  0  0
    7.3625    0.6052   -0.4070 C   0  0  0  0  0  0  0  0  0  0  0  0
    6.6222   -0.5665   -0.5009 C   0  0  0  0  0  0  0  0  0  0  0  0
    7.2074   -1.9057   -0.5371 C   0  0  0  0  0  0  0  0  0  0  0  0
    6.7404   -3.0708    0.0540 C   0  0  0  0  0  0  0  0  0  0  0  0
    7.3587   -4.1835   -0.4391 N   0  0  0  0  0  0  0  0  0  0  0  0
    8.1960   -3.7311   -1.3449 C   0  0  0  0  0  0  0  0  0  0  0  0
    8.9580   -4.4271   -2.3234 C   0  0  0  0  0  0  0  0  0  0  0  0
    9.7507   -3.7555   -3.1924 C   0  0  0  0  0  0  0  0  0  0  0  0
   10.3279   -4.4961   -4.3427 C   0  0  0  0  0  0  0  0  0  0  0  0
    9.6473   -5.5699   -4.7894 N   0  0  0  0  0  0  0  0  0  0  0  0
   10.0939   -6.1359   -5.9237 C   0  0  0  0  0  0  0  0  0  0  0  0
   11.1929   -5.6823   -6.6121 C   0  0  0  0  0  0  0  0  0  0  0  0
   11.8216   -4.5889   -6.0671 C   0  0  0  0  0  0  0  0  0  0  0  0
   11.4103   -3.9671   -4.9487 N   0  0  0  0  0  0  0  0  0  0  0  0
    9.9171   -2.3041   -3.0301 C   0  0  0  0  0  0  0  0  0  0  0  0
    9.1377   -1.6340   -2.1653 C   0  0  0  0  0  0  0  0  0  0  0  0
    8.2372   -2.3378   -1.3643 N   0  0  0  0  0  0  0  0  0  0  0  0
    5.2283   -0.4287   -0.5785 C   0  0  0  0  0  0  0  0  0  0  0  0
    0.8753    0.7759   -0.0214 H   0  0  0  0  0  0  0  0  0  0  0  0
   -0.8293    2.3819   -0.6131 H   0  0  0  0  0  0  0  0  0  0  0  0
    0.4106    3.6290   -0.7537 H   0  0  0  0  0  0  0  0  0  0  0  0
    2.7329    0.0011   -0.6657 H   0  0  0  0  0  0  0  0  0  0  0  0
    5.1035    2.9541   -0.5435 H   0  0  0  0  0  0  0  0  0  0  0  0
    8.4422    0.5950   -0.2941 H   0  0  0  0  0  0  0  0  0  0  0  0
    5.9271   -3.1658    0.7630 H   0  0  0  0  0  0  0  0  0  0  0  0
    8.7967   -5.4977   -2.3995 H   0  0  0  0  0  0  0  0  0  0  0  0
    9.5144   -6.9843   -6.2755 H   0  0  0  0  0  0  0  0  0  0  0  0
   11.5330   -6.1514   -7.5232 H   0  0  0  0  0  0  0  0  0  0  0  0
   12.6997   -4.1527   -6.5403 H   0  0  0  0  0  0  0  0  0  0  0  0
   10.6360   -1.7889   -3.6607 H   0  0  0  0  0  0  0  0  0  0  0  0
    9.1909   -0.5595   -2.0740 H   0  0  0  0  0  0  0  0  0  0  0  0
    4.6087   -1.3197   -0.6508 H   0  0  0  0  0  0  0  0  0  0  0  0
  1  2  2  0  0  0  0
  2  3  1  0  0  0  0
  2  9  1  0  0  0  0
  3  4  1  0  0  0  0
  3 31  1  0  0  0  0
  4  5  1  0  0  0  0
  4 32  1  0  0  0  0
  4 33  1  0  0  0  0
  5  6  1  0  0  0  0
  5  7  1  0  0  0  0
  5  8  1  0  0  0  0
  9 10  1  0  0  0  0
  9 34  1  0  0  0  0
 10 11  1  0  0  0  0
 10 30  2  0  0  0  0
 11 12  2  0  0  0  0
 11 35  1  0  0  0  0
 12 13  1  0  0  0  0
 13 14  2  0  0  0  0
 13 36  1  0  0  0  0
 14 15  1  0  0  0  0
 14 30  1  0  0  0  0
 15 16  2  0  0  0  0
 15 29  1  0  0  0  0
 16 17  1  0  0  0  0
 16 37  1  0  0  0  0
 17 18  2  0  0  0  0
 18 19  1  0  0  0  0
 18 29  1  0  0  0  0
 19 20  2  0  0  0  0
 19 38  1  0  0  0  0
 20 21  1  0  0  0  0
 20 27  1  0  0  0  0
 21 22  1  0  0  0  0
 21 26  2  0  0  0  0
 22 23  2  0  0  0  0
 23 24  1  0  0  0  0
 23 39  1  0  0  0  0
 24 25  2  0  0  0  0
 24 40  1  0  0  0  0
 25 26  1  0  0  0  0
 25 41  1  0  0  0  0
 27 28  2  0  0  0  0
 27 42  1  0  0  0  0
 28 29  1  0  0  0  0
 28 43  1  0  0  0  0
 30 44  1  0  0  0  0
M  END
$$$$
