CHEMBL487402
 OpenBabel04072215383D

 41 43  0  0  0  0  0  0  0  0999 V2000
    1.0540    0.1662    0.6373 C   0  0  0  0  0  0  0  0  0  0  0  0
    2.4044    0.0992    0.2043 O   0  0  0  0  0  0  0  0  0  0  0  0
    3.0889    1.2796    0.1005 C   0  0  0  0  0  0  0  0  0  0  0  0
    2.5713    2.5381    0.4110 C   0  0  0  0  0  0  0  0  0  0  0  0
    3.3386    3.6926    0.2066 C   0  0  0  0  0  0  0  0  0  0  0  0
    4.6383    3.6149   -0.3112 C   0  0  0  0  0  0  0  0  0  0  0  0
    5.4060    4.8472   -0.5942 C   0  0  0  0  0  0  0  0  0  0  0  0
    6.3181    4.8892   -1.5759 C   0  0  0  0  0  0  0  0  0  0  0  0
    7.0583    6.1275   -1.8107 C   0  0  0  0  0  0  0  0  0  0  0  0
    7.9065    6.2004   -2.6974 O   0  0  0  0  0  0  0  0  0  0  0  0
    6.7608    7.2720   -0.9413 C   0  0  0  0  0  0  0  0  0  0  0  0
    7.4647    8.4806   -1.0551 C   0  0  0  0  0  0  0  0  0  0  0  0
    8.4570    8.6072   -1.9961 O   0  0  0  0  0  0  0  0  0  0  0  0
    7.1497    9.5502   -0.2008 C   0  0  0  0  0  0  0  0  0  0  0  0
    7.7662   10.7779   -0.1589 O   0  0  0  0  0  0  0  0  0  0  0  0
    8.8527   11.0399   -1.0334 C   0  0  0  0  0  0  0  0  0  0  0  0
    6.0970    9.3965    0.7377 C   0  0  0  0  0  0  0  0  0  0  0  0
    5.8248   10.4909    1.5248 O   0  0  0  0  0  0  0  0  0  0  0  0
    4.7598   10.3911    2.4601 C   0  0  0  0  0  0  0  0  0  0  0  0
    5.4065    8.1824    0.8325 C   0  0  0  0  0  0  0  0  0  0  0  0
    5.7548    7.1176    0.0066 C   0  0  0  0  0  0  0  0  0  0  0  0
    5.0709    5.9392    0.1908 O   0  0  0  0  0  0  0  0  0  0  0  0
    5.1775    2.3412   -0.5559 C   0  0  0  0  0  0  0  0  0  0  0  0
    4.4063    1.1941   -0.3623 C   0  0  0  0  0  0  0  0  0  0  0  0
    4.9410   -0.0369   -0.6398 O   0  0  0  0  0  0  0  0  0  0  0  0
    0.6226   -0.8348    0.5456 H   0  0  0  0  0  0  0  0  0  0  0  0
    0.4584    0.8378    0.0098 H   0  0  0  0  0  0  0  0  0  0  0  0
    1.0049    0.4613    1.6902 H   0  0  0  0  0  0  0  0  0  0  0  0
    1.5664    2.6623    0.8008 H   0  0  0  0  0  0  0  0  0  0  0  0
    2.8912    4.6572    0.4401 H   0  0  0  0  0  0  0  0  0  0  0  0
    6.5567    4.0612   -2.2303 H   0  0  0  0  0  0  0  0  0  0  0  0
    8.5284    7.7725   -2.5115 H   0  0  0  0  0  0  0  0  0  0  0  0
    9.2454   12.0310   -0.7861 H   0  0  0  0  0  0  0  0  0  0  0  0
    8.5160   11.0750   -2.0743 H   0  0  0  0  0  0  0  0  0  0  0  0
    9.6738   10.3310   -0.8862 H   0  0  0  0  0  0  0  0  0  0  0  0
    4.6898   11.3445    2.9926 H   0  0  0  0  0  0  0  0  0  0  0  0
    4.9577    9.6110    3.2024 H   0  0  0  0  0  0  0  0  0  0  0  0
    3.8040   10.2223    1.9530 H   0  0  0  0  0  0  0  0  0  0  0  0
    4.6020    8.0352    1.5443 H   0  0  0  0  0  0  0  0  0  0  0  0
    6.2001    2.2362   -0.9057 H   0  0  0  0  0  0  0  0  0  0  0  0
    5.8627    0.0643   -0.9239 H   0  0  0  0  0  0  0  0  0  0  0  0
  1  2  1  0  0  0  0
  1 26  1  0  0  0  0
  1 27  1  0  0  0  0
  1 28  1  0  0  0  0
  2  3  1  0  0  0  0
  3  4  1  0  0  0  0
  3 24  2  0  0  0  0
  4  5  2  0  0  0  0
  4 29  1  0  0  0  0
  5  6  1  0  0  0  0
  5 30  1  0  0  0  0
  6  7  1  0  0  0  0
  6 23  2  0  0  0  0
  7  8  2  0  0  0  0
  7 22  1  0  0  0  0
  8  9  1  0  0  0  0
  8 31  1  0  0  0  0
  9 10  2  0  0  0  0
  9 11  1  0  0  0  0
 11 12  1  0  0  0  0
 11 21  2  0  0  0  0
 12 13  1  0  0  0  0
 12 14  2  0  0  0  0
 13 32  1  0  0  0  0
 14 15  1  0  0  0  0
 14 17  1  0  0  0  0
 15 16  1  0  0  0  0
 16 33  1  0  0  0  0
 16 34  1  0  0  0  0
 16 35  1  0  0  0  0
 17 18  1  0  0  0  0
 17 20  2  0  0  0  0
 18 19  1  0  0  0  0
 19 36  1  0  0  0  0
 19 37  1  0  0  0  0
 19 38  1  0  0  0  0
 20 21  1  0  0  0  0
 20 39  1  0  0  0  0
 21 22  1  0  0  0  0
 23 24  1  0  0  0  0
 23 40  1  0  0  0  0
 24 25  1  0  0  0  0
 25 41  1  0  0  0  0
M  END
$$$$
