CHEMBL272875
 OpenBabel04072215363D

 53 56  0  0  0  0  0  0  0  0999 V2000
    1.9369   -0.9715   -1.6933 C   0  0  0  0  0  0  0  0  0  0  0  0
    2.9572   -0.4475   -0.7006 C   0  0  0  0  0  0  0  0  0  0  0  0
    3.3766   -1.4910    0.2153 N   0  0  0  0  0  0  0  0  0  0  0  0
    4.3959   -1.2439    1.1174 C   0  0  0  0  0  0  0  0  0  0  0  0
    4.9289   -0.1407    1.1551 O   0  0  0  0  0  0  0  0  0  0  0  0
    4.7682   -2.3542    1.8836 N   0  0  0  0  0  0  0  0  0  0  0  0
    4.2055   -3.6986    1.6826 C   0  0  0  0  0  0  0  0  0  0  0  0
    5.3216   -4.7215    1.6229 C   0  0  0  0  0  0  0  0  0  0  0  0
    6.0195   -4.7767    2.8643 O   0  0  0  0  0  0  0  0  0  0  0  0
    6.3781   -3.5305    3.3269 C   0  0  0  0  0  0  0  0  0  0  0  0
    7.3633   -3.5559    4.3206 C   0  0  0  0  0  0  0  0  0  0  0  0
    7.7743   -2.3757    4.9403 C   0  0  0  0  0  0  0  0  0  0  0  0
    8.6800   -2.3218    5.9861 O   0  0  0  0  0  0  0  0  0  0  0  0
    8.7034   -3.3559    6.9133 C   0  0  0  0  0  0  0  0  0  0  0  0
    7.5394   -4.0269    7.2816 C   0  0  0  0  0  0  0  0  0  0  0  0
    7.6651   -5.1294    8.0918 C   0  0  0  0  0  0  0  0  0  0  0  0
    8.8449   -5.5658    8.5949 N   0  0  0  0  0  0  0  0  0  0  0  0
    9.9546   -4.8603    8.3105 C   0  0  0  0  0  0  0  0  0  0  0  0
   11.1859   -5.3110    8.8092 C   0  0  0  0  0  0  0  0  0  0  0  0
   12.4192   -4.6612    8.5726 C   0  0  0  0  0  0  0  0  0  0  0  0
   13.4670   -5.4572    8.9342 O   0  0  0  0  0  0  0  0  0  0  0  0
   14.5159   -4.9662    9.7502 C   0  0  0  0  0  0  0  0  0  0  0  0
   12.4021   -3.4717    7.8367 C   0  0  0  0  0  0  0  0  0  0  0  0
   13.3654   -2.6069    7.4280 O   0  0  0  0  0  0  0  0  0  0  0  0
   14.7297   -2.7269    7.7463 C   0  0  0  0  0  0  0  0  0  0  0  0
   11.1633   -3.0360    7.3090 C   0  0  0  0  0  0  0  0  0  0  0  0
    9.9457   -3.7234    7.5010 C   0  0  0  0  0  0  0  0  0  0  0  0
    7.2648   -1.1640    4.4768 C   0  0  0  0  0  0  0  0  0  0  0  0
    6.2945   -1.1352    3.4569 C   0  0  0  0  0  0  0  0  0  0  0  0
    5.8136   -2.3183    2.8777 C   0  0  0  0  0  0  0  0  0  0  0  0
    1.6380   -0.1834   -2.3906 H   0  0  0  0  0  0  0  0  0  0  0  0
    1.0406   -1.3295   -1.1758 H   0  0  0  0  0  0  0  0  0  0  0  0
    2.3433   -1.8086   -2.2709 H   0  0  0  0  0  0  0  0  0  0  0  0
    2.5326    0.3706   -0.1095 H   0  0  0  0  0  0  0  0  0  0  0  0
    3.8394   -0.0657   -1.2264 H   0  0  0  0  0  0  0  0  0  0  0  0
    2.6351   -2.0730    0.5689 H   0  0  0  0  0  0  0  0  0  0  0  0
    3.6161   -3.7771    0.7673 H   0  0  0  0  0  0  0  0  0  0  0  0
    3.5388   -3.8908    2.5335 H   0  0  0  0  0  0  0  0  0  0  0  0
    6.0308   -4.5000    0.8160 H   0  0  0  0  0  0  0  0  0  0  0  0
    4.9029   -5.7155    1.4363 H   0  0  0  0  0  0  0  0  0  0  0  0
    7.7780   -4.5165    4.6122 H   0  0  0  0  0  0  0  0  0  0  0  0
    6.5631   -3.7378    6.9140 H   0  0  0  0  0  0  0  0  0  0  0  0
    6.7991   -5.7314    8.3528 H   0  0  0  0  0  0  0  0  0  0  0  0
   11.1779   -6.2390    9.3763 H   0  0  0  0  0  0  0  0  0  0  0  0
   14.8303   -5.7710   10.4264 H   0  0  0  0  0  0  0  0  0  0  0  0
   14.2449   -4.0967   10.3561 H   0  0  0  0  0  0  0  0  0  0  0  0
   15.3900   -4.7738    9.1282 H   0  0  0  0  0  0  0  0  0  0  0  0
   15.2628   -1.9624    7.1706 H   0  0  0  0  0  0  0  0  0  0  0  0
   15.1303   -3.6884    7.4266 H   0  0  0  0  0  0  0  0  0  0  0  0
   14.9092   -2.5008    8.8000 H   0  0  0  0  0  0  0  0  0  0  0  0
   11.1605   -2.1310    6.7016 H   0  0  0  0  0  0  0  0  0  0  0  0
    7.6002   -0.2284    4.9183 H   0  0  0  0  0  0  0  0  0  0  0  0
    5.9070   -0.1621    3.1705 H   0  0  0  0  0  0  0  0  0  0  0  0
  1  2  1  0  0  0  0
  1 31  1  0  0  0  0
  1 32  1  0  0  0  0
  1 33  1  0  0  0  0
  2  3  1  0  0  0  0
  2 34  1  0  0  0  0
  2 35  1  0  0  0  0
  3  4  1  0  0  0  0
  3 36  1  0  0  0  0
  4  5  2  0  0  0  0
  4  6  1  0  0  0  0
  6  7  1  0  0  0  0
  6 30  1  0  0  0  0
  7  8  1  0  0  0  0
  7 37  1  0  0  0  0
  7 38  1  0  0  0  0
  8  9  1  0  0  0  0
  8 39  1  0  0  0  0
  8 40  1  0  0  0  0
  9 10  1  0  0  0  0
 10 11  1  0  0  0  0
 10 30  2  0  0  0  0
 11 12  2  0  0  0  0
 11 41  1  0  0  0  0
 12 13  1  0  0  0  0
 12 28  1  0  0  0  0
 13 14  1  0  0  0  0
 14 15  1  0  0  0  0
 14 27  2  0  0  0  0
 15 16  2  0  0  0  0
 15 42  1  0  0  0  0
 16 17  1  0  0  0  0
 16 43  1  0  0  0  0
 17 18  2  0  0  0  0
 18 19  1  0  0  0  0
 18 27  1  0  0  0  0
 19 20  2  0  0  0  0
 19 44  1  0  0  0  0
 20 21  1  0  0  0  0
 20 23  1  0  0  0  0
 21 22  1  0  0  0  0
 22 45  1  0  0  0  0
 22 46  1  0  0  0  0
 22 47  1  0  0  0  0
 23 24  1  0  0  0  0
 23 26  2  0  0  0  0
 24 25  1  0  0  0  0
 25 48  1  0  0  0  0
 25 49  1  0  0  0  0
 25 50  1  0  0  0  0
 26 27  1  0  0  0  0
 26 51  1  0  0  0  0
 28 29  2  0  0  0  0
 28 52  1  0  0  0  0
 29 30  1  0  0  0  0
 29 53  1  0  0  0  0
M  END
$$$$
