CHEMBL4279863
 OpenBabel04072215383D

 64 68  0  0  0  0  0  0  0  0999 V2000
    0.7428   -0.1543    0.1715 O   0  0  0  0  0  0  0  0  0  0  0  0
    1.9604   -0.1543    0.2932 C   0  0  0  0  0  0  0  0  0  0  0  0
    2.7422   -1.3104    0.4384 N   0  0  0  0  0  0  0  0  0  0  0  0
    2.2500   -2.5415    0.8635 N   0  0  0  0  0  0  0  0  0  0  0  0
    3.0931   -3.4932    0.5821 C   0  0  0  0  0  0  0  0  0  0  0  0
    3.3978   -4.5589    1.5132 C   0  0  0  0  0  0  0  0  0  0  0  0
    4.3606   -4.3252    2.4866 C   0  0  0  0  0  0  0  0  0  0  0  0
    4.4217   -5.4321    3.3384 C   0  0  0  0  0  0  0  0  0  0  0  0
    3.6062   -6.3862    2.7941 C   0  0  0  0  0  0  0  0  0  0  0  0
    3.0871   -5.9022    1.6005 N   0  0  0  0  0  0  0  0  0  0  0  0
    2.4958   -6.8191    0.6109 C   0  0  0  0  0  0  0  0  0  0  0  0
    2.7966   -6.3908   -0.8176 C   0  0  0  0  0  0  0  0  0  0  0  0
    2.4225   -7.3795   -1.9339 C   0  0  0  0  0  0  0  0  0  0  0  0
    2.6685   -6.7240   -3.2284 N   0  0  0  0  0  0  0  0  0  0  0  0
    2.2319   -7.4924   -4.3992 C   0  0  0  0  0  0  0  0  0  0  0  0
    3.5012   -8.0594   -5.0037 C   0  0  0  0  0  0  0  0  0  0  0  0
    4.5032   -6.9494   -4.7742 C   0  0  0  0  0  0  0  0  0  0  0  0
    4.0793   -6.3564   -3.4438 C   0  0  0  0  0  0  0  0  0  0  0  0
    2.7967    0.9742    0.2388 N   0  0  0  0  0  0  0  0  0  0  0  0
    2.4262    2.3277    0.0041 C   0  0  0  0  0  0  0  0  0  0  0  0
    1.1204    2.7343   -0.2744 C   0  0  0  0  0  0  0  0  0  0  0  0
    0.8105    4.0831   -0.5299 C   0  0  0  0  0  0  0  0  0  0  0  0
    1.7961    5.0654   -0.4781 C   0  0  0  0  0  0  0  0  0  0  0  0
    1.5974    6.4008   -0.7541 O   0  0  0  0  0  0  0  0  0  0  0  0
    0.3900    7.0117   -0.5053 C   0  0  0  0  0  0  0  0  0  0  0  0
   -0.4400    6.7339    0.5865 C   0  0  0  0  0  0  0  0  0  0  0  0
   -1.5989    7.4811    0.7756 C   0  0  0  0  0  0  0  0  0  0  0  0
   -1.9956    8.5248    0.0198 N   0  0  0  0  0  0  0  0  0  0  0  0
   -1.1518    8.7833   -0.9955 C   0  0  0  0  0  0  0  0  0  0  0  0
   -1.2983    9.8220   -1.8724 N   0  0  0  0  0  0  0  0  0  0  0  0
   -0.3051    9.7875   -2.8165 C   0  0  0  0  0  0  0  0  0  0  0  0
    0.5165    8.7238   -2.5071 C   0  0  0  0  0  0  0  0  0  0  0  0
    0.0064    8.0968   -1.3353 C   0  0  0  0  0  0  0  0  0  0  0  0
    3.1143    4.6665   -0.2260 C   0  0  0  0  0  0  0  0  0  0  0  0
    3.4270    3.3137    0.0141 C   0  0  0  0  0  0  0  0  0  0  0  0
    3.6711   -1.1453    0.8025 H   0  0  0  0  0  0  0  0  0  0  0  0
    3.8556   -3.3413   -0.2079 H   0  0  0  0  0  0  0  0  0  0  0  0
    4.9259   -3.4043    2.5706 H   0  0  0  0  0  0  0  0  0  0  0  0
    5.0137   -5.5177    4.2383 H   0  0  0  0  0  0  0  0  0  0  0  0
    3.4009   -7.3965    3.1179 H   0  0  0  0  0  0  0  0  0  0  0  0
    1.4254   -6.9070    0.8204 H   0  0  0  0  0  0  0  0  0  0  0  0
    2.9529   -7.8047    0.7885 H   0  0  0  0  0  0  0  0  0  0  0  0
    3.8717   -6.1881   -0.8626 H   0  0  0  0  0  0  0  0  0  0  0  0
    2.2750   -5.4503   -1.0130 H   0  0  0  0  0  0  0  0  0  0  0  0
    1.3582   -7.6316   -1.8468 H   0  0  0  0  0  0  0  0  0  0  0  0
    2.9880   -8.3168   -1.8488 H   0  0  0  0  0  0  0  0  0  0  0  0
    1.7790   -6.7904   -5.1127 H   0  0  0  0  0  0  0  0  0  0  0  0
    1.4826   -8.2615   -4.1871 H   0  0  0  0  0  0  0  0  0  0  0  0
    3.3962   -8.3003   -6.0652 H   0  0  0  0  0  0  0  0  0  0  0  0
    3.8076   -8.9651   -4.4676 H   0  0  0  0  0  0  0  0  0  0  0  0
    4.4323   -6.1943   -5.5652 H   0  0  0  0  0  0  0  0  0  0  0  0
    5.5312   -7.3231   -4.7447 H   0  0  0  0  0  0  0  0  0  0  0  0
    4.1830   -5.2660   -3.4449 H   0  0  0  0  0  0  0  0  0  0  0  0
    4.7438   -6.7554   -2.6696 H   0  0  0  0  0  0  0  0  0  0  0  0
    3.7803    0.8224    0.4027 H   0  0  0  0  0  0  0  0  0  0  0  0
    0.3047    2.0191   -0.3044 H   0  0  0  0  0  0  0  0  0  0  0  0
   -0.2155    4.3337   -0.7753 H   0  0  0  0  0  0  0  0  0  0  0  0
   -0.2002    5.9465    1.2944 H   0  0  0  0  0  0  0  0  0  0  0  0
   -2.2796    7.2351    1.5931 H   0  0  0  0  0  0  0  0  0  0  0  0
   -2.0422   10.4991   -1.8131 H   0  0  0  0  0  0  0  0  0  0  0  0
   -0.2712   10.5185   -3.6148 H   0  0  0  0  0  0  0  0  0  0  0  0
    1.3950    8.4246   -3.0616 H   0  0  0  0  0  0  0  0  0  0  0  0
    3.9102    5.4127   -0.2329 H   0  0  0  0  0  0  0  0  0  0  0  0
    4.4682    3.0549    0.2007 H   0  0  0  0  0  0  0  0  0  0  0  0
  1  2  2  0  0  0  0
  2  3  1  0  0  0  0
  2 19  1  0  0  0  0
  3  4  1  0  0  0  0
  3 36  1  0  0  0  0
  4  5  2  0  0  0  0
  5  6  1  0  0  0  0
  5 37  1  0  0  0  0
  6  7  2  0  0  0  0
  6 10  1  0  0  0  0
  7  8  1  0  0  0  0
  7 38  1  0  0  0  0
  8  9  2  0  0  0  0
  8 39  1  0  0  0  0
  9 10  1  0  0  0  0
  9 40  1  0  0  0  0
 10 11  1  0  0  0  0
 11 12  1  0  0  0  0
 11 41  1  0  0  0  0
 11 42  1  0  0  0  0
 12 13  1  0  0  0  0
 12 43  1  0  0  0  0
 12 44  1  0  0  0  0
 13 14  1  0  0  0  0
 13 45  1  0  0  0  0
 13 46  1  0  0  0  0
 14 15  1  0  0  0  0
 14 18  1  0  0  0  0
 15 16  1  0  0  0  0
 15 47  1  0  0  0  0
 15 48  1  0  0  0  0
 16 17  1  0  0  0  0
 16 49  1  0  0  0  0
 16 50  1  0  0  0  0
 17 18  1  0  0  0  0
 17 51  1  0  0  0  0
 17 52  1  0  0  0  0
 18 53  1  0  0  0  0
 18 54  1  0  0  0  0
 19 20  1  0  0  0  0
 19 55  1  0  0  0  0
 20 21  1  0  0  0  0
 20 35  2  0  0  0  0
 21 22  2  0  0  0  0
 21 56  1  0  0  0  0
 22 23  1  0  0  0  0
 22 57  1  0  0  0  0
 23 24  1  0  0  0  0
 23 34  2  0  0  0  0
 24 25  1  0  0  0  0
 25 26  1  0  0  0  0
 25 33  2  0  0  0  0
 26 27  2  0  0  0  0
 26 58  1  0  0  0  0
 27 28  1  0  0  0  0
 27 59  1  0  0  0  0
 28 29  2  0  0  0  0
 29 30  1  0  0  0  0
 29 33  1  0  0  0  0
 30 31  1  0  0  0  0
 30 60  1  0  0  0  0
 31 32  2  0  0  0  0
 31 61  1  0  0  0  0
 32 33  1  0  0  0  0
 32 62  1  0  0  0  0
 34 35  1  0  0  0  0
 34 63  1  0  0  0  0
 35 64  1  0  0  0  0
M  END
$$$$
