CHEMBL243839
 OpenBabel04072215363D

 65 68  0  0  0  0  0  0  0  0999 V2000
    0.6713   -2.4706    0.1646 C   0  0  0  0  0  0  0  0  0  0  0  0
    2.1214   -2.6217   -0.2448 C   0  0  0  0  0  0  0  0  0  0  0  0
    2.8697   -1.4657    0.1647 O   0  0  0  0  0  0  0  0  0  0  0  0
    4.2391   -1.6209    0.1138 C   0  0  0  0  0  0  0  0  0  0  0  0
    4.8668   -2.6771   -0.5765 C   0  0  0  0  0  0  0  0  0  0  0  0
    6.2371   -2.8893   -0.5332 C   0  0  0  0  0  0  0  0  0  0  0  0
    6.7570   -3.9583   -1.1447 N   0  0  0  0  0  0  0  0  0  0  0  0
    8.0857   -4.1001   -1.0764 C   0  0  0  0  0  0  0  0  0  0  0  0
    8.9385   -3.2643   -0.4773 N   0  0  0  0  0  0  0  0  0  0  0  0
    8.3953   -2.2064    0.1540 C   0  0  0  0  0  0  0  0  0  0  0  0
    9.2467   -1.3177    0.8885 N   0  0  0  0  0  0  0  0  0  0  0  0
   10.5942   -1.3240    0.5677 C   0  0  0  0  0  0  0  0  0  0  0  0
   11.1266   -0.4125   -0.2506 C   0  0  0  0  0  0  0  0  0  0  0  0
   12.5059   -0.5091   -0.7364 C   0  0  0  0  0  0  0  0  0  0  0  0
   12.9808    0.3946   -1.4126 O   0  0  0  0  0  0  0  0  0  0  0  0
   13.2771   -1.7460   -0.4048 C   0  0  0  0  0  0  0  0  0  0  0  0
   14.4972   -1.8447   -1.0341 O   0  0  0  0  0  0  0  0  0  0  0  0
   15.4726   -2.7211   -0.4815 C   0  0  0  0  0  0  0  0  0  0  0  0
   16.8002   -2.2999   -1.0337 C   0  0  0  0  0  0  0  0  0  0  0  0
   17.1804   -1.0758   -1.5532 C   0  0  0  0  0  0  0  0  0  0  0  0
   18.5542   -1.0452   -1.9222 C   0  0  0  0  0  0  0  0  0  0  0  0
   19.1794   -2.2469   -1.6765 C   0  0  0  0  0  0  0  0  0  0  0  0
   18.1102   -3.4052   -1.0162 S   0  0  0  0  0  0  0  0  0  0  0  0
   12.7619   -2.6316    0.4632 C   0  0  0  0  0  0  0  0  0  0  0  0
   11.4478   -2.4302    1.1069 C   0  0  0  0  0  0  0  0  0  0  0  0
   11.0789   -3.1485    2.0307 O   0  0  0  0  0  0  0  0  0  0  0  0
    7.0186   -1.9689    0.1555 C   0  0  0  0  0  0  0  0  0  0  0  0
    6.4172   -0.8614    0.7762 C   0  0  0  0  0  0  0  0  0  0  0  0
    5.0319   -0.7044    0.8214 C   0  0  0  0  0  0  0  0  0  0  0  0
    4.4564    0.3495    1.5827 N   0  0  0  0  0  0  0  0  0  0  0  0
    5.1233    0.9925    2.6144 C   0  0  0  0  0  0  0  0  0  0  0  0
    6.2196    0.6691    3.0649 O   0  0  0  0  0  0  0  0  0  0  0  0
    4.3987    2.1456    3.2115 C   0  0  0  0  0  0  0  0  0  0  0  0
    5.0484    2.8742    4.1394 C   0  0  0  0  0  0  0  0  0  0  0  0
    4.5332    4.1078    4.8122 C   0  0  0  0  0  0  0  0  0  0  0  0
    5.4381    5.2544    4.6364 N   0  0  0  0  0  0  0  0  0  0  0  0
    5.6063    5.6166    3.2271 C   0  0  0  0  0  0  0  0  0  0  0  0
    4.9368    6.4074    5.3872 C   0  0  0  0  0  0  0  0  0  0  0  0
    0.0887   -3.3318   -0.1784 H   0  0  0  0  0  0  0  0  0  0  0  0
    0.2385   -1.5583   -0.2550 H   0  0  0  0  0  0  0  0  0  0  0  0
    0.5884   -2.4053    1.2537 H   0  0  0  0  0  0  0  0  0  0  0  0
    2.1732   -2.7299   -1.3354 H   0  0  0  0  0  0  0  0  0  0  0  0
    2.5117   -3.5259    0.2398 H   0  0  0  0  0  0  0  0  0  0  0  0
    4.2964   -3.3950   -1.1584 H   0  0  0  0  0  0  0  0  0  0  0  0
    8.5117   -4.9788   -1.5476 H   0  0  0  0  0  0  0  0  0  0  0  0
    9.1101   -1.5894    1.8683 H   0  0  0  0  0  0  0  0  0  0  0  0
   10.5435    0.4199   -0.6266 H   0  0  0  0  0  0  0  0  0  0  0  0
   15.2311   -3.7533   -0.7586 H   0  0  0  0  0  0  0  0  0  0  0  0
   15.5072   -2.6203    0.6102 H   0  0  0  0  0  0  0  0  0  0  0  0
   16.5014   -0.2356   -1.6567 H   0  0  0  0  0  0  0  0  0  0  0  0
   19.0603   -0.1810   -2.3340 H   0  0  0  0  0  0  0  0  0  0  0  0
   20.2151   -2.5022   -1.8524 H   0  0  0  0  0  0  0  0  0  0  0  0
   13.2645   -3.5450    0.7492 H   0  0  0  0  0  0  0  0  0  0  0  0
    7.0703   -0.1143    1.2182 H   0  0  0  0  0  0  0  0  0  0  0  0
    3.4683    0.5163    1.4335 H   0  0  0  0  0  0  0  0  0  0  0  0
    3.4046    2.3915    2.8681 H   0  0  0  0  0  0  0  0  0  0  0  0
    6.0580    2.5906    4.4417 H   0  0  0  0  0  0  0  0  0  0  0  0
    4.4669    3.8751    5.8835 H   0  0  0  0  0  0  0  0  0  0  0  0
    3.5194    4.3457    4.4698 H   0  0  0  0  0  0  0  0  0  0  0  0
    6.1217    4.8237    2.6740 H   0  0  0  0  0  0  0  0  0  0  0  0
    6.2391    6.5062    3.1293 H   0  0  0  0  0  0  0  0  0  0  0  0
    4.6480    5.8191    2.7366 H   0  0  0  0  0  0  0  0  0  0  0  0
    4.8736    6.1758    6.4563 H   0  0  0  0  0  0  0  0  0  0  0  0
    3.9446    6.7217    5.0418 H   0  0  0  0  0  0  0  0  0  0  0  0
    5.6197    7.2592    5.2926 H   0  0  0  0  0  0  0  0  0  0  0  0
  1  2  1  0  0  0  0
  1 39  1  0  0  0  0
  1 40  1  0  0  0  0
  1 41  1  0  0  0  0
  2  3  1  0  0  0  0
  2 42  1  0  0  0  0
  2 43  1  0  0  0  0
  3  4  1  0  0  0  0
  4  5  1  0  0  0  0
  4 29  2  0  0  0  0
  5  6  2  0  0  0  0
  5 44  1  0  0  0  0
  6  7  1  0  0  0  0
  6 27  1  0  0  0  0
  7  8  2  0  0  0  0
  8  9  1  0  0  0  0
  8 45  1  0  0  0  0
  9 10  2  0  0  0  0
 10 11  1  0  0  0  0
 10 27  1  0  0  0  0
 11 12  1  0  0  0  0
 11 46  1  0  0  0  0
 12 13  2  0  0  0  0
 12 25  1  0  0  0  0
 13 14  1  0  0  0  0
 13 47  1  0  0  0  0
 14 15  2  0  0  0  0
 14 16  1  0  0  0  0
 16 17  1  0  0  0  0
 16 24  2  0  0  0  0
 17 18  1  0  0  0  0
 18 19  1  0  0  0  0
 18 48  1  0  0  0  0
 18 49  1  0  0  0  0
 19 20  2  0  0  0  0
 19 23  1  0  0  0  0
 20 21  1  0  0  0  0
 20 50  1  0  0  0  0
 21 22  2  0  0  0  0
 21 51  1  0  0  0  0
 22 23  1  0  0  0  0
 22 52  1  0  0  0  0
 24 25  1  0  0  0  0
 24 53  1  0  0  0  0
 25 26  2  0  0  0  0
 27 28  2  0  0  0  0
 28 29  1  0  0  0  0
 28 54  1  0  0  0  0
 29 30  1  0  0  0  0
 30 31  1  0  0  0  0
 30 55  1  0  0  0  0
 31 32  2  0  0  0  0
 31 33  1  0  0  0  0
 33 34  2  0  0  0  0
 33 56  1  0  0  0  0
 34 35  1  0  0  0  0
 34 57  1  0  0  0  0
 35 36  1  0  0  0  0
 35 58  1  0  0  0  0
 35 59  1  0  0  0  0
 36 37  1  0  0  0  0
 36 38  1  0  0  0  0
 37 60  1  0  0  0  0
 37 61  1  0  0  0  0
 37 62  1  0  0  0  0
 38 63  1  0  0  0  0
 38 64  1  0  0  0  0
 38 65  1  0  0  0  0
M  END
$$$$
