CHEMBL3676389
 OpenBabel04072215373D

 55 57  0  0  1  0  0  0  0  0999 V2000
    3.4021   -2.5366   -2.9453 C   0  0  0  0  0  0  0  0  0  0  0  0
    3.4736   -1.2174   -2.7314 C   0  0  0  0  0  0  0  0  0  0  0  0
    3.7094   -0.7124   -1.3527 C   0  0  0  0  0  0  0  0  0  0  0  0
    3.2984   -1.3080   -0.3594 O   0  0  0  0  0  0  0  0  0  0  0  0
    4.4651    0.4306   -1.2210 N   0  0  0  0  0  0  0  0  0  0  0  0
    5.2693    0.9260   -2.2637 C   0  0  0  0  0  0  0  0  0  0  0  0
    6.3745    0.1674   -2.6540 C   0  0  0  0  0  0  0  0  0  0  0  0
    7.0242    0.4307   -3.8792 C   0  0  0  0  0  0  0  0  0  0  0  0
    8.0927   -0.3306   -4.3884 C   0  0  0  0  0  0  0  0  0  0  0  0
    8.5063   -1.4821   -3.6877 N   0  0  0  0  0  0  0  0  0  0  0  0
    9.7989   -2.0519   -3.6265 C   0  0  0  0  0  0  0  0  0  0  0  0
   10.9530   -1.2717   -3.7507 C   0  0  0  0  0  0  0  0  0  0  0  0
   12.2122   -1.8105   -3.4679 C   0  0  0  0  0  0  0  0  0  0  0  0
   12.3247   -3.1414   -3.0685 C   0  0  0  0  0  0  0  0  0  0  0  0
   14.0132   -3.8262   -2.5665 Br  0  0  0  0  0  0  0  0  0  0  0  0
   11.1983   -3.9536   -2.9944 C   0  0  0  0  0  0  0  0  0  0  0  0
    9.9512   -3.3992   -3.2656 C   0  0  0  0  0  0  0  0  0  0  0  0
    8.8602   -4.1760   -3.1525 F   0  0  0  0  0  0  0  0  0  0  0  0
    8.6907   -0.0283   -5.5505 N   0  0  0  0  0  0  0  0  0  0  0  0
    8.2045    1.0201   -6.2181 C   0  0  0  0  0  0  0  0  0  0  0  0
    7.1845    1.8025   -5.8350 N   0  0  0  0  0  0  0  0  0  0  0  0
    6.6089    1.5111   -4.6658 C   0  0  0  0  0  0  0  0  0  0  0  0
    5.5481    2.2977   -4.2194 C   0  0  0  0  0  0  0  0  0  0  0  0
    4.8821    2.0401   -3.0163 C   0  0  0  0  0  0  0  0  0  0  0  0
    3.8518    2.9045   -2.7253 O   0  0  0  0  0  0  0  0  0  0  0  0
    3.6297    3.1421   -1.3287 C   0  0  0  0  0  0  0  0  0  0  0  0
    3.1325    4.5718   -1.0925 C   0  0  0  0  0  0  0  0  0  0  0  0
    3.0293    4.8758    0.3250 N   0  0  0  0  0  0  0  0  0  0  0  0
    4.1449    5.1386    1.0948 C   0  0  0  0  0  0  0  0  0  0  0  0
    5.2773    5.1948    0.6232 O   0  0  0  0  0  0  0  0  0  0  0  0
    3.8458    5.2653    2.6059 C   0  0  3  0  0  0  0  0  0  0  0  0
    5.0696    5.7574    3.3711 C   0  0  0  0  0  0  0  0  0  0  0  0
    2.6856    6.1557    2.8202 N   0  0  0  0  0  0  0  0  0  0  0  0
    3.2983   -2.9322   -3.9499 H   0  0  0  0  0  0  0  0  0  0  0  0
    3.4640   -3.2462   -2.1246 H   0  0  0  0  0  0  0  0  0  0  0  0
    3.4288   -0.5124   -3.5516 H   0  0  0  0  0  0  0  0  0  0  0  0
    4.8631    0.4602   -0.2876 H   0  0  0  0  0  0  0  0  0  0  0  0
    6.6905   -0.6719   -2.0370 H   0  0  0  0  0  0  0  0  0  0  0  0
    7.7707   -2.1847   -3.6462 H   0  0  0  0  0  0  0  0  0  0  0  0
   10.8801   -0.2224   -4.0250 H   0  0  0  0  0  0  0  0  0  0  0  0
   13.0887   -1.1710   -3.5318 H   0  0  0  0  0  0  0  0  0  0  0  0
   11.2683   -4.9951   -2.6991 H   0  0  0  0  0  0  0  0  0  0  0  0
    8.6724    1.2561   -7.1680 H   0  0  0  0  0  0  0  0  0  0  0  0
    5.2231    3.1339   -4.8358 H   0  0  0  0  0  0  0  0  0  0  0  0
    4.5490    2.9989   -0.7483 H   0  0  0  0  0  0  0  0  0  0  0  0
    2.8651    2.4432   -0.9701 H   0  0  0  0  0  0  0  0  0  0  0  0
    2.1474    4.7195   -1.5474 H   0  0  0  0  0  0  0  0  0  0  0  0
    3.8181    5.2870   -1.5616 H   0  0  0  0  0  0  0  0  0  0  0  0
    2.1302    4.8705    0.7989 H   0  0  0  0  0  0  0  0  0  0  0  0
    3.5810    4.2645    2.9672 H   0  0  0  0  0  0  0  0  0  0  0  0
    5.4289    6.7166    2.9826 H   0  0  0  0  0  0  0  0  0  0  0  0
    5.8916    5.0376    3.2797 H   0  0  0  0  0  0  0  0  0  0  0  0
    4.8531    5.8763    4.4379 H   0  0  0  0  0  0  0  0  0  0  0  0
    2.8931    7.0617    2.3942 H   0  0  0  0  0  0  0  0  0  0  0  0
    2.6027    6.3483    3.8197 H   0  0  0  0  0  0  0  0  0  0  0  0
  1  2  2  0  0  0  0
  1 34  1  0  0  0  0
  1 35  1  0  0  0  0
  2  3  1  0  0  0  0
  2 36  1  0  0  0  0
  3  4  2  0  0  0  0
  3  5  1  0  0  0  0
  5  6  1  0  0  0  0
  5 37  1  0  0  0  0
  6  7  1  0  0  0  0
  6 24  2  0  0  0  0
  7  8  2  0  0  0  0
  7 38  1  0  0  0  0
  8  9  1  0  0  0  0
  8 22  1  0  0  0  0
  9 10  1  0  0  0  0
  9 19  2  0  0  0  0
 10 11  1  0  0  0  0
 10 39  1  0  0  0  0
 11 12  1  0  0  0  0
 11 17  2  0  0  0  0
 12 13  2  0  0  0  0
 12 40  1  0  0  0  0
 13 14  1  0  0  0  0
 13 41  1  0  0  0  0
 14 15  1  0  0  0  0
 14 16  2  0  0  0  0
 16 17  1  0  0  0  0
 16 42  1  0  0  0  0
 17 18  1  0  0  0  0
 19 20  1  0  0  0  0
 20 21  2  0  0  0  0
 20 43  1  0  0  0  0
 21 22  1  0  0  0  0
 22 23  2  0  0  0  0
 23 24  1  0  0  0  0
 23 44  1  0  0  0  0
 24 25  1  0  0  0  0
 25 26  1  0  0  0  0
 26 27  1  0  0  0  0
 26 45  1  0  0  0  0
 26 46  1  0  0  0  0
 27 28  1  0  0  0  0
 27 47  1  0  0  0  0
 27 48  1  0  0  0  0
 28 29  1  0  0  0  0
 28 49  1  0  0  0  0
 29 30  2  0  0  0  0
 29 31  1  0  0  0  0
 31 32  1  0  0  0  0
 31 33  1  0  0  0  0
 31 50  1  0  0  0  0
 32 51  1  0  0  0  0
 32 52  1  0  0  0  0
 32 53  1  0  0  0  0
 33 54  1  0  0  0  0
 33 55  1  0  0  0  0
M  END
$$$$
