CHEMBL3942082
 OpenBabel04072215373D

 58 61  0  0  1  0  0  0  0  0999 V2000
    4.5659   -1.5190    2.6345 C   0  0  0  0  0  0  0  0  0  0  0  0
    4.3835   -3.0252    2.7481 C   0  0  0  0  0  0  0  0  0  0  0  0
    5.3459   -3.7680    1.8100 C   0  0  0  0  0  0  0  0  0  0  0  0
    5.1246   -5.2165    1.7409 N   0  0  0  0  0  0  0  0  0  0  0  0
    6.1116   -5.8847    0.8618 C   0  0  0  0  0  0  0  0  0  0  0  0
    5.8155   -5.7465   -0.6433 C   0  0  0  0  0  0  0  0  0  0  0  0
    4.4879   -6.1625   -0.9874 O   0  0  0  0  0  0  0  0  0  0  0  0
    3.4736   -5.4864   -0.2160 C   0  0  3  0  0  0  0  0  0  0  0  0
    3.2613   -4.0316   -0.7101 C   0  0  0  0  0  0  0  0  0  0  0  0
    2.4880   -3.9620   -1.9306 O   0  0  0  0  0  0  0  0  0  0  0  0
    1.1207   -3.9445   -1.8207 C   0  0  0  0  0  0  0  0  0  0  0  0
    0.4712   -4.1625   -0.5862 C   0  0  0  0  0  0  0  0  0  0  0  0
   -0.9056   -4.1975   -0.4421 C   0  0  0  0  0  0  0  0  0  0  0  0
   -1.4270   -4.4086    0.7715 N   0  0  0  0  0  0  0  0  0  0  0  0
   -2.7598   -4.4486    0.8469 C   0  0  0  0  0  0  0  0  0  0  0  0
   -3.6053   -4.3242   -0.1787 N   0  0  0  0  0  0  0  0  0  0  0  0
   -3.0589   -4.1446   -1.3956 C   0  0  0  0  0  0  0  0  0  0  0  0
   -3.9002   -4.0979   -2.5401 N   0  0  0  0  0  0  0  0  0  0  0  0
   -5.3001   -3.9885   -2.4824 C   0  0  0  0  0  0  0  0  0  0  0  0
   -5.9052   -3.0029   -1.6893 C   0  0  0  0  0  0  0  0  0  0  0  0
   -7.2811   -2.9332   -1.5690 C   0  0  0  0  0  0  0  0  0  0  0  0
   -8.0890   -3.8517   -2.2426 C   0  0  0  0  0  0  0  0  0  0  0  0
   -9.7928   -3.7456   -2.0052 Cl  0  0  0  0  0  0  0  0  0  0  0  0
   -7.4996   -4.8232   -3.0636 C   0  0  0  0  0  0  0  0  0  0  0  0
   -8.4334   -5.9924   -3.9295 Cl  0  0  0  0  0  0  0  0  0  0  0  0
   -6.1104   -4.8811   -3.1907 C   0  0  0  0  0  0  0  0  0  0  0  0
   -1.6797   -4.0248   -1.5783 C   0  0  0  0  0  0  0  0  0  0  0  0
   -1.0578   -3.7567   -2.8129 C   0  0  0  0  0  0  0  0  0  0  0  0
    0.3303   -3.7194   -2.9540 C   0  0  0  0  0  0  0  0  0  0  0  0
    0.6482   -3.4467   -4.2473 O   0  0  0  0  0  0  0  0  0  0  0  0
    1.9663   -3.5526   -4.7484 C   0  0  0  0  0  0  0  0  0  0  0  0
    3.7807   -5.6358    1.2988 C   0  0  0  0  0  0  0  0  0  0  0  0
    3.8744   -1.0008    3.3066 H   0  0  0  0  0  0  0  0  0  0  0  0
    4.3557   -1.1816    1.6129 H   0  0  0  0  0  0  0  0  0  0  0  0
    5.5860   -1.2221    2.8931 H   0  0  0  0  0  0  0  0  0  0  0  0
    3.3378   -3.2407    2.5123 H   0  0  0  0  0  0  0  0  0  0  0  0
    4.5544   -3.3409    3.7836 H   0  0  0  0  0  0  0  0  0  0  0  0
    6.3624   -3.5918    2.1863 H   0  0  0  0  0  0  0  0  0  0  0  0
    5.3174   -3.3090    0.8188 H   0  0  0  0  0  0  0  0  0  0  0  0
    6.1033   -6.9533    1.1149 H   0  0  0  0  0  0  0  0  0  0  0  0
    7.1273   -5.5327    1.0772 H   0  0  0  0  0  0  0  0  0  0  0  0
    6.5028   -6.3831   -1.2089 H   0  0  0  0  0  0  0  0  0  0  0  0
    5.9815   -4.7219   -0.9882 H   0  0  0  0  0  0  0  0  0  0  0  0
    2.5561   -6.0557   -0.4045 H   0  0  0  0  0  0  0  0  0  0  0  0
    4.2122   -3.5698   -0.9760 H   0  0  0  0  0  0  0  0  0  0  0  0
    2.8294   -3.3823    0.0610 H   0  0  0  0  0  0  0  0  0  0  0  0
    1.0230   -4.3330    0.3314 H   0  0  0  0  0  0  0  0  0  0  0  0
   -3.1973   -4.5993    1.8282 H   0  0  0  0  0  0  0  0  0  0  0  0
   -3.5872   -4.8042   -3.1998 H   0  0  0  0  0  0  0  0  0  0  0  0
   -5.2760   -2.2928   -1.1471 H   0  0  0  0  0  0  0  0  0  0  0  0
   -7.7208   -2.1709   -0.9297 H   0  0  0  0  0  0  0  0  0  0  0  0
   -5.6592   -5.6509   -3.8131 H   0  0  0  0  0  0  0  0  0  0  0  0
   -1.6660   -3.5611   -3.6956 H   0  0  0  0  0  0  0  0  0  0  0  0
    1.8707   -3.7022   -5.8320 H   0  0  0  0  0  0  0  0  0  0  0  0
    2.5013   -4.4124   -4.3483 H   0  0  0  0  0  0  0  0  0  0  0  0
    2.5123   -2.6156   -4.5973 H   0  0  0  0  0  0  0  0  0  0  0  0
    3.7154   -6.7090    1.5350 H   0  0  0  0  0  0  0  0  0  0  0  0
    2.9909   -5.1862    1.9081 H   0  0  0  0  0  0  0  0  0  0  0  0
  1  2  1  0  0  0  0
  1 33  1  0  0  0  0
  1 34  1  0  0  0  0
  1 35  1  0  0  0  0
  2  3  1  0  0  0  0
  2 36  1  0  0  0  0
  2 37  1  0  0  0  0
  3  4  1  0  0  0  0
  3 38  1  0  0  0  0
  3 39  1  0  0  0  0
  4  5  1  0  0  0  0
  4 32  1  0  0  0  0
  5  6  1  0  0  0  0
  5 40  1  0  0  0  0
  5 41  1  0  0  0  0
  6  7  1  0  0  0  0
  6 42  1  0  0  0  0
  6 43  1  0  0  0  0
  7  8  1  0  0  0  0
  8  9  1  0  0  0  0
  8 32  1  0  0  0  0
  8 44  1  0  0  0  0
  9 10  1  0  0  0  0
  9 45  1  0  0  0  0
  9 46  1  0  0  0  0
 10 11  1  0  0  0  0
 11 12  1  0  0  0  0
 11 29  2  0  0  0  0
 12 13  2  0  0  0  0
 12 47  1  0  0  0  0
 13 14  1  0  0  0  0
 13 27  1  0  0  0  0
 14 15  2  0  0  0  0
 15 16  1  0  0  0  0
 15 48  1  0  0  0  0
 16 17  2  0  0  0  0
 17 18  1  0  0  0  0
 17 27  1  0  0  0  0
 18 19  1  0  0  0  0
 18 49  1  0  0  0  0
 19 20  1  0  0  0  0
 19 26  2  0  0  0  0
 20 21  2  0  0  0  0
 20 50  1  0  0  0  0
 21 22  1  0  0  0  0
 21 51  1  0  0  0  0
 22 23  1  0  0  0  0
 22 24  2  0  0  0  0
 24 25  1  0  0  0  0
 24 26  1  0  0  0  0
 26 52  1  0  0  0  0
 27 28  2  0  0  0  0
 28 29  1  0  0  0  0
 28 53  1  0  0  0  0
 29 30  1  0  0  0  0
 30 31  1  0  0  0  0
 31 54  1  0  0  0  0
 31 55  1  0  0  0  0
 31 56  1  0  0  0  0
 32 57  1  0  0  0  0
 32 58  1  0  0  0  0
M  END
$$$$
