CHEMBL371332
 OpenBabel04072215373D

 44 47  0  0  0  0  0  0  0  0999 V2000
    2.8583   -5.9223   -0.9012 C   0  0  0  0  0  0  0  0  0  0  0  0
    1.4046   -6.2703   -0.9894 C   0  0  0  0  0  0  0  0  0  0  0  0
    1.0173   -7.5419   -1.4339 C   0  0  0  0  0  0  0  0  0  0  0  0
   -0.3290   -7.8664   -1.5314 C   0  0  0  0  0  0  0  0  0  0  0  0
   -1.3029   -6.9279   -1.1872 C   0  0  0  0  0  0  0  0  0  0  0  0
   -0.9519   -5.6528   -0.7296 C   0  0  0  0  0  0  0  0  0  0  0  0
   -1.9037   -4.6668   -0.3691 N   0  0  0  0  0  0  0  0  0  0  0  0
   -3.2699   -4.8661   -0.2518 C   0  0  0  0  0  0  0  0  0  0  0  0
   -3.8289   -5.9541   -0.3241 O   0  0  0  0  0  0  0  0  0  0  0  0
   -3.9631   -3.6706   -0.0888 N   0  0  0  0  0  0  0  0  0  0  0  0
   -5.3736   -3.6515    0.0537 C   0  0  0  0  0  0  0  0  0  0  0  0
   -6.1021   -2.6378   -0.5598 C   0  0  0  0  0  0  0  0  0  0  0  0
   -7.5044   -2.6569   -0.5172 C   0  0  0  0  0  0  0  0  0  0  0  0
   -8.2193   -3.6989    0.1019 C   0  0  0  0  0  0  0  0  0  0  0  0
   -9.6951   -3.7056   -0.0051 C   0  0  0  0  0  0  0  0  0  0  0  0
  -10.4730   -3.9526    1.1153 C   0  0  0  0  0  0  0  0  0  0  0  0
  -12.1461   -3.9456    0.8004 S   0  0  0  0  0  0  0  0  0  0  0  0
  -11.8908   -3.4915   -0.8152 C   0  0  0  0  0  0  0  0  0  0  0  0
  -12.9544   -3.2633   -1.6036 N   0  0  0  0  0  0  0  0  0  0  0  0
  -12.6079   -2.8800   -2.8285 C   0  0  0  0  0  0  0  0  0  0  0  0
  -11.3677   -2.7366   -3.3091 N   0  0  0  0  0  0  0  0  0  0  0  0
  -10.3225   -3.0000   -2.5014 C   0  0  0  0  0  0  0  0  0  0  0  0
   -9.0798   -2.8451   -3.1057 N   0  0  0  0  0  0  0  0  0  0  0  0
  -10.5461   -3.3885   -1.1596 C   0  0  0  0  0  0  0  0  0  0  0  0
   -7.4629   -4.6813    0.7745 C   0  0  0  0  0  0  0  0  0  0  0  0
   -8.1562   -6.0325    1.6121 Cl  0  0  0  0  0  0  0  0  0  0  0  0
   -6.0604   -4.6361    0.7658 C   0  0  0  0  0  0  0  0  0  0  0  0
    0.4099   -5.3316   -0.6361 C   0  0  0  0  0  0  0  0  0  0  0  0
    3.4907   -6.7551   -1.2274 H   0  0  0  0  0  0  0  0  0  0  0  0
    3.1298   -5.6839    0.1328 H   0  0  0  0  0  0  0  0  0  0  0  0
    3.0842   -5.0643   -1.5438 H   0  0  0  0  0  0  0  0  0  0  0  0
    1.7628   -8.2827   -1.7120 H   0  0  0  0  0  0  0  0  0  0  0  0
   -0.6320   -8.8520   -1.8752 H   0  0  0  0  0  0  0  0  0  0  0  0
   -2.3373   -7.2354   -1.2945 H   0  0  0  0  0  0  0  0  0  0  0  0
   -1.5413   -3.7926   -0.0230 H   0  0  0  0  0  0  0  0  0  0  0  0
   -3.5380   -2.8695   -0.5348 H   0  0  0  0  0  0  0  0  0  0  0  0
   -5.6075   -1.8579   -1.1326 H   0  0  0  0  0  0  0  0  0  0  0  0
   -8.0354   -1.8483   -1.0185 H   0  0  0  0  0  0  0  0  0  0  0  0
  -10.1529   -4.1642    2.1263 H   0  0  0  0  0  0  0  0  0  0  0  0
  -13.4191   -2.6602   -3.5153 H   0  0  0  0  0  0  0  0  0  0  0  0
   -9.2115   -2.7303   -4.1062 H   0  0  0  0  0  0  0  0  0  0  0  0
   -8.4097   -3.5583   -2.8463 H   0  0  0  0  0  0  0  0  0  0  0  0
   -5.5047   -5.4015    1.3051 H   0  0  0  0  0  0  0  0  0  0  0  0
    0.7243   -4.3505   -0.2889 H   0  0  0  0  0  0  0  0  0  0  0  0
  1  2  1  0  0  0  0
  1 29  1  0  0  0  0
  1 30  1  0  0  0  0
  1 31  1  0  0  0  0
  2  3  1  0  0  0  0
  2 28  2  0  0  0  0
  3  4  2  0  0  0  0
  3 32  1  0  0  0  0
  4  5  1  0  0  0  0
  4 33  1  0  0  0  0
  5  6  2  0  0  0  0
  5 34  1  0  0  0  0
  6  7  1  0  0  0  0
  6 28  1  0  0  0  0
  7  8  1  0  0  0  0
  7 35  1  0  0  0  0
  8  9  2  0  0  0  0
  8 10  1  0  0  0  0
 10 11  1  0  0  0  0
 10 36  1  0  0  0  0
 11 12  1  0  0  0  0
 11 27  2  0  0  0  0
 12 13  2  0  0  0  0
 12 37  1  0  0  0  0
 13 14  1  0  0  0  0
 13 38  1  0  0  0  0
 14 15  1  0  0  0  0
 14 25  2  0  0  0  0
 15 16  2  0  0  0  0
 15 24  1  0  0  0  0
 16 17  1  0  0  0  0
 16 39  1  0  0  0  0
 17 18  1  0  0  0  0
 18 19  1  0  0  0  0
 18 24  2  0  0  0  0
 19 20  2  0  0  0  0
 20 21  1  0  0  0  0
 20 40  1  0  0  0  0
 21 22  2  0  0  0  0
 22 23  1  0  0  0  0
 22 24  1  0  0  0  0
 23 41  1  0  0  0  0
 23 42  1  0  0  0  0
 25 26  1  0  0  0  0
 25 27  1  0  0  0  0
 27 43  1  0  0  0  0
 28 44  1  0  0  0  0
M  END
$$$$
