CHEMBL3989926
 OpenBabel04072215373D

 74 79  0  0  0  0  0  0  0  0999 V2000
    0.0537    4.8016    1.4688 C   0  0  0  0  0  0  0  0  0  0  0  0
    1.4591    4.6684    1.6409 O   0  0  0  0  0  0  0  0  0  0  0  0
    1.8020    3.3368    2.0253 C   0  0  0  0  0  0  0  0  0  0  0  0
    3.3166    3.2306    2.2198 C   0  0  0  0  0  0  0  0  0  0  0  0
    3.6811    1.8525    2.5831 N   0  0  0  0  0  0  0  0  0  0  0  0
    5.1139    1.7058    2.8539 C   0  0  0  0  0  0  0  0  0  0  0  0
    5.5527    2.4877    4.0583 C   0  0  0  0  0  0  0  0  0  0  0  0
    4.8983    2.3604    5.2882 C   0  0  0  0  0  0  0  0  0  0  0  0
    5.2802    3.1671    6.3582 C   0  0  0  0  0  0  0  0  0  0  0  0
    6.3208    4.0619    6.1602 C   0  0  0  0  0  0  0  0  0  0  0  0
    6.8249    4.8785    7.2596 C   0  0  0  0  0  0  0  0  0  0  0  0
    6.1582    5.5294    8.2834 C   0  0  0  0  0  0  0  0  0  0  0  0
    7.0467    6.0568    9.2688 C   0  0  0  0  0  0  0  0  0  0  0  0
    6.6907    6.6831   10.4243 N   0  0  0  0  0  0  0  0  0  0  0  0
    7.7076    6.9426   11.2771 C   0  0  0  0  0  0  0  0  0  0  0  0
    9.0336    6.5975   11.0819 C   0  0  0  0  0  0  0  0  0  0  0  0
    9.3853    6.0085    9.8764 C   0  0  0  0  0  0  0  0  0  0  0  0
   10.5913    5.4457    9.5926 O   0  0  0  0  0  0  0  0  0  0  0  0
   11.7704    6.0650    9.8653 C   0  0  0  0  0  0  0  0  0  0  0  0
   12.8533    5.1789    9.8772 C   0  0  0  0  0  0  0  0  0  0  0  0
   14.1323    5.6381   10.1502 C   0  0  0  0  0  0  0  0  0  0  0  0
   14.3287    7.0019   10.3394 C   0  0  0  0  0  0  0  0  0  0  0  0
   15.6314    7.4517   10.5446 N   0  0  0  0  0  0  0  0  0  0  0  0
   16.1204    8.5411    9.8562 C   0  0  0  0  0  0  0  0  0  0  0  0
   15.5323    9.2138    9.0223 O   0  0  0  0  0  0  0  0  0  0  0  0
   17.5425    8.8281   10.1523 C   0  0  0  0  0  0  0  0  0  0  0  0
   18.5077    7.8755    9.5306 C   0  0  0  0  0  0  0  0  0  0  0  0
   18.9244    6.9474   10.2145 O   0  0  0  0  0  0  0  0  0  0  0  0
   18.8263    8.1239    8.2099 N   0  0  0  0  0  0  0  0  0  0  0  0
   19.7515    7.3227    7.5144 C   0  0  0  0  0  0  0  0  0  0  0  0
   19.7392    5.9254    7.6252 C   0  0  0  0  0  0  0  0  0  0  0  0
   20.7543    5.1655    7.0446 C   0  0  0  0  0  0  0  0  0  0  0  0
   21.7842    5.8107    6.3738 C   0  0  0  0  0  0  0  0  0  0  0  0
   22.8035    5.0931    5.8846 F   0  0  0  0  0  0  0  0  0  0  0  0
   21.7798    7.1933    6.2144 C   0  0  0  0  0  0  0  0  0  0  0  0
   20.7378    7.9520    6.7531 C   0  0  0  0  0  0  0  0  0  0  0  0
   17.8881    9.3222   11.5598 C   0  0  0  0  0  0  0  0  0  0  0  0
   17.8891   10.2858   10.4159 C   0  0  0  0  0  0  0  0  0  0  0  0
   13.2598    7.8990   10.2917 C   0  0  0  0  0  0  0  0  0  0  0  0
   11.9822    7.4271   10.0476 C   0  0  0  0  0  0  0  0  0  0  0  0
   10.9819    8.3177    9.9863 F   0  0  0  0  0  0  0  0  0  0  0  0
    8.3652    5.7594    8.9594 C   0  0  0  0  0  0  0  0  0  0  0  0
    8.5149    5.0460    7.4154 S   0  0  0  0  0  0  0  0  0  0  0  0
    6.9896    4.1822    4.9899 N   0  0  0  0  0  0  0  0  0  0  0  0
    6.5978    3.3958    3.9697 C   0  0  0  0  0  0  0  0  0  0  0  0
   -0.1670    5.8376    1.1994 H   0  0  0  0  0  0  0  0  0  0  0  0
   -0.4719    4.5617    2.3984 H   0  0  0  0  0  0  0  0  0  0  0  0
   -0.2924    4.1477    0.6623 H   0  0  0  0  0  0  0  0  0  0  0  0
    1.4766    2.6424    1.2424 H   0  0  0  0  0  0  0  0  0  0  0  0
    1.2898    3.0852    2.9618 H   0  0  0  0  0  0  0  0  0  0  0  0
    3.6057    3.9491    2.9964 H   0  0  0  0  0  0  0  0  0  0  0  0
    3.8315    3.5391    1.3015 H   0  0  0  0  0  0  0  0  0  0  0  0
    3.4335    1.2322    1.8134 H   0  0  0  0  0  0  0  0  0  0  0  0
    5.6934    1.9895    1.9662 H   0  0  0  0  0  0  0  0  0  0  0  0
    5.3303    0.6497    3.0408 H   0  0  0  0  0  0  0  0  0  0  0  0
    4.0827    1.6588    5.4016 H   0  0  0  0  0  0  0  0  0  0  0  0
    4.7915    3.0623    7.3110 H   0  0  0  0  0  0  0  0  0  0  0  0
    5.0811    5.5742    8.3705 H   0  0  0  0  0  0  0  0  0  0  0  0
    7.4086    7.4390   12.1979 H   0  0  0  0  0  0  0  0  0  0  0  0
    9.7665    6.7799   11.8585 H   0  0  0  0  0  0  0  0  0  0  0  0
   12.6919    4.1278    9.6464 H   0  0  0  0  0  0  0  0  0  0  0  0
   14.9662    4.9425   10.1310 H   0  0  0  0  0  0  0  0  0  0  0  0
   16.3191    6.7940   10.9023 H   0  0  0  0  0  0  0  0  0  0  0  0
   18.6157    9.0460    7.8460 H   0  0  0  0  0  0  0  0  0  0  0  0
   18.9426    5.4169    8.1633 H   0  0  0  0  0  0  0  0  0  0  0  0
   20.7607    4.0843    7.1380 H   0  0  0  0  0  0  0  0  0  0  0  0
   22.6053    7.6734    5.6991 H   0  0  0  0  0  0  0  0  0  0  0  0
   20.7604    9.0328    6.6517 H   0  0  0  0  0  0  0  0  0  0  0  0
   18.8480    9.0455   11.9835 H   0  0  0  0  0  0  0  0  0  0  0  0
   17.0858    9.3637   12.2889 H   0  0  0  0  0  0  0  0  0  0  0  0
   18.8358   10.6692   10.0653 H   0  0  0  0  0  0  0  0  0  0  0  0
   17.0756   11.0071   10.3775 H   0  0  0  0  0  0  0  0  0  0  0  0
   13.4030    8.9639   10.4508 H   0  0  0  0  0  0  0  0  0  0  0  0
    7.1602    3.5339    3.0522 H   0  0  0  0  0  0  0  0  0  0  0  0
  1  2  1  0  0  0  0
  1 46  1  0  0  0  0
  1 47  1  0  0  0  0
  1 48  1  0  0  0  0
  2  3  1  0  0  0  0
  3  4  1  0  0  0  0
  3 49  1  0  0  0  0
  3 50  1  0  0  0  0
  4  5  1  0  0  0  0
  4 51  1  0  0  0  0
  4 52  1  0  0  0  0
  5  6  1  0  0  0  0
  5 53  1  0  0  0  0
  6  7  1  0  0  0  0
  6 54  1  0  0  0  0
  6 55  1  0  0  0  0
  7  8  1  0  0  0  0
  7 45  2  0  0  0  0
  8  9  2  0  0  0  0
  8 56  1  0  0  0  0
  9 10  1  0  0  0  0
  9 57  1  0  0  0  0
 10 11  1  0  0  0  0
 10 44  2  0  0  0  0
 11 12  2  0  0  0  0
 11 43  1  0  0  0  0
 12 13  1  0  0  0  0
 12 58  1  0  0  0  0
 13 14  1  0  0  0  0
 13 42  2  0  0  0  0
 14 15  2  0  0  0  0
 15 16  1  0  0  0  0
 15 59  1  0  0  0  0
 16 17  2  0  0  0  0
 16 60  1  0  0  0  0
 17 18  1  0  0  0  0
 17 42  1  0  0  0  0
 18 19  1  0  0  0  0
 19 20  1  0  0  0  0
 19 40  2  0  0  0  0
 20 21  2  0  0  0  0
 20 61  1  0  0  0  0
 21 22  1  0  0  0  0
 21 62  1  0  0  0  0
 22 23  1  0  0  0  0
 22 39  2  0  0  0  0
 23 24  1  0  0  0  0
 23 63  1  0  0  0  0
 24 25  2  0  0  0  0
 24 26  1  0  0  0  0
 26 27  1  0  0  0  0
 26 37  1  0  0  0  0
 26 38  1  0  0  0  0
 27 28  2  0  0  0  0
 27 29  1  0  0  0  0
 29 30  1  0  0  0  0
 29 64  1  0  0  0  0
 30 31  1  0  0  0  0
 30 36  2  0  0  0  0
 31 32  2  0  0  0  0
 31 65  1  0  0  0  0
 32 33  1  0  0  0  0
 32 66  1  0  0  0  0
 33 34  1  0  0  0  0
 33 35  2  0  0  0  0
 35 36  1  0  0  0  0
 35 67  1  0  0  0  0
 36 68  1  0  0  0  0
 37 38  1  0  0  0  0
 37 69  1  0  0  0  0
 37 70  1  0  0  0  0
 38 71  1  0  0  0  0
 38 72  1  0  0  0  0
 39 40  1  0  0  0  0
 39 73  1  0  0  0  0
 40 41  1  0  0  0  0
 42 43  1  0  0  0  0
 44 45  1  0  0  0  0
 45 74  1  0  0  0  0
M  END
$$$$
