CHEMBL3933094
 OpenBabel04072215373D

 63 67  0  0  1  0  0  0  0  0999 V2000
    3.5244   -2.4612    2.4554 C   0  0  0  0  0  0  0  0  0  0  0  0
    2.7317   -1.3436    1.9515 N   0  0  0  0  0  0  0  0  0  0  0  0
    2.8853   -1.1676    0.4830 C   0  0  3  0  0  0  0  0  0  0  0  0
    2.5185   -2.4622   -0.2711 C   0  0  0  0  0  0  0  0  0  0  0  0
    3.4047   -3.1280   -0.8171 O   0  0  0  0  0  0  0  0  0  0  0  0
    1.1762   -2.8230   -0.2427 N   0  0  0  0  0  0  0  0  0  0  0  0
    0.7415   -4.0528   -0.7710 C   0  0  0  0  0  0  0  0  0  0  0  0
    1.4624   -5.2248   -0.5274 C   0  0  0  0  0  0  0  0  0  0  0  0
    1.1107   -6.4134   -1.1568 C   0  0  0  0  0  0  0  0  0  0  0  0
    0.0316   -6.4313   -2.0294 C   0  0  0  0  0  0  0  0  0  0  0  0
   -0.7758   -5.2911   -2.1752 C   0  0  0  0  0  0  0  0  0  0  0  0
   -2.0163   -5.3286   -2.9918 C   0  0  0  0  0  0  0  0  0  0  0  0
   -2.3929   -4.2871   -3.5403 O   0  0  0  0  0  0  0  0  0  0  0  0
   -2.8112   -6.5767   -3.1304 C   0  0  0  0  0  0  0  0  0  0  0  0
   -2.7716   -7.6218   -2.1952 C   0  0  0  0  0  0  0  0  0  0  0  0
   -3.4553   -8.8406   -2.4054 C   0  0  0  0  0  0  0  0  0  0  0  0
   -4.3588   -8.8998   -3.4763 C   0  0  0  0  0  0  0  0  0  0  0  0
   -5.2872   -9.8108   -4.0879 C   0  0  0  0  0  0  0  0  0  0  0  0
   -5.0310  -10.7740   -5.1492 C   0  0  0  0  0  0  0  0  0  0  0  0
   -3.9592  -10.7052   -5.9611 C   0  0  0  0  0  0  0  0  0  0  0  0
   -4.0721  -10.8129   -7.4399 C   0  0  0  0  0  0  0  0  0  0  0  0
   -5.1414  -10.2063   -8.1234 C   0  0  0  0  0  0  0  0  0  0  0  0
   -5.1309  -10.0819   -9.5200 C   0  0  0  0  0  0  0  0  0  0  0  0
   -4.0431  -10.5649  -10.2458 C   0  0  0  0  0  0  0  0  0  0  0  0
   -2.9825  -11.1701   -9.5839 C   0  0  0  0  0  0  0  0  0  0  0  0
   -2.9962  -11.2924   -8.1860 C   0  0  0  0  0  0  0  0  0  0  0  0
   -6.3919   -9.0702   -4.3355 N   0  0  0  0  0  0  0  0  0  0  0  0
   -5.8248   -7.9064   -4.7290 N   0  0  0  0  0  0  0  0  0  0  0  0
   -4.5803   -7.7282   -4.1984 C   0  0  0  0  0  0  0  0  0  0  0  0
   -3.7223   -6.6343   -4.2010 C   0  0  0  0  0  0  0  0  0  0  0  0
   -0.4142   -4.0859   -1.5496 C   0  0  0  0  0  0  0  0  0  0  0  0
    2.1249    0.0524   -0.0213 C   0  0  0  0  0  0  0  0  0  0  0  0
    2.6008    0.7570   -1.1399 C   0  0  0  0  0  0  0  0  0  0  0  0
    1.9422    1.9026   -1.5916 C   0  0  0  0  0  0  0  0  0  0  0  0
    0.7942    2.3519   -0.9425 C   0  0  0  0  0  0  0  0  0  0  0  0
    0.2965    1.6515    0.1530 C   0  0  0  0  0  0  0  0  0  0  0  0
    0.9535    0.5089    0.6085 C   0  0  0  0  0  0  0  0  0  0  0  0
    3.5126   -2.4408    3.5498 H   0  0  0  0  0  0  0  0  0  0  0  0
    4.5688   -2.4043    2.1316 H   0  0  0  0  0  0  0  0  0  0  0  0
    3.1013   -3.4232    2.1508 H   0  0  0  0  0  0  0  0  0  0  0  0
    3.0751   -0.4856    2.3855 H   0  0  0  0  0  0  0  0  0  0  0  0
    3.9517   -0.9823    0.2865 H   0  0  0  0  0  0  0  0  0  0  0  0
    0.5118   -2.0614   -0.1743 H   0  0  0  0  0  0  0  0  0  0  0  0
    2.3135   -5.2181    0.1465 H   0  0  0  0  0  0  0  0  0  0  0  0
    1.6919   -7.3159   -0.9803 H   0  0  0  0  0  0  0  0  0  0  0  0
   -0.1775   -7.3471   -2.5729 H   0  0  0  0  0  0  0  0  0  0  0  0
   -2.2187   -7.5036   -1.2677 H   0  0  0  0  0  0  0  0  0  0  0  0
   -3.3781   -9.6396   -1.6725 H   0  0  0  0  0  0  0  0  0  0  0  0
   -5.9487  -11.2147   -5.5458 H   0  0  0  0  0  0  0  0  0  0  0  0
   -3.0386  -10.2267   -5.6323 H   0  0  0  0  0  0  0  0  0  0  0  0
   -5.9767   -9.7717   -7.5831 H   0  0  0  0  0  0  0  0  0  0  0  0
   -5.9483   -9.5848  -10.0285 H   0  0  0  0  0  0  0  0  0  0  0  0
   -4.0190  -10.4412  -11.3281 H   0  0  0  0  0  0  0  0  0  0  0  0
   -2.1265  -11.5258  -10.1500 H   0  0  0  0  0  0  0  0  0  0  0  0
   -2.1329  -11.7300   -7.6908 H   0  0  0  0  0  0  0  0  0  0  0  0
   -6.3991   -7.2303   -5.2270 H   0  0  0  0  0  0  0  0  0  0  0  0
   -3.8453   -5.8080   -4.8956 H   0  0  0  0  0  0  0  0  0  0  0  0
   -1.0004   -3.2025   -1.7207 H   0  0  0  0  0  0  0  0  0  0  0  0
    3.4982    0.4266   -1.6606 H   0  0  0  0  0  0  0  0  0  0  0  0
    2.3293    2.4506   -2.4477 H   0  0  0  0  0  0  0  0  0  0  0  0
    0.2880    3.2492   -1.2890 H   0  0  0  0  0  0  0  0  0  0  0  0
   -0.5988    2.0001    0.6615 H   0  0  0  0  0  0  0  0  0  0  0  0
    0.5540   -0.0157    1.4745 H   0  0  0  0  0  0  0  0  0  0  0  0
  1  2  1  0  0  0  0
  1 38  1  0  0  0  0
  1 39  1  0  0  0  0
  1 40  1  0  0  0  0
  2  3  1  0  0  0  0
  2 41  1  0  0  0  0
  3  4  1  0  0  0  0
  3 32  1  0  0  0  0
  3 42  1  0  0  0  0
  4  5  2  0  0  0  0
  4  6  1  0  0  0  0
  6  7  1  0  0  0  0
  6 43  1  0  0  0  0
  7  8  1  0  0  0  0
  7 31  2  0  0  0  0
  8  9  2  0  0  0  0
  8 44  1  0  0  0  0
  9 10  1  0  0  0  0
  9 45  1  0  0  0  0
 10 11  2  0  0  0  0
 10 46  1  0  0  0  0
 11 12  1  0  0  0  0
 11 31  1  0  0  0  0
 12 13  2  0  0  0  0
 12 14  1  0  0  0  0
 14 15  1  0  0  0  0
 14 30  2  0  0  0  0
 15 16  2  0  0  0  0
 15 47  1  0  0  0  0
 16 17  1  0  0  0  0
 16 48  1  0  0  0  0
 17 18  1  0  0  0  0
 17 29  2  0  0  0  0
 18 19  1  0  0  0  0
 18 27  2  0  0  0  0
 19 20  2  0  0  0  0
 19 49  1  0  0  0  0
 20 21  1  0  0  0  0
 20 50  1  0  0  0  0
 21 22  1  0  0  0  0
 21 26  2  0  0  0  0
 22 23  2  0  0  0  0
 22 51  1  0  0  0  0
 23 24  1  0  0  0  0
 23 52  1  0  0  0  0
 24 25  2  0  0  0  0
 24 53  1  0  0  0  0
 25 26  1  0  0  0  0
 25 54  1  0  0  0  0
 26 55  1  0  0  0  0
 27 28  1  0  0  0  0
 28 29  1  0  0  0  0
 28 56  1  0  0  0  0
 29 30  1  0  0  0  0
 30 57  1  0  0  0  0
 31 58  1  0  0  0  0
 32 33  1  0  0  0  0
 32 37  2  0  0  0  0
 33 34  2  0  0  0  0
 33 59  1  0  0  0  0
 34 35  1  0  0  0  0
 34 60  1  0  0  0  0
 35 36  2  0  0  0  0
 35 61  1  0  0  0  0
 36 37  1  0  0  0  0
 36 62  1  0  0  0  0
 37 63  1  0  0  0  0
M  END
$$$$
