CHEMBL2011301
 OpenBabel04072215363D

 34 36  0  0  0  0  0  0  0  0999 V2000
    2.8593   -1.3355   -0.9696 N   0  0  0  0  0  0  0  0  0  0  0  0
    2.7846   -0.1485   -0.2990 C   0  0  0  0  0  0  0  0  0  0  0  0
    2.1562   -0.0780    0.7506 O   0  0  0  0  0  0  0  0  0  0  0  0
    3.4723    0.9722   -0.9203 C   0  0  0  0  0  0  0  0  0  0  0  0
    3.1831    2.3673   -0.7955 C   0  0  0  0  0  0  0  0  0  0  0  0
    2.0417    3.0390   -0.1541 C   0  0  0  0  0  0  0  0  0  0  0  0
    2.1842    4.3289    0.3668 C   0  0  0  0  0  0  0  0  0  0  0  0
    1.0908    4.9322    0.9674 C   0  0  0  0  0  0  0  0  0  0  0  0
   -0.1205    4.3502    1.0833 N   0  0  0  0  0  0  0  0  0  0  0  0
   -0.2452    3.1150    0.5577 C   0  0  0  0  0  0  0  0  0  0  0  0
    0.7829    2.4387   -0.0790 C   0  0  0  0  0  0  0  0  0  0  0  0
    4.1511    3.1061   -1.3583 N   0  0  0  0  0  0  0  0  0  0  0  0
    4.9763    2.2306   -1.9786 N   0  0  0  0  0  0  0  0  0  0  0  0
    6.0869    2.7255   -2.7234 C   0  0  0  0  0  0  0  0  0  0  0  0
    6.6542    3.9563   -2.3573 C   0  0  0  0  0  0  0  0  0  0  0  0
    7.7747    4.4433   -3.0334 C   0  0  0  0  0  0  0  0  0  0  0  0
    8.3114    3.7261   -4.1005 C   0  0  0  0  0  0  0  0  0  0  0  0
    7.7283    2.5212   -4.4952 C   0  0  0  0  0  0  0  0  0  0  0  0
    6.6199    2.0176   -3.8074 C   0  0  0  0  0  0  0  0  0  0  0  0
    4.6144    0.9070   -1.7090 C   0  0  0  0  0  0  0  0  0  0  0  0
    5.3583   -0.1852   -2.0672 N   0  0  0  0  0  0  0  0  0  0  0  0
    2.2948   -2.0953   -0.6149 H   0  0  0  0  0  0  0  0  0  0  0  0
    3.1846   -1.3615   -1.9267 H   0  0  0  0  0  0  0  0  0  0  0  0
    3.1282    4.8604    0.3061 H   0  0  0  0  0  0  0  0  0  0  0  0
    1.1648    5.9320    1.3853 H   0  0  0  0  0  0  0  0  0  0  0  0
   -1.2272    2.6620    0.6626 H   0  0  0  0  0  0  0  0  0  0  0  0
    0.5809    1.4598   -0.4958 H   0  0  0  0  0  0  0  0  0  0  0  0
    6.2560    4.5267   -1.5198 H   0  0  0  0  0  0  0  0  0  0  0  0
    8.2282    5.3817   -2.7244 H   0  0  0  0  0  0  0  0  0  0  0  0
    9.1776    4.1120   -4.6325 H   0  0  0  0  0  0  0  0  0  0  0  0
    8.1305    1.9824   -5.3485 H   0  0  0  0  0  0  0  0  0  0  0  0
    6.1585    1.1032   -4.1716 H   0  0  0  0  0  0  0  0  0  0  0  0
    6.3460   -0.0483   -2.2862 H   0  0  0  0  0  0  0  0  0  0  0  0
    5.2531   -1.0281   -1.4997 H   0  0  0  0  0  0  0  0  0  0  0  0
  1  2  1  0  0  0  0
  1 22  1  0  0  0  0
  1 23  1  0  0  0  0
  2  3  2  0  0  0  0
  2  4  1  0  0  0  0
  4  5  1  0  0  0  0
  4 20  2  0  0  0  0
  5  6  1  0  0  0  0
  5 12  2  0  0  0  0
  6  7  1  0  0  0  0
  6 11  2  0  0  0  0
  7  8  2  0  0  0  0
  7 24  1  0  0  0  0
  8  9  1  0  0  0  0
  8 25  1  0  0  0  0
  9 10  2  0  0  0  0
 10 11  1  0  0  0  0
 10 26  1  0  0  0  0
 11 27  1  0  0  0  0
 12 13  1  0  0  0  0
 13 14  1  0  0  0  0
 13 20  1  0  0  0  0
 14 15  1  0  0  0  0
 14 19  2  0  0  0  0
 15 16  2  0  0  0  0
 15 28  1  0  0  0  0
 16 17  1  0  0  0  0
 16 29  1  0  0  0  0
 17 18  2  0  0  0  0
 17 30  1  0  0  0  0
 18 19  1  0  0  0  0
 18 31  1  0  0  0  0
 19 32  1  0  0  0  0
 20 21  1  0  0  0  0
 21 33  1  0  0  0  0
 21 34  1  0  0  0  0
M  END
$$$$
