CHEMBL4591255
 OpenBabel04072215383D

 54 58  0  0  0  0  0  0  0  0999 V2000
    0.7575   -0.0527   -0.0022 C   0  0  0  0  0  0  0  0  0  0  0  0
    2.2611    0.0042    0.0799 C   0  0  0  0  0  0  0  0  0  0  0  0
    2.9557   -1.1458    0.0931 C   0  0  0  0  0  0  0  0  0  0  0  0
    4.4093   -1.1437    0.0530 C   0  0  0  0  0  0  0  0  0  0  0  0
    5.1116   -2.3389   -0.0721 C   0  0  0  0  0  0  0  0  0  0  0  0
    6.4860   -2.2765   -0.1455 C   0  0  0  0  0  0  0  0  0  0  0  0
    7.1815   -1.1255   -0.0709 N   0  0  0  0  0  0  0  0  0  0  0  0
    6.5068    0.0478    0.0797 C   0  0  0  0  0  0  0  0  0  0  0  0
    7.2572    1.2371    0.1372 N   0  0  0  0  0  0  0  0  0  0  0  0
    8.5835    1.4281   -0.2694 C   0  0  0  0  0  0  0  0  0  0  0  0
    9.0195    0.8868   -1.4818 C   0  0  0  0  0  0  0  0  0  0  0  0
   10.3517    0.9800   -1.8759 C   0  0  0  0  0  0  0  0  0  0  0  0
   11.2948    1.5166   -1.0028 C   0  0  0  0  0  0  0  0  0  0  0  0
   12.6524    1.4891   -1.2503 O   0  0  0  0  0  0  0  0  0  0  0  0
   13.1647    0.4061   -1.9437 C   0  0  0  0  0  0  0  0  0  0  0  0
   12.6845   -0.8925   -1.7531 C   0  0  0  0  0  0  0  0  0  0  0  0
   13.1675   -1.8965   -2.5684 C   0  0  0  0  0  0  0  0  0  0  0  0
   14.1299   -1.7097   -3.4938 N   0  0  0  0  0  0  0  0  0  0  0  0
   14.6529   -0.4705   -3.6105 C   0  0  0  0  0  0  0  0  0  0  0  0
   15.6275   -0.3449   -4.6014 N   0  0  0  0  0  0  0  0  0  0  0  0
   14.2021    0.6197   -2.8550 C   0  0  0  0  0  0  0  0  0  0  0  0
   14.9229    2.1815   -3.0366 Cl  0  0  0  0  0  0  0  0  0  0  0  0
   10.8572    2.1004    0.1870 C   0  0  0  0  0  0  0  0  0  0  0  0
   11.7440    2.6669    1.0267 F   0  0  0  0  0  0  0  0  0  0  0  0
    9.5114    2.0717    0.5556 C   0  0  0  0  0  0  0  0  0  0  0  0
    5.1073    0.0676    0.1083 C   0  0  0  0  0  0  0  0  0  0  0  0
    4.3335    1.3326    0.1531 C   0  0  0  0  0  0  0  0  0  0  0  0
    4.9394    2.3974    0.2835 O   0  0  0  0  0  0  0  0  0  0  0  0
    2.9233    1.2399    0.0665 N   0  0  0  0  0  0  0  0  0  0  0  0
    2.2327    2.4933    0.0152 C   0  0  0  0  0  0  0  0  0  0  0  0
    2.4568    3.3606   -1.0656 C   0  0  0  0  0  0  0  0  0  0  0  0
    1.8416    4.6131   -1.1026 C   0  0  0  0  0  0  0  0  0  0  0  0
    1.0141    5.0010   -0.0521 C   0  0  0  0  0  0  0  0  0  0  0  0
    0.4428    6.2105   -0.0792 F   0  0  0  0  0  0  0  0  0  0  0  0
    0.7825    4.1603    1.0290 C   0  0  0  0  0  0  0  0  0  0  0  0
    1.3942    2.9104    1.0569 C   0  0  0  0  0  0  0  0  0  0  0  0
    1.2064    2.1330    2.1332 F   0  0  0  0  0  0  0  0  0  0  0  0
    0.3971   -1.0815   -0.1238 H   0  0  0  0  0  0  0  0  0  0  0  0
    0.3924    0.5118   -0.8667 H   0  0  0  0  0  0  0  0  0  0  0  0
    0.2899    0.3332    0.9072 H   0  0  0  0  0  0  0  0  0  0  0  0
    2.4504   -2.1089    0.0927 H   0  0  0  0  0  0  0  0  0  0  0  0
    4.6083   -3.2980   -0.1324 H   0  0  0  0  0  0  0  0  0  0  0  0
    7.0864   -3.1734   -0.2763 H   0  0  0  0  0  0  0  0  0  0  0  0
    6.8396    1.9595    0.7190 H   0  0  0  0  0  0  0  0  0  0  0  0
    8.3106    0.3781   -2.1326 H   0  0  0  0  0  0  0  0  0  0  0  0
   10.6329    0.5675   -2.8390 H   0  0  0  0  0  0  0  0  0  0  0  0
   11.9142   -1.1185   -1.0231 H   0  0  0  0  0  0  0  0  0  0  0  0
   12.7664   -2.9044   -2.5074 H   0  0  0  0  0  0  0  0  0  0  0  0
   15.8456   -1.2769   -4.9427 H   0  0  0  0  0  0  0  0  0  0  0  0
   16.4404    0.1650   -4.2729 H   0  0  0  0  0  0  0  0  0  0  0  0
    9.2156    2.5007    1.5043 H   0  0  0  0  0  0  0  0  0  0  0  0
    3.1159    3.0667   -1.8805 H   0  0  0  0  0  0  0  0  0  0  0  0
    2.0142    5.2926   -1.9315 H   0  0  0  0  0  0  0  0  0  0  0  0
    0.1508    4.4804    1.8469 H   0  0  0  0  0  0  0  0  0  0  0  0
  1  2  1  0  0  0  0
  1 38  1  0  0  0  0
  1 39  1  0  0  0  0
  1 40  1  0  0  0  0
  2  3  2  0  0  0  0
  2 29  1  0  0  0  0
  3  4  1  0  0  0  0
  3 41  1  0  0  0  0
  4  5  1  0  0  0  0
  4 26  2  0  0  0  0
  5  6  2  0  0  0  0
  5 42  1  0  0  0  0
  6  7  1  0  0  0  0
  6 43  1  0  0  0  0
  7  8  2  0  0  0  0
  8  9  1  0  0  0  0
  8 26  1  0  0  0  0
  9 10  1  0  0  0  0
  9 44  1  0  0  0  0
 10 11  1  0  0  0  0
 10 25  2  0  0  0  0
 11 12  2  0  0  0  0
 11 45  1  0  0  0  0
 12 13  1  0  0  0  0
 12 46  1  0  0  0  0
 13 14  1  0  0  0  0
 13 23  2  0  0  0  0
 14 15  1  0  0  0  0
 15 16  1  0  0  0  0
 15 21  2  0  0  0  0
 16 17  2  0  0  0  0
 16 47  1  0  0  0  0
 17 18  1  0  0  0  0
 17 48  1  0  0  0  0
 18 19  2  0  0  0  0
 19 20  1  0  0  0  0
 19 21  1  0  0  0  0
 20 49  1  0  0  0  0
 20 50  1  0  0  0  0
 21 22  1  0  0  0  0
 23 24  1  0  0  0  0
 23 25  1  0  0  0  0
 25 51  1  0  0  0  0
 26 27  1  0  0  0  0
 27 28  2  0  0  0  0
 27 29  1  0  0  0  0
 29 30  1  0  0  0  0
 30 31  1  0  0  0  0
 30 36  2  0  0  0  0
 31 32  2  0  0  0  0
 31 52  1  0  0  0  0
 32 33  1  0  0  0  0
 32 53  1  0  0  0  0
 33 34  1  0  0  0  0
 33 35  2  0  0  0  0
 35 36  1  0  0  0  0
 35 54  1  0  0  0  0
 36 37  1  0  0  0  0
M  END
$$$$
