CHEMBL461391
 OpenBabel04072215383D

 54 57  0  0  0  0  0  0  0  0999 V2000
    5.9758   -0.2885   -0.0764 C   0  0  0  0  0  0  0  0  0  0  0  0
    4.4737   -0.5269   -0.3020 C   0  0  0  0  0  0  0  0  0  0  0  0
    3.8132    0.7838   -0.7876 C   0  0  0  0  0  0  0  0  0  0  0  0
    4.3091   -1.5458   -1.4571 C   0  0  0  0  0  0  0  0  0  0  0  0
    3.8309   -1.0107    1.0095 C   0  0  0  0  0  0  0  0  0  0  0  0
    3.4354   -0.1077    2.0130 C   0  0  0  0  0  0  0  0  0  0  0  0
    2.7445   -0.5371    3.1497 C   0  0  0  0  0  0  0  0  0  0  0  0
    2.4205   -1.8811    3.3077 C   0  0  0  0  0  0  0  0  0  0  0  0
    2.8262   -2.8030    2.3394 C   0  0  0  0  0  0  0  0  0  0  0  0
    2.4216   -4.1564    2.4071 N   0  0  0  0  0  0  0  0  0  0  0  0
    1.5476   -4.7382    3.2868 C   0  0  0  0  0  0  0  0  0  0  0  0
    1.3994   -6.0289    2.8442 C   0  0  0  0  0  0  0  0  0  0  0  0
    0.5281   -7.0583    3.3836 C   0  0  0  0  0  0  0  0  0  0  0  0
    0.0335   -8.0084    2.4657 C   0  0  0  0  0  0  0  0  0  0  0  0
   -0.7623   -9.0712    2.8825 C   0  0  0  0  0  0  0  0  0  0  0  0
   -1.0512   -9.2144    4.2303 C   0  0  0  0  0  0  0  0  0  0  0  0
   -0.5939   -8.2647    5.1478 C   0  0  0  0  0  0  0  0  0  0  0  0
    0.1579   -7.1433    4.7489 C   0  0  0  0  0  0  0  0  0  0  0  0
    0.5612   -6.1625    5.6805 N   0  0  0  0  0  0  0  0  0  0  0  0
   -0.1627   -6.0747    6.9495 C   0  0  0  0  0  0  0  0  0  0  0  0
    0.0012   -4.7143    7.5859 C   0  0  0  0  0  0  0  0  0  0  0  0
   -0.3911   -3.5482    6.9182 C   0  0  0  0  0  0  0  0  0  0  0  0
   -0.3322   -2.3389    7.5949 C   0  0  0  0  0  0  0  0  0  0  0  0
    0.0838   -2.2130    8.8728 N   0  0  0  0  0  0  0  0  0  0  0  0
    0.4559   -3.3469    9.5019 C   0  0  0  0  0  0  0  0  0  0  0  0
    0.4339   -4.6011    8.9103 C   0  0  0  0  0  0  0  0  0  0  0  0
    2.1884   -6.2123    1.7400 N   0  0  0  0  0  0  0  0  0  0  0  0
    2.8180   -5.0742    1.4887 N   0  0  0  0  0  0  0  0  0  0  0  0
    3.5736   -2.3731    1.2322 C   0  0  0  0  0  0  0  0  0  0  0  0
    6.4626    0.0482   -0.9992 H   0  0  0  0  0  0  0  0  0  0  0  0
    6.4806   -1.2059    0.2490 H   0  0  0  0  0  0  0  0  0  0  0  0
    6.1540    0.4743    0.6899 H   0  0  0  0  0  0  0  0  0  0  0  0
    4.1881    1.0752   -1.7753 H   0  0  0  0  0  0  0  0  0  0  0  0
    4.0154    1.6255   -0.1170 H   0  0  0  0  0  0  0  0  0  0  0  0
    2.7249    0.6701   -0.8648 H   0  0  0  0  0  0  0  0  0  0  0  0
    4.6644   -1.1319   -2.4078 H   0  0  0  0  0  0  0  0  0  0  0  0
    3.2569   -1.8257   -1.5923 H   0  0  0  0  0  0  0  0  0  0  0  0
    4.8848   -2.4619   -1.2841 H   0  0  0  0  0  0  0  0  0  0  0  0
    3.6391    0.9560    1.9197 H   0  0  0  0  0  0  0  0  0  0  0  0
    2.4317    0.1868    3.8984 H   0  0  0  0  0  0  0  0  0  0  0  0
    1.8534   -2.1713    4.1866 H   0  0  0  0  0  0  0  0  0  0  0  0
    1.0775   -4.1989    4.0900 H   0  0  0  0  0  0  0  0  0  0  0  0
    0.2679   -7.9179    1.4050 H   0  0  0  0  0  0  0  0  0  0  0  0
   -1.1370   -9.7896    2.1587 H   0  0  0  0  0  0  0  0  0  0  0  0
   -1.6368  -10.0630    4.5746 H   0  0  0  0  0  0  0  0  0  0  0  0
   -0.8349   -8.4362    6.1924 H   0  0  0  0  0  0  0  0  0  0  0  0
    1.5720   -6.2053    5.8171 H   0  0  0  0  0  0  0  0  0  0  0  0
    0.1929   -6.8556    7.6269 H   0  0  0  0  0  0  0  0  0  0  0  0
   -1.2406   -6.2144    6.7979 H   0  0  0  0  0  0  0  0  0  0  0  0
   -0.7623   -3.5843    5.8986 H   0  0  0  0  0  0  0  0  0  0  0  0
   -0.6437   -1.4131    7.1192 H   0  0  0  0  0  0  0  0  0  0  0  0
    0.7689   -3.2217   10.5349 H   0  0  0  0  0  0  0  0  0  0  0  0
    0.7265   -5.4714    9.4877 H   0  0  0  0  0  0  0  0  0  0  0  0
    3.9085   -3.1133    0.5097 H   0  0  0  0  0  0  0  0  0  0  0  0
  1  2  1  0  0  0  0
  1 30  1  0  0  0  0
  1 31  1  0  0  0  0
  1 32  1  0  0  0  0
  2  3  1  0  0  0  0
  2  4  1  0  0  0  0
  2  5  1  0  0  0  0
  3 33  1  0  0  0  0
  3 34  1  0  0  0  0
  3 35  1  0  0  0  0
  4 36  1  0  0  0  0
  4 37  1  0  0  0  0
  4 38  1  0  0  0  0
  5  6  1  0  0  0  0
  5 29  2  0  0  0  0
  6  7  2  0  0  0  0
  6 39  1  0  0  0  0
  7  8  1  0  0  0  0
  7 40  1  0  0  0  0
  8  9  2  0  0  0  0
  8 41  1  0  0  0  0
  9 10  1  0  0  0  0
  9 29  1  0  0  0  0
 10 11  1  0  0  0  0
 10 28  1  0  0  0  0
 11 12  2  0  0  0  0
 11 42  1  0  0  0  0
 12 13  1  0  0  0  0
 12 27  1  0  0  0  0
 13 14  1  0  0  0  0
 13 18  2  0  0  0  0
 14 15  2  0  0  0  0
 14 43  1  0  0  0  0
 15 16  1  0  0  0  0
 15 44  1  0  0  0  0
 16 17  2  0  0  0  0
 16 45  1  0  0  0  0
 17 18  1  0  0  0  0
 17 46  1  0  0  0  0
 18 19  1  0  0  0  0
 19 20  1  0  0  0  0
 19 47  1  0  0  0  0
 20 21  1  0  0  0  0
 20 48  1  0  0  0  0
 20 49  1  0  0  0  0
 21 22  1  0  0  0  0
 21 26  2  0  0  0  0
 22 23  2  0  0  0  0
 22 50  1  0  0  0  0
 23 24  1  0  0  0  0
 23 51  1  0  0  0  0
 24 25  2  0  0  0  0
 25 26  1  0  0  0  0
 25 52  1  0  0  0  0
 26 53  1  0  0  0  0
 27 28  2  0  0  0  0
 29 54  1  0  0  0  0
M  END
$$$$
