CHEMBL3589746
 OpenBabel04072215363D

 46 49  0  0  0  0  0  0  0  0999 V2000
    1.1103   -0.3856    0.1007 O   0  0  0  0  0  0  0  0  0  0  0  0
    2.3055   -0.3611   -0.1668 C   0  0  0  0  0  0  0  0  0  0  0  0
    2.9300    0.6335   -0.9123 N   0  0  0  0  0  0  0  0  0  0  0  0
    2.2546    1.7756   -1.4025 C   0  0  0  0  0  0  0  0  0  0  0  0
    0.9957    2.0973   -0.9309 C   0  0  0  0  0  0  0  0  0  0  0  0
    0.2807    3.1254   -1.4939 C   0  0  0  0  0  0  0  0  0  0  0  0
    0.8511    4.0254   -2.3917 C   0  0  0  0  0  0  0  0  0  0  0  0
    0.0998    5.1577   -2.7936 N   0  0  0  0  0  0  0  0  0  0  0  0
   -0.5299    5.7593   -1.8159 C   0  0  0  0  0  0  0  0  0  0  0  0
    0.0501    6.0715   -0.4110 C   0  0  0  0  0  0  0  0  0  0  0  0
    1.1705    6.4684   -0.1730 O   0  0  0  0  0  0  0  0  0  0  0  0
   -0.9390    5.7296    0.4878 N   0  0  0  0  0  0  0  0  0  0  0  0
   -2.0413    5.2108   -0.1821 C   0  0  0  0  0  0  0  0  0  0  0  0
   -2.9327    4.2861    0.3361 C   0  0  0  0  0  0  0  0  0  0  0  0
   -3.7519    3.6071   -0.5754 C   0  0  0  0  0  0  0  0  0  0  0  0
   -3.7157    3.9163   -1.9468 C   0  0  0  0  0  0  0  0  0  0  0  0
   -4.4821    3.2133   -2.7904 F   0  0  0  0  0  0  0  0  0  0  0  0
   -2.8169    4.8418   -2.4654 C   0  0  0  0  0  0  0  0  0  0  0  0
   -1.9595    5.4460   -1.5631 C   0  0  0  0  0  0  0  0  0  0  0  0
    2.1186    3.7214   -2.8804 C   0  0  0  0  0  0  0  0  0  0  0  0
    2.8173    2.5899   -2.3969 C   0  0  0  0  0  0  0  0  0  0  0  0
    3.1779   -1.3379    0.2539 N   0  0  0  0  0  0  0  0  0  0  0  0
    2.7858   -2.5043    0.9482 C   0  0  0  0  0  0  0  0  0  0  0  0
    1.4613   -2.9520    1.0348 C   0  0  0  0  0  0  0  0  0  0  0  0
    1.1343   -4.1029    1.7479 C   0  0  0  0  0  0  0  0  0  0  0  0
    2.1316   -4.8428    2.3624 C   0  0  0  0  0  0  0  0  0  0  0  0
    3.4775   -4.4352    2.2622 C   0  0  0  0  0  0  0  0  0  0  0  0
    4.5852   -5.2258    2.9030 C   0  0  0  0  0  0  0  0  0  0  0  0
    4.1554   -6.3404    3.5475 F   0  0  0  0  0  0  0  0  0  0  0  0
    5.5063   -5.6357    1.9955 F   0  0  0  0  0  0  0  0  0  0  0  0
    5.2664   -4.4920    3.8275 F   0  0  0  0  0  0  0  0  0  0  0  0
    3.7896   -3.2574    1.5582 C   0  0  0  0  0  0  0  0  0  0  0  0
    3.8378    0.4341   -1.3025 H   0  0  0  0  0  0  0  0  0  0  0  0
    0.4966    1.5735   -0.1262 H   0  0  0  0  0  0  0  0  0  0  0  0
   -0.7454    3.1999   -1.1730 H   0  0  0  0  0  0  0  0  0  0  0  0
   -0.7594    5.6646    1.4809 H   0  0  0  0  0  0  0  0  0  0  0  0
   -2.8828    3.9606    1.3714 H   0  0  0  0  0  0  0  0  0  0  0  0
   -4.3673    2.7717   -0.2463 H   0  0  0  0  0  0  0  0  0  0  0  0
   -2.6864    4.9519   -3.5353 H   0  0  0  0  0  0  0  0  0  0  0  0
    2.5623    4.3511   -3.6456 H   0  0  0  0  0  0  0  0  0  0  0  0
    3.7928    2.3621   -2.8156 H   0  0  0  0  0  0  0  0  0  0  0  0
    4.1578   -1.1074    0.2404 H   0  0  0  0  0  0  0  0  0  0  0  0
    0.6414   -2.4340    0.5456 H   0  0  0  0  0  0  0  0  0  0  0  0
    0.0940   -4.4137    1.8164 H   0  0  0  0  0  0  0  0  0  0  0  0
    1.8777   -5.7385    2.9156 H   0  0  0  0  0  0  0  0  0  0  0  0
    4.8277   -2.9398    1.4936 H   0  0  0  0  0  0  0  0  0  0  0  0
  1  2  2  0  0  0  0
  2  3  1  0  0  0  0
  2 22  1  0  0  0  0
  3  4  1  0  0  0  0
  3 33  1  0  0  0  0
  4  5  1  0  0  0  0
  4 21  2  0  0  0  0
  5  6  2  0  0  0  0
  5 34  1  0  0  0  0
  6  7  1  0  0  0  0
  6 35  1  0  0  0  0
  7  8  1  0  0  0  0
  7 20  2  0  0  0  0
  8  9  2  0  0  0  0
  9 10  1  0  0  0  0
  9 19  1  0  0  0  0
 10 11  2  0  0  0  0
 10 12  1  0  0  0  0
 12 13  1  0  0  0  0
 12 36  1  0  0  0  0
 13 14  1  0  0  0  0
 13 19  2  0  0  0  0
 14 15  2  0  0  0  0
 14 37  1  0  0  0  0
 15 16  1  0  0  0  0
 15 38  1  0  0  0  0
 16 17  1  0  0  0  0
 16 18  2  0  0  0  0
 18 19  1  0  0  0  0
 18 39  1  0  0  0  0
 20 21  1  0  0  0  0
 20 40  1  0  0  0  0
 21 41  1  0  0  0  0
 22 23  1  0  0  0  0
 22 42  1  0  0  0  0
 23 24  1  0  0  0  0
 23 32  2  0  0  0  0
 24 25  2  0  0  0  0
 24 43  1  0  0  0  0
 25 26  1  0  0  0  0
 25 44  1  0  0  0  0
 26 27  2  0  0  0  0
 26 45  1  0  0  0  0
 27 28  1  0  0  0  0
 27 32  1  0  0  0  0
 28 29  1  0  0  0  0
 28 30  1  0  0  0  0
 28 31  1  0  0  0  0
 32 46  1  0  0  0  0
M  END
$$$$
