CHEMBL2063328
 OpenBabel04072215363D

 70 74  0  0  0  0  0  0  0  0999 V2000
    2.4593   -0.4488   -0.0208 C   0  0  0  0  0  0  0  0  0  0  0  0
    1.0942    0.0129   -0.2609 N   0  0  0  0  0  0  0  0  0  0  0  0
    0.1883   -1.1360   -0.4950 C   0  0  0  0  0  0  0  0  0  0  0  0
   -1.2886   -0.7081   -0.6894 C   0  0  0  0  0  0  0  0  0  0  0  0
   -1.7131    0.0835    0.4774 N   0  0  0  0  0  0  0  0  0  0  0  0
   -3.0012    0.0533    0.9660 C   0  0  0  0  0  0  0  0  0  0  0  0
   -3.2488    0.3815    2.3103 C   0  0  0  0  0  0  0  0  0  0  0  0
   -4.5253    0.3049    2.8767 C   0  0  0  0  0  0  0  0  0  0  0  0
   -5.5963   -0.1140    2.0916 C   0  0  0  0  0  0  0  0  0  0  0  0
   -6.9754   -0.2170    2.6139 C   0  0  0  0  0  0  0  0  0  0  0  0
   -7.9324   -0.1539    1.8592 O   0  0  0  0  0  0  0  0  0  0  0  0
   -7.1482   -0.4009    4.0336 N   0  0  0  0  0  0  0  0  0  0  0  0
   -8.4010   -0.5428    4.6208 C   0  0  0  0  0  0  0  0  0  0  0  0
   -9.6135   -0.7596    4.0164 C   0  0  0  0  0  0  0  0  0  0  0  0
  -10.5799   -0.8326    5.0581 C   0  0  0  0  0  0  0  0  0  0  0  0
  -12.0238   -1.0618    4.9164 C   0  0  0  0  0  0  0  0  0  0  0  0
  -12.5878   -1.3445    3.6656 C   0  0  0  0  0  0  0  0  0  0  0  0
  -13.9643   -1.5565    3.5261 C   0  0  0  0  0  0  0  0  0  0  0  0
  -14.8141   -1.4743    4.6339 C   0  0  0  0  0  0  0  0  0  0  0  0
  -16.2989   -1.6652    4.4596 C   0  0  0  0  0  0  0  0  0  0  0  0
  -16.7008   -3.0395    4.6053 N   0  0  0  0  0  0  0  0  0  0  0  0
  -16.8273   -3.8844    3.5477 C   0  0  0  0  0  0  0  0  0  0  0  0
  -16.5792   -3.5969    2.3870 O   0  0  0  0  0  0  0  0  0  0  0  0
  -17.2933   -5.0792    3.9804 O   0  0  0  0  0  0  0  0  0  0  0  0
  -17.5388   -6.0596    2.9643 C   0  0  0  0  0  0  0  0  0  0  0  0
  -16.7025   -7.2717    3.2475 C   0  0  0  0  0  0  0  0  0  0  0  0
  -17.1903   -8.3499    3.9902 C   0  0  0  0  0  0  0  0  0  0  0  0
  -16.3701   -9.4489    4.2286 C   0  0  0  0  0  0  0  0  0  0  0  0
  -15.0816   -9.4289    3.7209 C   0  0  0  0  0  0  0  0  0  0  0  0
  -14.5709   -8.4016    3.0094 N   0  0  0  0  0  0  0  0  0  0  0  0
  -15.3898   -7.3469    2.7931 C   0  0  0  0  0  0  0  0  0  0  0  0
  -14.2558   -1.2130    5.8885 C   0  0  0  0  0  0  0  0  0  0  0  0
  -12.8767   -1.0038    6.0274 C   0  0  0  0  0  0  0  0  0  0  0  0
   -9.9822   -0.6617    6.2504 N   0  0  0  0  0  0  0  0  0  0  0  0
   -8.6796   -0.5156    5.9605 N   0  0  0  0  0  0  0  0  0  0  0  0
   -5.3811   -0.4307    0.7454 C   0  0  0  0  0  0  0  0  0  0  0  0
   -4.0962   -0.3544    0.1975 C   0  0  0  0  0  0  0  0  0  0  0  0
   -0.8587    1.2634    0.7105 C   0  0  0  0  0  0  0  0  0  0  0  0
    0.6049    0.8029    0.8919 C   0  0  0  0  0  0  0  0  0  0  0  0
    2.8336   -1.0033   -0.8880 H   0  0  0  0  0  0  0  0  0  0  0  0
    2.5313   -1.0961    0.8608 H   0  0  0  0  0  0  0  0  0  0  0  0
    3.1308    0.4047    0.1231 H   0  0  0  0  0  0  0  0  0  0  0  0
    0.2367   -1.8301    0.3561 H   0  0  0  0  0  0  0  0  0  0  0  0
    0.5111   -1.6863   -1.3862 H   0  0  0  0  0  0  0  0  0  0  0  0
   -1.8881   -1.6193   -0.7986 H   0  0  0  0  0  0  0  0  0  0  0  0
   -1.3967   -0.1173   -1.6080 H   0  0  0  0  0  0  0  0  0  0  0  0
   -2.4183    0.6704    2.9517 H   0  0  0  0  0  0  0  0  0  0  0  0
   -4.6375    0.5977    3.9145 H   0  0  0  0  0  0  0  0  0  0  0  0
   -6.3376   -0.4477    4.6332 H   0  0  0  0  0  0  0  0  0  0  0  0
   -9.8057   -0.8719    2.9610 H   0  0  0  0  0  0  0  0  0  0  0  0
  -11.9785   -1.4081    2.7673 H   0  0  0  0  0  0  0  0  0  0  0  0
  -14.3707   -1.7766    2.5383 H   0  0  0  0  0  0  0  0  0  0  0  0
  -16.6135   -1.2893    3.4786 H   0  0  0  0  0  0  0  0  0  0  0  0
  -16.8428   -1.0833    5.2112 H   0  0  0  0  0  0  0  0  0  0  0  0
  -16.9034   -3.4194    5.5174 H   0  0  0  0  0  0  0  0  0  0  0  0
  -17.3495   -5.7036    1.9446 H   0  0  0  0  0  0  0  0  0  0  0  0
  -18.6032   -6.3196    3.0049 H   0  0  0  0  0  0  0  0  0  0  0  0
  -18.2041   -8.3404    4.3823 H   0  0  0  0  0  0  0  0  0  0  0  0
  -16.7264  -10.3007    4.7969 H   0  0  0  0  0  0  0  0  0  0  0  0
  -14.4051  -10.2637    3.8794 H   0  0  0  0  0  0  0  0  0  0  0  0
  -14.9453   -6.5355    2.2212 H   0  0  0  0  0  0  0  0  0  0  0  0
  -14.8883   -1.1567    6.7712 H   0  0  0  0  0  0  0  0  0  0  0  0
  -12.4736   -0.7906    7.0156 H   0  0  0  0  0  0  0  0  0  0  0  0
   -8.0414   -0.3723    6.7345 H   0  0  0  0  0  0  0  0  0  0  0  0
   -6.2074   -0.7429    0.1078 H   0  0  0  0  0  0  0  0  0  0  0  0
   -3.9733   -0.6021   -0.8542 H   0  0  0  0  0  0  0  0  0  0  0  0
   -1.1565    1.8392    1.5929 H   0  0  0  0  0  0  0  0  0  0  0  0
   -0.9339    1.9432   -0.1486 H   0  0  0  0  0  0  0  0  0  0  0  0
    0.6720    0.2092    1.8143 H   0  0  0  0  0  0  0  0  0  0  0  0
    1.2337    1.6908    1.0244 H   0  0  0  0  0  0  0  0  0  0  0  0
  1  2  1  0  0  0  0
  1 40  1  0  0  0  0
  1 41  1  0  0  0  0
  1 42  1  0  0  0  0
  2  3  1  0  0  0  0
  2 39  1  0  0  0  0
  3  4  1  0  0  0  0
  3 43  1  0  0  0  0
  3 44  1  0  0  0  0
  4  5  1  0  0  0  0
  4 45  1  0  0  0  0
  4 46  1  0  0  0  0
  5  6  1  0  0  0  0
  5 38  1  0  0  0  0
  6  7  1  0  0  0  0
  6 37  2  0  0  0  0
  7  8  2  0  0  0  0
  7 47  1  0  0  0  0
  8  9  1  0  0  0  0
  8 48  1  0  0  0  0
  9 10  1  0  0  0  0
  9 36  2  0  0  0  0
 10 11  2  0  0  0  0
 10 12  1  0  0  0  0
 12 13  1  0  0  0  0
 12 49  1  0  0  0  0
 13 14  2  0  0  0  0
 13 35  1  0  0  0  0
 14 15  1  0  0  0  0
 14 50  1  0  0  0  0
 15 16  1  0  0  0  0
 15 34  2  0  0  0  0
 16 17  1  0  0  0  0
 16 33  2  0  0  0  0
 17 18  2  0  0  0  0
 17 51  1  0  0  0  0
 18 19  1  0  0  0  0
 18 52  1  0  0  0  0
 19 20  1  0  0  0  0
 19 32  2  0  0  0  0
 20 21  1  0  0  0  0
 20 53  1  0  0  0  0
 20 54  1  0  0  0  0
 21 22  1  0  0  0  0
 21 55  1  0  0  0  0
 22 23  2  0  0  0  0
 22 24  1  0  0  0  0
 24 25  1  0  0  0  0
 25 26  1  0  0  0  0
 25 56  1  0  0  0  0
 25 57  1  0  0  0  0
 26 27  1  0  0  0  0
 26 31  2  0  0  0  0
 27 28  2  0  0  0  0
 27 58  1  0  0  0  0
 28 29  1  0  0  0  0
 28 59  1  0  0  0  0
 29 30  2  0  0  0  0
 29 60  1  0  0  0  0
 30 31  1  0  0  0  0
 31 61  1  0  0  0  0
 32 33  1  0  0  0  0
 32 62  1  0  0  0  0
 33 63  1  0  0  0  0
 34 35  1  0  0  0  0
 35 64  1  0  0  0  0
 36 37  1  0  0  0  0
 36 65  1  0  0  0  0
 37 66  1  0  0  0  0
 38 39  1  0  0  0  0
 38 67  1  0  0  0  0
 38 68  1  0  0  0  0
 39 69  1  0  0  0  0
 39 70  1  0  0  0  0
M  END
$$$$
