CHEMBL1983932
 OpenBabel04072215363D

 36 38  0  0  0  0  0  0  0  0999 V2000
    1.5947    0.8730    0.3127 C   0  0  0  0  0  0  0  0  0  0  0  0
    2.6342   -0.0967    0.2482 O   0  0  0  0  0  0  0  0  0  0  0  0
    3.1654   -0.3387   -0.9861 C   0  0  0  0  0  0  0  0  0  0  0  0
    2.8231    0.3188   -2.1605 C   0  0  0  0  0  0  0  0  0  0  0  0
    3.4398   -0.0399   -3.3575 C   0  0  0  0  0  0  0  0  0  0  0  0
    4.4146   -1.0611   -3.4058 C   0  0  0  0  0  0  0  0  0  0  0  0
    5.0993   -1.4473   -4.5843 C   0  0  0  0  0  0  0  0  0  0  0  0
    4.7247   -0.8940   -5.8352 N   0  0  0  0  0  0  0  0  0  0  0  0
    5.6355   -0.5610   -6.8177 C   0  0  0  0  0  0  0  0  0  0  0  0
    6.8449   -0.7337   -6.7180 O   0  0  0  0  0  0  0  0  0  0  0  0
    5.0252    0.0522   -7.8968 N   0  0  0  0  0  0  0  0  0  0  0  0
    5.7789    0.5829   -8.9521 C   0  0  0  0  0  0  0  0  0  0  0  0
    6.9035   -0.0647   -9.4467 C   0  0  0  0  0  0  0  0  0  0  0  0
    7.6788    0.5789  -10.3985 C   0  0  0  0  0  0  0  0  0  0  0  0
    7.3095    1.8499  -10.8219 C   0  0  0  0  0  0  0  0  0  0  0  0
    6.1448    2.3986  -10.3039 C   0  0  0  0  0  0  0  0  0  0  0  0
    5.6536    4.1539  -10.8326 Br  0  0  0  0  0  0  0  0  0  0  0  0
    5.3518    1.7770   -9.4034 N   0  0  0  0  0  0  0  0  0  0  0  0
    6.1256   -2.3847   -4.5091 C   0  0  0  0  0  0  0  0  0  0  0  0
    6.4184   -2.9364   -3.2796 C   0  0  0  0  0  0  0  0  0  0  0  0
    5.7637   -2.6245   -2.1436 N   0  0  0  0  0  0  0  0  0  0  0  0
    4.7935   -1.6960   -2.2040 C   0  0  0  0  0  0  0  0  0  0  0  0
    4.1484   -1.3358   -1.0288 C   0  0  0  0  0  0  0  0  0  0  0  0
    1.2518    0.9315    1.3482 H   0  0  0  0  0  0  0  0  0  0  0  0
    0.7401    0.5778   -0.3070 H   0  0  0  0  0  0  0  0  0  0  0  0
    1.9647    1.8636    0.0259 H   0  0  0  0  0  0  0  0  0  0  0  0
    2.0976    1.1246   -2.1787 H   0  0  0  0  0  0  0  0  0  0  0  0
    3.1732    0.5307   -4.2423 H   0  0  0  0  0  0  0  0  0  0  0  0
    3.8106   -0.4790   -5.9076 H   0  0  0  0  0  0  0  0  0  0  0  0
    4.1940    0.5934   -7.7184 H   0  0  0  0  0  0  0  0  0  0  0  0
    7.1929   -1.0474   -9.0882 H   0  0  0  0  0  0  0  0  0  0  0  0
    8.5798    0.1061  -10.7809 H   0  0  0  0  0  0  0  0  0  0  0  0
    7.9254    2.3935  -11.5300 H   0  0  0  0  0  0  0  0  0  0  0  0
    6.6797   -2.7095   -5.3824 H   0  0  0  0  0  0  0  0  0  0  0  0
    7.2094   -3.6717   -3.1737 H   0  0  0  0  0  0  0  0  0  0  0  0
    4.4367   -1.8327   -0.1053 H   0  0  0  0  0  0  0  0  0  0  0  0
  1  2  1  0  0  0  0
  1 24  1  0  0  0  0
  1 25  1  0  0  0  0
  1 26  1  0  0  0  0
  2  3  1  0  0  0  0
  3  4  1  0  0  0  0
  3 23  2  0  0  0  0
  4  5  2  0  0  0  0
  4 27  1  0  0  0  0
  5  6  1  0  0  0  0
  5 28  1  0  0  0  0
  6  7  1  0  0  0  0
  6 22  2  0  0  0  0
  7  8  1  0  0  0  0
  7 19  2  0  0  0  0
  8  9  1  0  0  0  0
  8 29  1  0  0  0  0
  9 10  2  0  0  0  0
  9 11  1  0  0  0  0
 11 12  1  0  0  0  0
 11 30  1  0  0  0  0
 12 13  1  0  0  0  0
 12 18  2  0  0  0  0
 13 14  2  0  0  0  0
 13 31  1  0  0  0  0
 14 15  1  0  0  0  0
 14 32  1  0  0  0  0
 15 16  2  0  0  0  0
 15 33  1  0  0  0  0
 16 17  1  0  0  0  0
 16 18  1  0  0  0  0
 19 20  1  0  0  0  0
 19 34  1  0  0  0  0
 20 21  2  0  0  0  0
 20 35  1  0  0  0  0
 21 22  1  0  0  0  0
 22 23  1  0  0  0  0
 23 36  1  0  0  0  0
M  END
$$$$
