CHEMBL200818
 OpenBabel04072215363D

 63 66  0  0  0  0  0  0  0  0999 V2000
    2.7019   -1.4994    1.3364 C   0  0  0  0  0  0  0  0  0  0  0  0
    3.1604   -0.7240    0.1050 C   0  0  0  0  0  0  0  0  0  0  0  0
    2.7392    0.6864    0.0939 N   0  0  0  0  0  0  0  0  0  0  0  0
    3.2097    1.3588   -1.1504 C   0  0  0  0  0  0  0  0  0  0  0  0
    4.7431    1.5531   -1.2295 C   0  0  0  0  0  0  0  0  0  0  0  0
    5.2587    2.2473   -0.0257 N   0  0  0  0  0  0  0  0  0  0  0  0
    6.0214    3.4230   -0.0693 C   0  0  0  0  0  0  0  0  0  0  0  0
    6.9220    3.7447    0.8731 C   0  0  0  0  0  0  0  0  0  0  0  0
    7.7338    4.9680    0.8473 C   0  0  0  0  0  0  0  0  0  0  0  0
    8.4792    5.2541    1.7777 O   0  0  0  0  0  0  0  0  0  0  0  0
    7.6554    5.8369   -0.3567 C   0  0  0  0  0  0  0  0  0  0  0  0
    8.5744    6.8597   -0.4265 N   0  0  0  0  0  0  0  0  0  0  0  0
    9.4234    7.0167   -1.5519 C   0  0  0  0  0  0  0  0  0  0  0  0
    9.3669    6.0952   -2.5370 N   0  0  0  0  0  0  0  0  0  0  0  0
   10.1595    6.2928   -3.5885 C   0  0  0  0  0  0  0  0  0  0  0  0
   11.0003    7.3144   -3.7512 N   0  0  0  0  0  0  0  0  0  0  0  0
   11.0175    8.2325   -2.7713 C   0  0  0  0  0  0  0  0  0  0  0  0
   11.8013    9.3587   -2.9369 C   0  0  0  0  0  0  0  0  0  0  0  0
   11.7933   10.4778   -2.0544 C   0  0  0  0  0  0  0  0  0  0  0  0
   12.4085   11.6697   -2.4383 O   0  0  0  0  0  0  0  0  0  0  0  0
   12.6503   11.6973   -3.8664 C   0  0  0  0  0  0  0  0  0  0  0  0
   12.9901   13.0220   -4.5395 C   0  0  0  0  0  0  0  0  0  0  0  0
   12.9613   12.7234   -5.9474 O   0  0  0  0  0  0  0  0  0  0  0  0
   13.1605   13.8429   -6.7896 C   0  0  0  0  0  0  0  0  0  0  0  0
   11.0820   10.3413   -0.8569 C   0  0  0  0  0  0  0  0  0  0  0  0
   10.8962   11.1286    0.2330 O   0  0  0  0  0  0  0  0  0  0  0  0
   11.5121   12.3715    0.4583 C   0  0  0  0  0  0  0  0  0  0  0  0
   10.3253    9.1720   -0.6702 C   0  0  0  0  0  0  0  0  0  0  0  0
   10.2513    8.1454   -1.6331 C   0  0  0  0  0  0  0  0  0  0  0  0
    6.7274    5.5588   -1.2831 C   0  0  0  0  0  0  0  0  0  0  0  0
    5.8081    4.4181   -1.1930 C   0  0  0  0  0  0  0  0  0  0  0  0
    4.9061    4.3229   -2.0157 O   0  0  0  0  0  0  0  0  0  0  0  0
    4.8019    1.6413    1.2415 C   0  0  0  0  0  0  0  0  0  0  0  0
    3.2673    1.4664    1.2363 C   0  0  0  0  0  0  0  0  0  0  0  0
    3.0083   -2.5461    1.2448 H   0  0  0  0  0  0  0  0  0  0  0  0
    1.6160   -1.4676    1.4430 H   0  0  0  0  0  0  0  0  0  0  0  0
    3.1589   -1.1146    2.2545 H   0  0  0  0  0  0  0  0  0  0  0  0
    2.7271   -1.2212   -0.7721 H   0  0  0  0  0  0  0  0  0  0  0  0
    4.2462   -0.8350    0.0204 H   0  0  0  0  0  0  0  0  0  0  0  0
    2.7248    2.3431   -1.2108 H   0  0  0  0  0  0  0  0  0  0  0  0
    2.8607    0.8020   -2.0283 H   0  0  0  0  0  0  0  0  0  0  0  0
    5.0044    2.0559   -2.1636 H   0  0  0  0  0  0  0  0  0  0  0  0
    5.2409    0.5785   -1.2978 H   0  0  0  0  0  0  0  0  0  0  0  0
    7.1342    3.0881    1.7080 H   0  0  0  0  0  0  0  0  0  0  0  0
    9.1430    6.8798    0.4280 H   0  0  0  0  0  0  0  0  0  0  0  0
   10.1041    5.5653   -4.3920 H   0  0  0  0  0  0  0  0  0  0  0  0
   12.3887    9.3470   -3.8521 H   0  0  0  0  0  0  0  0  0  0  0  0
   11.7470   11.3477   -4.3887 H   0  0  0  0  0  0  0  0  0  0  0  0
   13.4846   11.0193   -4.1021 H   0  0  0  0  0  0  0  0  0  0  0  0
   13.9889   13.3674   -4.2552 H   0  0  0  0  0  0  0  0  0  0  0  0
   12.2508   13.7902   -4.2932 H   0  0  0  0  0  0  0  0  0  0  0  0
   13.0681   13.4994   -7.8294 H   0  0  0  0  0  0  0  0  0  0  0  0
   14.1624   14.2503   -6.6521 H   0  0  0  0  0  0  0  0  0  0  0  0
   12.3961   14.6018   -6.6131 H   0  0  0  0  0  0  0  0  0  0  0  0
   11.1836   12.6804    1.4590 H   0  0  0  0  0  0  0  0  0  0  0  0
   11.1525   13.1271   -0.2431 H   0  0  0  0  0  0  0  0  0  0  0  0
   12.6018   12.3022    0.4876 H   0  0  0  0  0  0  0  0  0  0  0  0
    9.7329    9.0934    0.2438 H   0  0  0  0  0  0  0  0  0  0  0  0
    6.6157    6.1734   -2.1737 H   0  0  0  0  0  0  0  0  0  0  0  0
    5.0578    2.2698    2.1019 H   0  0  0  0  0  0  0  0  0  0  0  0
    5.3087    0.6809    1.3870 H   0  0  0  0  0  0  0  0  0  0  0  0
    2.8067    2.4642    1.2035 H   0  0  0  0  0  0  0  0  0  0  0  0
    2.9375    1.0406    2.1892 H   0  0  0  0  0  0  0  0  0  0  0  0
  1  2  1  0  0  0  0
  1 35  1  0  0  0  0
  1 36  1  0  0  0  0
  1 37  1  0  0  0  0
  2  3  1  0  0  0  0
  2 38  1  0  0  0  0
  2 39  1  0  0  0  0
  3  4  1  0  0  0  0
  3 34  1  0  0  0  0
  4  5  1  0  0  0  0
  4 40  1  0  0  0  0
  4 41  1  0  0  0  0
  5  6  1  0  0  0  0
  5 42  1  0  0  0  0
  5 43  1  0  0  0  0
  6  7  1  0  0  0  0
  6 33  1  0  0  0  0
  7  8  2  0  0  0  0
  7 31  1  0  0  0  0
  8  9  1  0  0  0  0
  8 44  1  0  0  0  0
  9 10  2  0  0  0  0
  9 11  1  0  0  0  0
 11 12  1  0  0  0  0
 11 30  2  0  0  0  0
 12 13  1  0  0  0  0
 12 45  1  0  0  0  0
 13 14  1  0  0  0  0
 13 29  2  0  0  0  0
 14 15  2  0  0  0  0
 15 16  1  0  0  0  0
 15 46  1  0  0  0  0
 16 17  2  0  0  0  0
 17 18  1  0  0  0  0
 17 29  1  0  0  0  0
 18 19  2  0  0  0  0
 18 47  1  0  0  0  0
 19 20  1  0  0  0  0
 19 25  1  0  0  0  0
 20 21  1  0  0  0  0
 21 22  1  0  0  0  0
 21 48  1  0  0  0  0
 21 49  1  0  0  0  0
 22 23  1  0  0  0  0
 22 50  1  0  0  0  0
 22 51  1  0  0  0  0
 23 24  1  0  0  0  0
 24 52  1  0  0  0  0
 24 53  1  0  0  0  0
 24 54  1  0  0  0  0
 25 26  1  0  0  0  0
 25 28  2  0  0  0  0
 26 27  1  0  0  0  0
 27 55  1  0  0  0  0
 27 56  1  0  0  0  0
 27 57  1  0  0  0  0
 28 29  1  0  0  0  0
 28 58  1  0  0  0  0
 30 31  1  0  0  0  0
 30 59  1  0  0  0  0
 31 32  2  0  0  0  0
 33 34  1  0  0  0  0
 33 60  1  0  0  0  0
 33 61  1  0  0  0  0
 34 62  1  0  0  0  0
 34 63  1  0  0  0  0
M  END
$$$$
