CHEMBL3753162
 OpenBabel04072215373D

 63 68  0  0  0  0  0  0  0  0999 V2000
    3.5000   -1.6269    0.2414 O   0  0  0  0  0  0  0  0  0  0  0  0
    3.6606   -1.0253   -0.8207 C   0  0  0  0  0  0  0  0  0  0  0  0
    3.1291    0.3979   -0.9515 C   0  0  0  0  0  0  0  0  0  0  0  0
    2.3023    0.6360   -2.1604 N   0  0  0  0  0  0  0  0  0  0  0  0
    1.6733    1.9885   -2.0511 C   0  0  0  0  0  0  0  0  0  0  0  0
    0.5776    2.1645   -0.9552 C   0  0  0  0  0  0  0  0  0  0  0  0
   -0.4005    1.0643   -0.9762 N   0  0  0  0  0  0  0  0  0  0  0  0
   -1.6848    1.3200   -0.4982 C   0  0  0  0  0  0  0  0  0  0  0  0
   -2.1906    2.5408   -0.7768 N   0  0  0  0  0  0  0  0  0  0  0  0
   -3.4950    2.8857   -0.4862 N   0  0  0  0  0  0  0  0  0  0  0  0
   -4.3445    1.9839    0.0462 C   0  0  0  0  0  0  0  0  0  0  0  0
   -5.6827    2.5433    0.3850 C   0  0  0  0  0  0  0  0  0  0  0  0
   -6.2900    3.5276   -0.4191 C   0  0  0  0  0  0  0  0  0  0  0  0
   -7.5444    4.0654   -0.0991 C   0  0  0  0  0  0  0  0  0  0  0  0
   -8.2314    3.6199    1.0262 C   0  0  0  0  0  0  0  0  0  0  0  0
   -7.6476    2.6702    1.8539 C   0  0  0  0  0  0  0  0  0  0  0  0
   -6.3773    2.1707    1.5535 C   0  0  0  0  0  0  0  0  0  0  0  0
   -3.9049    0.6698    0.3241 C   0  0  0  0  0  0  0  0  0  0  0  0
   -4.7660   -0.3768    0.7681 C   0  0  0  0  0  0  0  0  0  0  0  0
   -4.2944   -1.6165    1.1919 C   0  0  0  0  0  0  0  0  0  0  0  0
   -2.9387   -1.8474    1.1919 C   0  0  0  0  0  0  0  0  0  0  0  0
   -2.0821   -0.8649    0.6985 C   0  0  0  0  0  0  0  0  0  0  0  0
   -2.5256    0.3731    0.1565 C   0  0  0  0  0  0  0  0  0  0  0  0
    0.1207   -0.2816   -1.2039 C   0  0  0  0  0  0  0  0  0  0  0  0
    1.1860   -0.3251   -2.3117 C   0  0  0  0  0  0  0  0  0  0  0  0
    4.3064   -1.5017   -1.9377 N   0  0  0  0  0  0  0  0  0  0  0  0
    4.9777   -2.6935   -1.9032 C   0  0  0  0  0  0  0  0  0  0  0  0
    5.2772   -3.4198   -0.8589 N   0  0  0  0  0  0  0  0  0  0  0  0
    5.9424   -4.5695   -1.2452 C   0  0  0  0  0  0  0  0  0  0  0  0
    6.3194   -5.5770   -0.2586 C   0  0  0  0  0  0  0  0  0  0  0  0
    5.5824   -5.6743    0.9319 C   0  0  0  0  0  0  0  0  0  0  0  0
    5.8743   -6.6611    1.8763 C   0  0  0  0  0  0  0  0  0  0  0  0
    6.9188   -7.5533    1.6488 C   0  0  0  0  0  0  0  0  0  0  0  0
    7.6816   -7.4476    0.4868 C   0  0  0  0  0  0  0  0  0  0  0  0
    7.3866   -6.4626   -0.4619 C   0  0  0  0  0  0  0  0  0  0  0  0
    6.1342   -4.6859   -2.6101 C   0  0  0  0  0  0  0  0  0  0  0  0
    5.4971   -3.2983   -3.4106 S   0  0  0  0  0  0  0  0  0  0  0  0
    4.0013    1.0623   -0.9763 H   0  0  0  0  0  0  0  0  0  0  0  0
    2.5825    0.6132   -0.0270 H   0  0  0  0  0  0  0  0  0  0  0  0
    1.2193    2.2205   -3.0235 H   0  0  0  0  0  0  0  0  0  0  0  0
    2.4555    2.7432   -1.9038 H   0  0  0  0  0  0  0  0  0  0  0  0
    0.1134    3.1457   -1.1123 H   0  0  0  0  0  0  0  0  0  0  0  0
    1.0444    2.1976    0.0380 H   0  0  0  0  0  0  0  0  0  0  0  0
   -5.7782    3.8993   -1.3064 H   0  0  0  0  0  0  0  0  0  0  0  0
   -7.9813    4.8368   -0.7288 H   0  0  0  0  0  0  0  0  0  0  0  0
   -9.2106    4.0240    1.2682 H   0  0  0  0  0  0  0  0  0  0  0  0
   -8.1678    2.3229    2.7429 H   0  0  0  0  0  0  0  0  0  0  0  0
   -5.9307    1.4800    2.2654 H   0  0  0  0  0  0  0  0  0  0  0  0
   -5.8446   -0.2367    0.7864 H   0  0  0  0  0  0  0  0  0  0  0  0
   -4.9810   -2.3779    1.5480 H   0  0  0  0  0  0  0  0  0  0  0  0
   -2.5317   -2.7849    1.5614 H   0  0  0  0  0  0  0  0  0  0  0  0
   -1.0260   -1.0851    0.7868 H   0  0  0  0  0  0  0  0  0  0  0  0
   -0.6793   -0.9620   -1.5174 H   0  0  0  0  0  0  0  0  0  0  0  0
    0.5825   -0.6580   -0.2867 H   0  0  0  0  0  0  0  0  0  0  0  0
    0.6955   -0.1231   -3.2749 H   0  0  0  0  0  0  0  0  0  0  0  0
    1.5645   -1.3493   -2.3995 H   0  0  0  0  0  0  0  0  0  0  0  0
    4.1828   -1.0283   -2.8223 H   0  0  0  0  0  0  0  0  0  0  0  0
    4.7639   -4.9808    1.1240 H   0  0  0  0  0  0  0  0  0  0  0  0
    5.2820   -6.7313    2.7851 H   0  0  0  0  0  0  0  0  0  0  0  0
    7.1415   -8.3263    2.3798 H   0  0  0  0  0  0  0  0  0  0  0  0
    8.5077   -8.1339    0.3182 H   0  0  0  0  0  0  0  0  0  0  0  0
    8.0084   -6.3948   -1.3502 H   0  0  0  0  0  0  0  0  0  0  0  0
    6.5814   -5.4957   -3.1683 H   0  0  0  0  0  0  0  0  0  0  0  0
  1  2  2  0  0  0  0
  2  3  1  0  0  0  0
  2 26  1  0  0  0  0
  3  4  1  0  0  0  0
  3 38  1  0  0  0  0
  3 39  1  0  0  0  0
  4  5  1  0  0  0  0
  4 25  1  0  0  0  0
  5  6  1  0  0  0  0
  5 40  1  0  0  0  0
  5 41  1  0  0  0  0
  6  7  1  0  0  0  0
  6 42  1  0  0  0  0
  6 43  1  0  0  0  0
  7  8  1  0  0  0  0
  7 24  1  0  0  0  0
  8  9  1  0  0  0  0
  8 23  2  0  0  0  0
  9 10  2  0  0  0  0
 10 11  1  0  0  0  0
 11 12  1  0  0  0  0
 11 18  2  0  0  0  0
 12 13  1  0  0  0  0
 12 17  2  0  0  0  0
 13 14  2  0  0  0  0
 13 44  1  0  0  0  0
 14 15  1  0  0  0  0
 14 45  1  0  0  0  0
 15 16  2  0  0  0  0
 15 46  1  0  0  0  0
 16 17  1  0  0  0  0
 16 47  1  0  0  0  0
 17 48  1  0  0  0  0
 18 19  1  0  0  0  0
 18 23  1  0  0  0  0
 19 20  2  0  0  0  0
 19 49  1  0  0  0  0
 20 21  1  0  0  0  0
 20 50  1  0  0  0  0
 21 22  2  0  0  0  0
 21 51  1  0  0  0  0
 22 23  1  0  0  0  0
 22 52  1  0  0  0  0
 24 25  1  0  0  0  0
 24 53  1  0  0  0  0
 24 54  1  0  0  0  0
 25 55  1  0  0  0  0
 25 56  1  0  0  0  0
 26 27  1  0  0  0  0
 26 57  1  0  0  0  0
 27 28  2  0  0  0  0
 27 37  1  0  0  0  0
 28 29  1  0  0  0  0
 29 30  1  0  0  0  0
 29 36  2  0  0  0  0
 30 31  1  0  0  0  0
 30 35  2  0  0  0  0
 31 32  2  0  0  0  0
 31 58  1  0  0  0  0
 32 33  1  0  0  0  0
 32 59  1  0  0  0  0
 33 34  2  0  0  0  0
 33 60  1  0  0  0  0
 34 35  1  0  0  0  0
 34 61  1  0  0  0  0
 35 62  1  0  0  0  0
 36 37  1  0  0  0  0
 36 63  1  0  0  0  0
M  END
$$$$
