CHEMBL3985563
 OpenBabel04072215373D

 60 63  0  0  0  0  0  0  0  0999 V2000
   -0.9317   -3.3193   -1.1993 C   0  0  0  0  0  0  0  0  0  0  0  0
    0.3584   -3.3510   -0.8365 C   0  0  0  0  0  0  0  0  0  0  0  0
    1.4000   -3.3863   -1.8985 C   0  0  0  0  0  0  0  0  0  0  0  0
    1.0650   -3.4197   -3.0774 O   0  0  0  0  0  0  0  0  0  0  0  0
    2.6940   -3.4339   -1.4052 N   0  0  0  0  0  0  0  0  0  0  0  0
    3.8614   -3.3964   -2.2078 C   0  0  0  0  0  0  0  0  0  0  0  0
    3.8347   -2.9559   -3.5304 C   0  0  0  0  0  0  0  0  0  0  0  0
    4.9763   -2.9242   -4.3382 C   0  0  0  0  0  0  0  0  0  0  0  0
    4.9221   -2.4214   -5.6652 N   0  0  0  0  0  0  0  0  0  0  0  0
    3.9955   -1.4693   -6.0595 C   0  0  0  0  0  0  0  0  0  0  0  0
    3.2695   -0.8571   -5.2797 O   0  0  0  0  0  0  0  0  0  0  0  0
    3.9599   -1.2760   -7.4343 N   0  0  0  0  0  0  0  0  0  0  0  0
    3.0439   -0.3334   -7.9747 C   0  0  0  0  0  0  0  0  0  0  0  0
    2.8547    0.9113   -7.3590 C   0  0  0  0  0  0  0  0  0  0  0  0
    1.8462    1.7772   -7.7819 C   0  0  0  0  0  0  0  0  0  0  0  0
    1.0614    1.4502   -8.8886 C   0  0  0  0  0  0  0  0  0  0  0  0
    0.0586    2.2688   -9.3747 O   0  0  0  0  0  0  0  0  0  0  0  0
    0.2401    3.6388   -9.3412 C   0  0  0  0  0  0  0  0  0  0  0  0
    1.4844    4.2394   -9.4909 C   0  0  0  0  0  0  0  0  0  0  0  0
    1.5606    5.6080   -9.3574 C   0  0  0  0  0  0  0  0  0  0  0  0
    0.4873    6.3904   -9.1627 N   0  0  0  0  0  0  0  0  0  0  0  0
   -0.7301    5.8215   -9.1065 C   0  0  0  0  0  0  0  0  0  0  0  0
   -1.8585    6.6415   -8.9808 N   0  0  0  0  0  0  0  0  0  0  0  0
   -1.8016    8.0091   -8.8347 C   0  0  0  0  0  0  0  0  0  0  0  0
   -0.8070    8.7196   -8.7346 O   0  0  0  0  0  0  0  0  0  0  0  0
   -3.1460    8.6768   -8.8349 C   0  0  0  0  0  0  0  0  0  0  0  0
   -3.4755    9.6645   -9.9366 C   0  0  0  0  0  0  0  0  0  0  0  0
   -3.2667   10.1592   -8.5364 C   0  0  0  0  0  0  0  0  0  0  0  0
   -0.8959    4.4408   -9.1884 C   0  0  0  0  0  0  0  0  0  0  0  0
    1.2633    0.2129   -9.5088 C   0  0  0  0  0  0  0  0  0  0  0  0
    0.4765   -0.1611  -10.5292 F   0  0  0  0  0  0  0  0  0  0  0  0
    2.2601   -0.6712   -9.0767 C   0  0  0  0  0  0  0  0  0  0  0  0
    6.1734   -3.4090   -3.8168 C   0  0  0  0  0  0  0  0  0  0  0  0
    6.2436   -3.8232   -2.4691 C   0  0  0  0  0  0  0  0  0  0  0  0
    7.5453   -4.2953   -1.8693 C   0  0  0  0  0  0  0  0  0  0  0  0
    8.5846   -4.2938   -2.7495 F   0  0  0  0  0  0  0  0  0  0  0  0
    7.9426   -3.5240   -0.8201 F   0  0  0  0  0  0  0  0  0  0  0  0
    7.4650   -5.5665   -1.3883 F   0  0  0  0  0  0  0  0  0  0  0  0
    5.0833   -3.7908   -1.6650 C   0  0  0  0  0  0  0  0  0  0  0  0
   -1.7296   -3.2953   -0.4673 H   0  0  0  0  0  0  0  0  0  0  0  0
   -1.2225   -3.3132   -2.2494 H   0  0  0  0  0  0  0  0  0  0  0  0
    0.6512   -3.3451    0.2032 H   0  0  0  0  0  0  0  0  0  0  0  0
    2.8207   -3.5884   -0.4149 H   0  0  0  0  0  0  0  0  0  0  0  0
    2.8967   -2.6085   -3.9478 H   0  0  0  0  0  0  0  0  0  0  0  0
    5.7550   -2.4869   -6.2316 H   0  0  0  0  0  0  0  0  0  0  0  0
    4.1359   -2.1100   -7.9774 H   0  0  0  0  0  0  0  0  0  0  0  0
    3.4677    1.2080   -6.5095 H   0  0  0  0  0  0  0  0  0  0  0  0
    1.6915    2.6990   -7.2275 H   0  0  0  0  0  0  0  0  0  0  0  0
    2.3896    3.6739   -9.6699 H   0  0  0  0  0  0  0  0  0  0  0  0
    2.5093    6.1326   -9.3981 H   0  0  0  0  0  0  0  0  0  0  0  0
   -2.7633    6.1980   -9.0115 H   0  0  0  0  0  0  0  0  0  0  0  0
   -3.9630    8.0646   -8.4702 H   0  0  0  0  0  0  0  0  0  0  0  0
   -4.4831    9.6755  -10.3335 H   0  0  0  0  0  0  0  0  0  0  0  0
   -2.7073    9.8980  -10.6673 H   0  0  0  0  0  0  0  0  0  0  0  0
   -4.1317   10.5002   -7.9797 H   0  0  0  0  0  0  0  0  0  0  0  0
   -2.3605   10.7200   -8.3273 H   0  0  0  0  0  0  0  0  0  0  0  0
   -1.8766    3.9823   -9.1276 H   0  0  0  0  0  0  0  0  0  0  0  0
    2.3506   -1.6357   -9.5643 H   0  0  0  0  0  0  0  0  0  0  0  0
    7.0697   -3.4323   -4.4332 H   0  0  0  0  0  0  0  0  0  0  0  0
    5.1474   -4.1129   -0.6274 H   0  0  0  0  0  0  0  0  0  0  0  0
  1  2  2  0  0  0  0
  1 40  1  0  0  0  0
  1 41  1  0  0  0  0
  2  3  1  0  0  0  0
  2 42  1  0  0  0  0
  3  4  2  0  0  0  0
  3  5  1  0  0  0  0
  5  6  1  0  0  0  0
  5 43  1  0  0  0  0
  6  7  1  0  0  0  0
  6 39  2  0  0  0  0
  7  8  2  0  0  0  0
  7 44  1  0  0  0  0
  8  9  1  0  0  0  0
  8 33  1  0  0  0  0
  9 10  1  0  0  0  0
  9 45  1  0  0  0  0
 10 11  2  0  0  0  0
 10 12  1  0  0  0  0
 12 13  1  0  0  0  0
 12 46  1  0  0  0  0
 13 14  1  0  0  0  0
 13 32  2  0  0  0  0
 14 15  2  0  0  0  0
 14 47  1  0  0  0  0
 15 16  1  0  0  0  0
 15 48  1  0  0  0  0
 16 17  1  0  0  0  0
 16 30  2  0  0  0  0
 17 18  1  0  0  0  0
 18 19  1  0  0  0  0
 18 29  2  0  0  0  0
 19 20  2  0  0  0  0
 19 49  1  0  0  0  0
 20 21  1  0  0  0  0
 20 50  1  0  0  0  0
 21 22  2  0  0  0  0
 22 23  1  0  0  0  0
 22 29  1  0  0  0  0
 23 24  1  0  0  0  0
 23 51  1  0  0  0  0
 24 25  2  0  0  0  0
 24 26  1  0  0  0  0
 26 27  1  0  0  0  0
 26 28  1  0  0  0  0
 26 52  1  0  0  0  0
 27 28  1  0  0  0  0
 27 53  1  0  0  0  0
 27 54  1  0  0  0  0
 28 55  1  0  0  0  0
 28 56  1  0  0  0  0
 29 57  1  0  0  0  0
 30 31  1  0  0  0  0
 30 32  1  0  0  0  0
 32 58  1  0  0  0  0
 33 34  2  0  0  0  0
 33 59  1  0  0  0  0
 34 35  1  0  0  0  0
 34 39  1  0  0  0  0
 35 36  1  0  0  0  0
 35 37  1  0  0  0  0
 35 38  1  0  0  0  0
 39 60  1  0  0  0  0
M  END
$$$$
