CHEMBL1761938
 OpenBabel04072215363D

 51 54  0  0  0  0  0  0  0  0999 V2000
   10.2466   -1.2651   -4.2844 C   0  0  0  0  0  0  0  0  0  0  0  0
   10.3474    0.1198   -4.6279 O   0  0  0  0  0  0  0  0  0  0  0  0
    9.2584    0.8927   -4.3134 C   0  0  0  0  0  0  0  0  0  0  0  0
    8.4158    0.5619   -3.2395 C   0  0  0  0  0  0  0  0  0  0  0  0
    7.2418    1.2488   -2.9732 C   0  0  0  0  0  0  0  0  0  0  0  0
    6.4567    0.7919   -1.9927 N   0  0  0  0  0  0  0  0  0  0  0  0
    5.2861    1.4124   -1.8189 C   0  0  0  0  0  0  0  0  0  0  0  0
    4.8415    2.4513   -2.5250 N   0  0  0  0  0  0  0  0  0  0  0  0
    5.6841    2.9423   -3.4574 C   0  0  0  0  0  0  0  0  0  0  0  0
    5.2762    4.0613   -4.1961 O   0  0  0  0  0  0  0  0  0  0  0  0
    4.3208    4.8814   -3.6254 C   0  0  0  0  0  0  0  0  0  0  0  0
    4.3787    5.2434   -2.2810 C   0  0  0  0  0  0  0  0  0  0  0  0
    3.3402    5.9745   -1.7061 C   0  0  0  0  0  0  0  0  0  0  0  0
    2.2524    6.4177   -2.4619 C   0  0  0  0  0  0  0  0  0  0  0  0
    1.1445    7.0916   -1.8815 N   0  0  0  0  0  0  0  0  0  0  0  0
    1.0303    7.4405   -0.5446 C   0  0  0  0  0  0  0  0  0  0  0  0
    1.9155    7.3186    0.2962 O   0  0  0  0  0  0  0  0  0  0  0  0
   -0.2292    7.9263   -0.2152 N   0  0  0  0  0  0  0  0  0  0  0  0
   -0.4952    8.3273    1.1251 C   0  0  0  0  0  0  0  0  0  0  0  0
    0.4095    9.1128    1.8532 C   0  0  0  0  0  0  0  0  0  0  0  0
    0.1639    9.4105    3.1958 C   0  0  0  0  0  0  0  0  0  0  0  0
   -0.9851    8.9215    3.8069 C   0  0  0  0  0  0  0  0  0  0  0  0
   -1.2021    9.1823    5.1027 F   0  0  0  0  0  0  0  0  0  0  0  0
   -1.9055    8.1605    3.0972 C   0  0  0  0  0  0  0  0  0  0  0  0
   -1.6629    7.8851    1.7542 C   0  0  0  0  0  0  0  0  0  0  0  0
   -2.5330    7.1196    1.0773 F   0  0  0  0  0  0  0  0  0  0  0  0
    2.2554    6.1450   -3.8359 C   0  0  0  0  0  0  0  0  0  0  0  0
    3.2863    5.3770   -4.4162 C   0  0  0  0  0  0  0  0  0  0  0  0
    6.9193    2.3588   -3.7566 C   0  0  0  0  0  0  0  0  0  0  0  0
    7.8217    2.7818   -4.7578 C   0  0  0  0  0  0  0  0  0  0  0  0
    8.9787    2.0462   -5.0574 C   0  0  0  0  0  0  0  0  0  0  0  0
    9.6801    2.5969   -6.0935 O   0  0  0  0  0  0  0  0  0  0  0  0
   10.6899    1.8327   -6.7329 C   0  0  0  0  0  0  0  0  0  0  0  0
   10.8913   -1.8343   -4.9604 H   0  0  0  0  0  0  0  0  0  0  0  0
    9.2292   -1.6590   -4.4041 H   0  0  0  0  0  0  0  0  0  0  0  0
   10.6017   -1.4246   -3.2608 H   0  0  0  0  0  0  0  0  0  0  0  0
    8.6495   -0.2771   -2.5888 H   0  0  0  0  0  0  0  0  0  0  0  0
    4.6395    1.0344   -1.0343 H   0  0  0  0  0  0  0  0  0  0  0  0
    5.1951    4.9143   -1.6430 H   0  0  0  0  0  0  0  0  0  0  0  0
    3.4216    6.1454   -0.6409 H   0  0  0  0  0  0  0  0  0  0  0  0
    0.4090    7.3914   -2.5038 H   0  0  0  0  0  0  0  0  0  0  0  0
   -0.9974    7.4626   -0.6849 H   0  0  0  0  0  0  0  0  0  0  0  0
    1.3245    9.4786    1.3920 H   0  0  0  0  0  0  0  0  0  0  0  0
    0.8746    9.9984    3.7697 H   0  0  0  0  0  0  0  0  0  0  0  0
   -2.7854    7.7679    3.5924 H   0  0  0  0  0  0  0  0  0  0  0  0
    1.4519    6.5005   -4.4798 H   0  0  0  0  0  0  0  0  0  0  0  0
    3.2657    5.1529   -5.4802 H   0  0  0  0  0  0  0  0  0  0  0  0
    7.6023    3.6738   -5.3422 H   0  0  0  0  0  0  0  0  0  0  0  0
   10.9515    2.3569   -7.6587 H   0  0  0  0  0  0  0  0  0  0  0  0
   10.3331    0.8388   -7.0198 H   0  0  0  0  0  0  0  0  0  0  0  0
   11.5933    1.7840   -6.1182 H   0  0  0  0  0  0  0  0  0  0  0  0
  1  2  1  0  0  0  0
  1 34  1  0  0  0  0
  1 35  1  0  0  0  0
  1 36  1  0  0  0  0
  2  3  1  0  0  0  0
  3  4  1  0  0  0  0
  3 31  2  0  0  0  0
  4  5  2  0  0  0  0
  4 37  1  0  0  0  0
  5  6  1  0  0  0  0
  5 29  1  0  0  0  0
  6  7  2  0  0  0  0
  7  8  1  0  0  0  0
  7 38  1  0  0  0  0
  8  9  2  0  0  0  0
  9 10  1  0  0  0  0
  9 29  1  0  0  0  0
 10 11  1  0  0  0  0
 11 12  1  0  0  0  0
 11 28  2  0  0  0  0
 12 13  2  0  0  0  0
 12 39  1  0  0  0  0
 13 14  1  0  0  0  0
 13 40  1  0  0  0  0
 14 15  1  0  0  0  0
 14 27  2  0  0  0  0
 15 16  1  0  0  0  0
 15 41  1  0  0  0  0
 16 17  2  0  0  0  0
 16 18  1  0  0  0  0
 18 19  1  0  0  0  0
 18 42  1  0  0  0  0
 19 20  1  0  0  0  0
 19 25  2  0  0  0  0
 20 21  2  0  0  0  0
 20 43  1  0  0  0  0
 21 22  1  0  0  0  0
 21 44  1  0  0  0  0
 22 23  1  0  0  0  0
 22 24  2  0  0  0  0
 24 25  1  0  0  0  0
 24 45  1  0  0  0  0
 25 26  1  0  0  0  0
 27 28  1  0  0  0  0
 27 46  1  0  0  0  0
 28 47  1  0  0  0  0
 29 30  2  0  0  0  0
 30 31  1  0  0  0  0
 30 48  1  0  0  0  0
 31 32  1  0  0  0  0
 32 33  1  0  0  0  0
 33 49  1  0  0  0  0
 33 50  1  0  0  0  0
 33 51  1  0  0  0  0
M  END
$$$$
