CHEMBL525065
 OpenBabel04072215383D

 39 42  0  0  0  0  0  0  0  0999 V2000
   -0.1318   -1.0498   -0.5064 N   0  0  0  0  0  0  0  0  0  0  0  0
    0.9043   -0.8629    0.3831 C   0  0  0  0  0  0  0  0  0  0  0  0
    1.1035   -1.8065    1.3052 N   0  0  0  0  0  0  0  0  0  0  0  0
    2.1257   -1.6039    2.1545 C   0  0  0  0  0  0  0  0  0  0  0  0
    2.9351   -0.4946    2.1177 C   0  0  0  0  0  0  0  0  0  0  0  0
    2.6283    0.4337    1.1474 C   0  0  0  0  0  0  0  0  0  0  0  0
    3.4296    1.6604    1.0096 C   0  0  0  0  0  0  0  0  0  0  0  0
    3.1286    2.6345    0.1360 C   0  0  0  0  0  0  0  0  0  0  0  0
    3.9701    3.7649   -0.0054 C   0  0  0  0  0  0  0  0  0  0  0  0
    5.0705    4.0668   -0.7970 C   0  0  0  0  0  0  0  0  0  0  0  0
    5.7246    3.1976   -1.7675 C   0  0  0  0  0  0  0  0  0  0  0  0
    5.0272    2.2238   -2.4952 C   0  0  0  0  0  0  0  0  0  0  0  0
    5.6937    1.3980   -3.4051 C   0  0  0  0  0  0  0  0  0  0  0  0
    7.0636    1.5447   -3.6080 C   0  0  0  0  0  0  0  0  0  0  0  0
    7.7670    2.5226   -2.9087 C   0  0  0  0  0  0  0  0  0  0  0  0
    7.1001    3.3462   -1.9977 C   0  0  0  0  0  0  0  0  0  0  0  0
    5.5380    5.3359   -0.5268 N   0  0  0  0  0  0  0  0  0  0  0  0
    4.7244    5.8276    0.3801 C   0  0  0  0  0  0  0  0  0  0  0  0
    4.7055    7.0991    1.0212 C   0  0  0  0  0  0  0  0  0  0  0  0
    3.7626    7.3728    1.9431 C   0  0  0  0  0  0  0  0  0  0  0  0
    2.7488    6.3947    2.3017 C   0  0  0  0  0  0  0  0  0  0  0  0
    2.7567    5.1948    1.6970 C   0  0  0  0  0  0  0  0  0  0  0  0
    3.7399    4.9106    0.7414 N   0  0  0  0  0  0  0  0  0  0  0  0
    1.6069    0.2657    0.2833 N   0  0  0  0  0  0  0  0  0  0  0  0
   -0.8169   -1.6760   -0.1087 H   0  0  0  0  0  0  0  0  0  0  0  0
   -0.4554   -0.1582   -0.8522 H   0  0  0  0  0  0  0  0  0  0  0  0
    2.2806   -2.3896    2.8889 H   0  0  0  0  0  0  0  0  0  0  0  0
    3.7550   -0.3722    2.8120 H   0  0  0  0  0  0  0  0  0  0  0  0
    4.3072    1.7416    1.6453 H   0  0  0  0  0  0  0  0  0  0  0  0
    2.2630    2.5601   -0.5181 H   0  0  0  0  0  0  0  0  0  0  0  0
    3.9549    2.0978   -2.3794 H   0  0  0  0  0  0  0  0  0  0  0  0
    5.1383    0.6438   -3.9565 H   0  0  0  0  0  0  0  0  0  0  0  0
    7.5808    0.9020   -4.3152 H   0  0  0  0  0  0  0  0  0  0  0  0
    8.8341    2.6485   -3.0706 H   0  0  0  0  0  0  0  0  0  0  0  0
    7.6606    4.1095   -1.4609 H   0  0  0  0  0  0  0  0  0  0  0  0
    5.4610    7.8262    0.7465 H   0  0  0  0  0  0  0  0  0  0  0  0
    3.7377    8.3379    2.4401 H   0  0  0  0  0  0  0  0  0  0  0  0
    2.0070    6.6557    3.0489 H   0  0  0  0  0  0  0  0  0  0  0  0
    2.0295    4.4242    1.9175 H   0  0  0  0  0  0  0  0  0  0  0  0
  1  2  1  0  0  0  0
  1 25  1  0  0  0  0
  1 26  1  0  0  0  0
  2  3  1  0  0  0  0
  2 24  2  0  0  0  0
  3  4  2  0  0  0  0
  4  5  1  0  0  0  0
  4 27  1  0  0  0  0
  5  6  2  0  0  0  0
  5 28  1  0  0  0  0
  6  7  1  0  0  0  0
  6 24  1  0  0  0  0
  7  8  2  0  0  0  0
  7 29  1  0  0  0  0
  8  9  1  0  0  0  0
  8 30  1  0  0  0  0
  9 10  2  0  0  0  0
  9 23  1  0  0  0  0
 10 11  1  0  0  0  0
 10 17  1  0  0  0  0
 11 12  1  0  0  0  0
 11 16  2  0  0  0  0
 12 13  2  0  0  0  0
 12 31  1  0  0  0  0
 13 14  1  0  0  0  0
 13 32  1  0  0  0  0
 14 15  2  0  0  0  0
 14 33  1  0  0  0  0
 15 16  1  0  0  0  0
 15 34  1  0  0  0  0
 16 35  1  0  0  0  0
 17 18  2  0  0  0  0
 18 19  1  0  0  0  0
 18 23  1  0  0  0  0
 19 20  2  0  0  0  0
 19 36  1  0  0  0  0
 20 21  1  0  0  0  0
 20 37  1  0  0  0  0
 21 22  2  0  0  0  0
 21 38  1  0  0  0  0
 22 23  1  0  0  0  0
 22 39  1  0  0  0  0
M  END
$$$$
