CHEMBL420087
 OpenBabel04072215383D

 19 20  0  0  0  0  0  0  0  0999 V2000
    2.5676    2.5090   -1.3313 Cl  0  0  0  0  0  0  0  0  0  0  0  0
    3.4602    1.0500   -1.2787 C   0  0  0  0  0  0  0  0  0  0  0  0
    3.2972   -0.0542   -2.0688 C   0  0  0  0  0  0  0  0  0  0  0  0
    4.1494   -1.0917   -1.7764 N   0  0  0  0  0  0  0  0  0  0  0  0
    4.9322   -0.7936   -0.7586 C   0  0  0  0  0  0  0  0  0  0  0  0
    5.8293   -1.6172   -0.1670 N   0  0  0  0  0  0  0  0  0  0  0  0
    5.7772   -3.0137   -0.1895 C   0  0  0  0  0  0  0  0  0  0  0  0
    5.1921   -3.7446   -1.2217 C   0  0  0  0  0  0  0  0  0  0  0  0
    5.0655   -5.1255   -1.1135 C   0  0  0  0  0  0  0  0  0  0  0  0
    5.5688   -5.7597    0.0085 C   0  0  0  0  0  0  0  0  0  0  0  0
    6.1974   -4.9793    0.9622 C   0  0  0  0  0  0  0  0  0  0  0  0
    6.3119   -3.6320    0.8868 N   0  0  0  0  0  0  0  0  0  0  0  0
    4.7086    0.8183   -0.1575 S   0  0  0  0  0  0  0  0  0  0  0  0
    2.5713   -0.1725   -2.8656 H   0  0  0  0  0  0  0  0  0  0  0  0
    6.2591   -1.3232    0.7022 H   0  0  0  0  0  0  0  0  0  0  0  0
    4.8107   -3.2585   -2.1120 H   0  0  0  0  0  0  0  0  0  0  0  0
    4.5667   -5.6852   -1.8985 H   0  0  0  0  0  0  0  0  0  0  0  0
    5.4772   -6.8319    0.1322 H   0  0  0  0  0  0  0  0  0  0  0  0
    6.6319   -5.4307    1.8493 H   0  0  0  0  0  0  0  0  0  0  0  0
  1  2  1  0  0  0  0
  2  3  2  0  0  0  0
  2 13  1  0  0  0  0
  3  4  1  0  0  0  0
  3 14  1  0  0  0  0
  4  5  2  0  0  0  0
  5  6  1  0  0  0  0
  5 13  1  0  0  0  0
  6  7  1  0  0  0  0
  6 15  1  0  0  0  0
  7  8  1  0  0  0  0
  7 12  2  0  0  0  0
  8  9  2  0  0  0  0
  8 16  1  0  0  0  0
  9 10  1  0  0  0  0
  9 17  1  0  0  0  0
 10 11  2  0  0  0  0
 10 18  1  0  0  0  0
 11 12  1  0  0  0  0
 11 19  1  0  0  0  0
M  END
$$$$
