CHEMBL1996702
 OpenBabel04072215363D

 62 65  0  0  0  0  0  0  0  0999 V2000
    6.8935    3.2634   -2.2270 C   0  0  0  0  0  0  0  0  0  0  0  0
    6.3757    2.1067   -1.5859 O   0  0  0  0  0  0  0  0  0  0  0  0
    5.1814    2.2324   -0.9260 C   0  0  0  0  0  0  0  0  0  0  0  0
    4.4585    3.4254   -0.7993 C   0  0  0  0  0  0  0  0  0  0  0  0
    3.2195    3.4771   -0.1285 C   0  0  0  0  0  0  0  0  0  0  0  0
    2.4500    4.7398   -0.0323 C   0  0  0  0  0  0  0  0  0  0  0  0
    1.6988    5.0448    1.1125 C   0  0  0  0  0  0  0  0  0  0  0  0
    0.9957    6.2435    1.2091 C   0  0  0  0  0  0  0  0  0  0  0  0
    1.0579    7.1930    0.1795 C   0  0  0  0  0  0  0  0  0  0  0  0
    1.7765    6.9272   -0.9818 C   0  0  0  0  0  0  0  0  0  0  0  0
    2.4520    5.6920   -1.0755 C   0  0  0  0  0  0  0  0  0  0  0  0
    1.9368    7.8675   -2.0195 N   0  0  0  0  0  0  0  0  0  0  0  0
    2.3635    9.1962   -1.8155 C   0  0  0  0  0  0  0  0  0  0  0  0
    3.2242    9.7582   -2.7757 C   0  0  0  0  0  0  0  0  0  0  0  0
    3.7551   11.0395   -2.6139 C   0  0  0  0  0  0  0  0  0  0  0  0
    3.4261   11.7979   -1.4893 C   0  0  0  0  0  0  0  0  0  0  0  0
    4.0664   13.1314   -1.3271 C   0  0  0  0  0  0  0  0  0  0  0  0
    5.1213   13.3700   -1.9054 O   0  0  0  0  0  0  0  0  0  0  0  0
    3.4074   14.0469   -0.5421 N   0  0  0  0  0  0  0  0  0  0  0  0
    3.8937   15.4048   -0.3973 C   0  0  0  0  0  0  0  0  0  0  0  0
    3.4505   16.3116   -1.5466 C   0  0  0  0  0  0  0  0  0  0  0  0
    1.9288   16.5033   -1.6295 C   0  0  0  0  0  0  0  0  0  0  0  0
    1.3071   17.0261   -0.3997 N   0  0  0  0  0  0  0  0  0  0  0  0
    1.7837   18.3727   -0.0774 C   0  0  0  0  0  0  0  0  0  0  0  0
   -0.1491   17.0430   -0.5445 C   0  0  0  0  0  0  0  0  0  0  0  0
    2.5304   11.2757   -0.5533 C   0  0  0  0  0  0  0  0  0  0  0  0
    1.9790    9.9925   -0.7212 C   0  0  0  0  0  0  0  0  0  0  0  0
    0.9677    9.6490    0.1886 N   0  0  0  0  0  0  0  0  0  0  0  0
    0.3462    8.4554    0.4252 C   0  0  0  0  0  0  0  0  0  0  0  0
   -0.7298    8.4391    1.0226 O   0  0  0  0  0  0  0  0  0  0  0  0
    2.7457    2.2868    0.4518 C   0  0  0  0  0  0  0  0  0  0  0  0
    3.4638    1.0930    0.3544 C   0  0  0  0  0  0  0  0  0  0  0  0
    4.6681    1.0696   -0.3419 C   0  0  0  0  0  0  0  0  0  0  0  0
    5.3607   -0.1052   -0.4599 O   0  0  0  0  0  0  0  0  0  0  0  0
    7.8299    2.9843   -2.7199 H   0  0  0  0  0  0  0  0  0  0  0  0
    7.1234    4.0475   -1.4976 H   0  0  0  0  0  0  0  0  0  0  0  0
    6.2077    3.6298   -2.9996 H   0  0  0  0  0  0  0  0  0  0  0  0
    4.8601    4.3447   -1.2130 H   0  0  0  0  0  0  0  0  0  0  0  0
    1.6685    4.3662    1.9605 H   0  0  0  0  0  0  0  0  0  0  0  0
    0.4214    6.4555    2.1102 H   0  0  0  0  0  0  0  0  0  0  0  0
    3.0174    5.4797   -1.9801 H   0  0  0  0  0  0  0  0  0  0  0  0
    2.3340    7.4549   -2.8582 H   0  0  0  0  0  0  0  0  0  0  0  0
    3.5106    9.1932   -3.6610 H   0  0  0  0  0  0  0  0  0  0  0  0
    4.4352   11.4405   -3.3640 H   0  0  0  0  0  0  0  0  0  0  0  0
    2.4515   13.8829   -0.2547 H   0  0  0  0  0  0  0  0  0  0  0  0
    4.9892   15.3819   -0.3602 H   0  0  0  0  0  0  0  0  0  0  0  0
    3.5414   15.7802    0.5681 H   0  0  0  0  0  0  0  0  0  0  0  0
    3.7960   15.8909   -2.4996 H   0  0  0  0  0  0  0  0  0  0  0  0
    3.9462   17.2838   -1.4488 H   0  0  0  0  0  0  0  0  0  0  0  0
    1.4770   15.5266   -1.8693 H   0  0  0  0  0  0  0  0  0  0  0  0
    1.7010   17.1559   -2.4819 H   0  0  0  0  0  0  0  0  0  0  0  0
    2.8489   18.3680    0.1737 H   0  0  0  0  0  0  0  0  0  0  0  0
    1.2707   18.7616    0.8095 H   0  0  0  0  0  0  0  0  0  0  0  0
    1.6227   19.0755   -0.9029 H   0  0  0  0  0  0  0  0  0  0  0  0
   -0.5321   16.0329   -0.7288 H   0  0  0  0  0  0  0  0  0  0  0  0
   -0.4776   17.6917   -1.3654 H   0  0  0  0  0  0  0  0  0  0  0  0
   -0.6249   17.3899    0.3803 H   0  0  0  0  0  0  0  0  0  0  0  0
    2.2790   11.8437    0.3374 H   0  0  0  0  0  0  0  0  0  0  0  0
    0.5344   10.4017    0.7087 H   0  0  0  0  0  0  0  0  0  0  0  0
    1.7963    2.2690    0.9826 H   0  0  0  0  0  0  0  0  0  0  0  0
    3.0644    0.1975    0.8203 H   0  0  0  0  0  0  0  0  0  0  0  0
    4.8578   -0.8146   -0.0314 H   0  0  0  0  0  0  0  0  0  0  0  0
  1  2  1  0  0  0  0
  1 35  1  0  0  0  0
  1 36  1  0  0  0  0
  1 37  1  0  0  0  0
  2  3  1  0  0  0  0
  3  4  1  0  0  0  0
  3 33  2  0  0  0  0
  4  5  2  0  0  0  0
  4 38  1  0  0  0  0
  5  6  1  0  0  0  0
  5 31  1  0  0  0  0
  6  7  1  0  0  0  0
  6 11  2  0  0  0  0
  7  8  2  0  0  0  0
  7 39  1  0  0  0  0
  8  9  1  0  0  0  0
  8 40  1  0  0  0  0
  9 10  2  0  0  0  0
  9 29  1  0  0  0  0
 10 11  1  0  0  0  0
 10 12  1  0  0  0  0
 11 41  1  0  0  0  0
 12 13  1  0  0  0  0
 12 42  1  0  0  0  0
 13 14  1  0  0  0  0
 13 27  2  0  0  0  0
 14 15  2  0  0  0  0
 14 43  1  0  0  0  0
 15 16  1  0  0  0  0
 15 44  1  0  0  0  0
 16 17  1  0  0  0  0
 16 26  2  0  0  0  0
 17 18  2  0  0  0  0
 17 19  1  0  0  0  0
 19 20  1  0  0  0  0
 19 45  1  0  0  0  0
 20 21  1  0  0  0  0
 20 46  1  0  0  0  0
 20 47  1  0  0  0  0
 21 22  1  0  0  0  0
 21 48  1  0  0  0  0
 21 49  1  0  0  0  0
 22 23  1  0  0  0  0
 22 50  1  0  0  0  0
 22 51  1  0  0  0  0
 23 24  1  0  0  0  0
 23 25  1  0  0  0  0
 24 52  1  0  0  0  0
 24 53  1  0  0  0  0
 24 54  1  0  0  0  0
 25 55  1  0  0  0  0
 25 56  1  0  0  0  0
 25 57  1  0  0  0  0
 26 27  1  0  0  0  0
 26 58  1  0  0  0  0
 27 28  1  0  0  0  0
 28 29  1  0  0  0  0
 28 59  1  0  0  0  0
 29 30  2  0  0  0  0
 31 32  2  0  0  0  0
 31 60  1  0  0  0  0
 32 33  1  0  0  0  0
 32 61  1  0  0  0  0
 33 34  1  0  0  0  0
 34 62  1  0  0  0  0
M  END
$$$$
