CHEMBL3972208
 OpenBabel04072215373D

 68 71  0  0  0  0  0  0  0  0999 V2000
    3.8352    2.1576    0.7069 C   0  0  0  0  0  0  0  0  0  0  0  0
    3.1543    1.9779   -0.5503 O   0  0  0  0  0  0  0  0  0  0  0  0
    3.4977    0.9961   -1.4582 C   0  0  0  0  0  0  0  0  0  0  0  0
    2.7937    0.9656   -2.5356 C   0  0  0  0  0  0  0  0  0  0  0  0
    3.1351    0.2969   -3.6496 C   0  0  0  0  0  0  0  0  0  0  0  0
    2.2861    0.5159   -4.8183 C   0  0  0  0  0  0  0  0  0  0  0  0
    1.7479    1.6039   -4.9103 O   0  0  0  0  0  0  0  0  0  0  0  0
    2.0855   -0.4461   -5.8009 N   0  0  0  0  0  0  0  0  0  0  0  0
    1.2695   -0.3290   -7.0032 C   0  0  0  0  0  0  0  0  0  0  0  0
    0.6245   -1.6843   -7.1707 C   0  0  0  0  0  0  0  0  0  0  0  0
    1.7293   -2.6353   -6.7070 C   0  0  0  0  0  0  0  0  0  0  0  0
    2.5440   -1.8219   -5.6693 C   0  0  0  0  0  0  0  0  0  0  0  0
    4.2746   -0.5094   -3.6407 C   0  0  0  0  0  0  0  0  0  0  0  0
    5.0693   -0.6003   -2.4968 C   0  0  0  0  0  0  0  0  0  0  0  0
    6.3760   -1.2935   -2.5661 N   0  0  0  0  0  0  0  0  0  0  0  0
    6.9570   -1.9900   -1.4138 C   0  0  0  0  0  0  0  0  0  0  0  0
    8.2828   -1.4569   -0.9872 C   0  0  0  0  0  0  0  0  0  0  0  0
    8.9880   -2.0393    0.1414 C   0  0  0  0  0  0  0  0  0  0  0  0
   10.2127   -1.3661    0.3472 O   0  0  0  0  0  0  0  0  0  0  0  0
    7.3187   -0.9849   -3.6567 C   0  0  0  0  0  0  0  0  0  0  0  0
    8.0961   -2.0857   -3.9663 C   0  0  0  0  0  0  0  0  0  0  0  0
    8.9578   -2.0105   -4.8524 C   0  0  0  0  0  0  0  0  0  0  0  0
    9.1659   -0.9259   -5.4840 C   0  0  0  0  0  0  0  0  0  0  0  0
   10.1974   -1.0945   -5.8992 N   0  0  0  0  0  0  0  0  0  0  0  0
   11.2413   -1.3016   -6.2959 C   0  0  0  0  0  0  0  0  0  0  0  0
   11.2911   -0.4195   -7.3277 C   0  0  0  0  0  0  0  0  0  0  0  0
   12.7642   -1.2925   -8.2562 C   0  0  0  0  0  0  0  0  0  0  0  0
   13.6740   -2.4923   -8.1049 C   0  0  0  0  0  0  0  0  0  0  0  0
   14.2257   -2.8965   -9.3285 N   0  0  0  0  0  0  0  0  0  0  0  0
   13.8175   -2.1017  -10.3080 N   0  0  0  0  0  0  0  0  0  0  0  0
   14.1056   -2.3856  -11.7917 C   0  0  0  0  0  0  0  0  0  0  0  0
   13.0077   -1.0982   -9.7365 C   0  0  0  0  0  0  0  0  0  0  0  0
    9.9523    0.7081   -6.9557 N   0  0  0  0  0  0  0  0  0  0  0  0
    8.8180    0.3061   -5.6857 C   0  0  0  0  0  0  0  0  0  0  0  0
    7.5707    0.3407   -4.4666 C   0  0  0  0  0  0  0  0  0  0  0  0
    4.5184    0.0926   -1.3563 C   0  0  0  0  0  0  0  0  0  0  0  0
    1.7425   -1.9049    0.9649 Cl  0  0  0  0  0  0  0  0  0  0  0  0
    3.6712    3.1961    1.1680 H   0  0  0  0  0  0  0  0  0  0  0  0
    5.0129    1.9110    0.6644 H   0  0  0  0  0  0  0  0  0  0  0  0
    4.0669    1.3121    1.2768 H   0  0  0  0  0  0  0  0  0  0  0  0
    1.9571    1.5382   -2.4543 H   0  0  0  0  0  0  0  0  0  0  0  0
    1.9874   -0.2054   -7.8552 H   0  0  0  0  0  0  0  0  0  0  0  0
    0.6008    0.5415   -7.0947 H   0  0  0  0  0  0  0  0  0  0  0  0
    0.2730   -1.8826   -8.2001 H   0  0  0  0  0  0  0  0  0  0  0  0
   -0.2555   -1.7392   -6.5057 H   0  0  0  0  0  0  0  0  0  0  0  0
    2.3841   -2.8814   -7.5671 H   0  0  0  0  0  0  0  0  0  0  0  0
    1.3359   -3.6102   -6.3406 H   0  0  0  0  0  0  0  0  0  0  0  0
    3.6186   -1.9171   -5.8494 H   0  0  0  0  0  0  0  0  0  0  0  0
    2.3134   -2.2415   -4.6617 H   0  0  0  0  0  0  0  0  0  0  0  0
    4.5386   -1.0520   -4.5144 H   0  0  0  0  0  0  0  0  0  0  0  0
    7.1189   -3.0745   -1.6119 H   0  0  0  0  0  0  0  0  0  0  0  0
    6.2680   -1.8260   -0.5977 H   0  0  0  0  0  0  0  0  0  0  0  0
    8.0196   -0.4241   -0.6086 H   0  0  0  0  0  0  0  0  0  0  0  0
    8.9956   -1.6523   -1.8571 H   0  0  0  0  0  0  0  0  0  0  0  0
    9.1309   -3.0946   -0.1005 H   0  0  0  0  0  0  0  0  0  0  0  0
    8.3200   -1.8671    0.9921 H   0  0  0  0  0  0  0  0  0  0  0  0
   10.7944   -1.5035   -0.4511 H   0  0  0  0  0  0  0  0  0  0  0  0
    8.1930   -3.0597   -3.5650 H   0  0  0  0  0  0  0  0  0  0  0  0
    9.6187   -2.8650   -5.1455 H   0  0  0  0  0  0  0  0  0  0  0  0
   11.8497   -2.1519   -5.6937 H   0  0  0  0  0  0  0  0  0  0  0  0
   13.9184   -3.1849   -7.3216 H   0  0  0  0  0  0  0  0  0  0  0  0
   14.7650   -3.2881  -12.0061 H   0  0  0  0  0  0  0  0  0  0  0  0
   14.5940   -1.5413  -12.3364 H   0  0  0  0  0  0  0  0  0  0  0  0
   13.1633   -2.6146  -12.3724 H   0  0  0  0  0  0  0  0  0  0  0  0
   12.6073   -0.3668  -10.4016 H   0  0  0  0  0  0  0  0  0  0  0  0
    6.8379    1.0598   -3.9035 H   0  0  0  0  0  0  0  0  0  0  0  0
    4.7601    0.0837   -0.3605 H   0  0  0  0  0  0  0  0  0  0  0  0
    1.8469   -1.3558   -0.1525 H   0  0  0  0  0  0  0  0  0  0  0  0
  1  2  1  0  0  0  0
  1 38  1  0  0  0  0
  1 39  1  0  0  0  0
  1 40  1  0  0  0  0
  2  3  1  0  0  0  0
  3  4  1  0  0  0  0
  3 36  2  0  0  0  0
  4  5  2  0  0  0  0
  4 41  1  0  0  0  0
  5  6  1  0  0  0  0
  5 13  1  0  0  0  0
  6  7  2  0  0  0  0
  6  8  1  0  0  0  0
  8  9  1  0  0  0  0
  8 12  1  0  0  0  0
  9 10  1  0  0  0  0
  9 42  1  0  0  0  0
  9 43  1  0  0  0  0
 10 11  1  0  0  0  0
 10 44  1  0  0  0  0
 10 45  1  0  0  0  0
 11 12  1  0  0  0  0
 11 46  1  0  0  0  0
 11 47  1  0  0  0  0
 12 48  1  0  0  0  0
 12 49  1  0  0  0  0
 13 14  2  0  0  0  0
 13 50  1  0  0  0  0
 14 15  1  0  0  0  0
 14 36  1  0  0  0  0
 15 16  1  0  0  0  0
 15 20  1  0  0  0  0
 16 17  1  0  0  0  0
 16 51  1  0  0  0  0
 16 52  1  0  0  0  0
 17 18  1  0  0  0  0
 17 53  1  0  0  0  0
 17 54  1  0  0  0  0
 18 19  1  0  0  0  0
 18 55  1  0  0  0  0
 18 56  1  0  0  0  0
 19 57  1  0  0  0  0
 20 21  1  0  0  0  0
 20 35  2  0  0  0  0
 21 22  2  0  0  0  0
 21 58  1  0  0  0  0
 22 23  1  0  0  0  0
 22 59  1  0  0  0  0
 23 24  1  0  0  0  0
 23 34  2  0  0  0  0
 24 25  2  0  0  0  0
 25 26  1  0  0  0  0
 25 60  1  0  0  0  0
 26 27  1  0  0  0  0
 26 33  2  0  0  0  0
 27 28  1  0  0  0  0
 27 32  2  0  0  0  0
 28 29  2  0  0  0  0
 28 61  1  0  0  0  0
 29 30  1  0  0  0  0
 30 31  1  0  0  0  0
 30 32  1  0  0  0  0
 31 62  1  0  0  0  0
 31 63  1  0  0  0  0
 31 64  1  0  0  0  0
 32 65  1  0  0  0  0
 33 34  1  0  0  0  0
 34 35  1  0  0  0  0
 35 66  1  0  0  0  0
 36 67  1  0  0  0  0
 37 68  1  0  0  0  0
M  END
$$$$
