CHEMBL3753341
 OpenBabel04072215373D

 37 40  0  0  0  0  0  0  0  0999 V2000
    1.2162    0.5951   -0.0322 C   0  0  0  0  0  0  0  0  0  0  0  0
    2.6113   -0.0245    0.0339 C   0  0  0  0  0  0  0  0  0  0  0  0
    3.5814    0.6889   -0.9067 C   0  0  0  0  0  0  0  0  0  0  0  0
    3.1129   -0.0554    1.4046 N   0  0  0  0  0  0  0  0  0  0  0  0
    3.3067    1.0991    2.0895 N   0  0  0  0  0  0  0  0  0  0  0  0
    3.7523    0.6795    3.2862 C   0  0  0  0  0  0  0  0  0  0  0  0
    4.1120    1.5964    4.3729 C   0  0  0  0  0  0  0  0  0  0  0  0
    3.5189    2.8580    4.5931 C   0  0  0  0  0  0  0  0  0  0  0  0
    4.0849    3.2897    5.7680 C   0  0  0  0  0  0  0  0  0  0  0  0
    3.7430    4.5635    6.5110 C   0  0  0  0  0  0  0  0  0  0  0  0
    4.8312    5.2116    7.3413 C   0  0  0  0  0  0  0  0  0  0  0  0
    3.7119    4.5065    8.0255 C   0  0  0  0  0  0  0  0  0  0  0  0
    5.0001    2.3748    6.1891 O   0  0  0  0  0  0  0  0  0  0  0  0
    5.0303    1.3129    5.3065 N   0  0  0  0  0  0  0  0  0  0  0  0
    3.8008   -0.7346    3.3856 C   0  0  0  0  0  0  0  0  0  0  0  0
    4.0998   -1.7177    4.3377 C   0  0  0  0  0  0  0  0  0  0  0  0
    4.4687   -1.4614    5.6487 N   0  0  0  0  0  0  0  0  0  0  0  0
    4.0059   -3.0148    3.9787 N   0  0  0  0  0  0  0  0  0  0  0  0
    3.6040   -3.3091    2.7274 C   0  0  0  0  0  0  0  0  0  0  0  0
    3.2735   -2.4580    1.7422 N   0  0  0  0  0  0  0  0  0  0  0  0
    3.3908   -1.1780    2.1403 C   0  0  0  0  0  0  0  0  0  0  0  0
    0.8253    0.5626   -1.0546 H   0  0  0  0  0  0  0  0  0  0  0  0
    1.2233    1.6414    0.2925 H   0  0  0  0  0  0  0  0  0  0  0  0
    0.5180    0.0515    0.6137 H   0  0  0  0  0  0  0  0  0  0  0  0
    2.5312   -1.0671   -0.2988 H   0  0  0  0  0  0  0  0  0  0  0  0
    3.6944    1.7465   -0.6456 H   0  0  0  0  0  0  0  0  0  0  0  0
    3.2255    0.6345   -1.9416 H   0  0  0  0  0  0  0  0  0  0  0  0
    4.5743    0.2275   -0.8685 H   0  0  0  0  0  0  0  0  0  0  0  0
    2.7534    3.3445    4.0078 H   0  0  0  0  0  0  0  0  0  0  0  0
    3.0155    5.2108    6.0334 H   0  0  0  0  0  0  0  0  0  0  0  0
    4.8557    6.2938    7.3842 H   0  0  0  0  0  0  0  0  0  0  0  0
    5.8131    4.7508    7.3717 H   0  0  0  0  0  0  0  0  0  0  0  0
    2.9674    5.1052    8.5379 H   0  0  0  0  0  0  0  0  0  0  0  0
    3.9259    3.5635    8.5182 H   0  0  0  0  0  0  0  0  0  0  0  0
    4.8983   -0.5514    5.8089 H   0  0  0  0  0  0  0  0  0  0  0  0
    4.9260   -2.2543    6.0784 H   0  0  0  0  0  0  0  0  0  0  0  0
    3.5354   -4.3667    2.4920 H   0  0  0  0  0  0  0  0  0  0  0  0
  1  2  1  0  0  0  0
  1 22  1  0  0  0  0
  1 23  1  0  0  0  0
  1 24  1  0  0  0  0
  2  3  1  0  0  0  0
  2  4  1  0  0  0  0
  2 25  1  0  0  0  0
  3 26  1  0  0  0  0
  3 27  1  0  0  0  0
  3 28  1  0  0  0  0
  4  5  1  0  0  0  0
  4 21  1  0  0  0  0
  5  6  2  0  0  0  0
  6  7  1  0  0  0  0
  6 15  1  0  0  0  0
  7  8  1  0  0  0  0
  7 14  2  0  0  0  0
  8  9  2  0  0  0  0
  8 29  1  0  0  0  0
  9 10  1  0  0  0  0
  9 13  1  0  0  0  0
 10 11  1  0  0  0  0
 10 12  1  0  0  0  0
 10 30  1  0  0  0  0
 11 12  1  0  0  0  0
 11 31  1  0  0  0  0
 11 32  1  0  0  0  0
 12 33  1  0  0  0  0
 12 34  1  0  0  0  0
 13 14  1  0  0  0  0
 15 16  1  0  0  0  0
 15 21  2  0  0  0  0
 16 17  1  0  0  0  0
 16 18  2  0  0  0  0
 17 35  1  0  0  0  0
 17 36  1  0  0  0  0
 18 19  1  0  0  0  0
 19 20  2  0  0  0  0
 19 37  1  0  0  0  0
 20 21  1  0  0  0  0
M  END
$$$$
