CHEMBL1934327
 OpenBabel04072215363D

 66 70  0  0  0  0  0  0  0  0999 V2000
    7.4557   -3.8202   -1.1436 C   0  0  0  0  0  0  0  0  0  0  0  0
    6.3699   -3.1600   -0.4147 N   0  0  0  0  0  0  0  0  0  0  0  0
    5.9666   -1.9337   -1.1165 C   0  0  0  0  0  0  0  0  0  0  0  0
    4.8112   -1.2256   -0.4048 C   0  0  0  0  0  0  0  0  0  0  0  0
    3.6009   -2.1532   -0.2179 C   0  0  0  0  0  0  0  0  0  0  0  0
    2.9251   -2.5109   -1.5492 C   0  0  0  0  0  0  0  0  0  0  0  0
    2.5374   -1.3279   -2.2593 O   0  0  0  0  0  0  0  0  0  0  0  0
    2.4835   -1.4883   -3.6201 C   0  0  0  0  0  0  0  0  0  0  0  0
    2.6518   -0.3410   -4.3855 C   0  0  0  0  0  0  0  0  0  0  0  0
    2.6949   -0.4406   -5.7762 C   0  0  0  0  0  0  0  0  0  0  0  0
    2.5946   -1.7038   -6.4125 C   0  0  0  0  0  0  0  0  0  0  0  0
    2.6892   -1.9480   -7.7947 C   0  0  0  0  0  0  0  0  0  0  0  0
    2.8045   -0.8553   -8.7034 N   0  0  0  0  0  0  0  0  0  0  0  0
    2.7149   -0.9210  -10.1132 C   0  0  0  0  0  0  0  0  0  0  0  0
    1.9715   -1.9105  -10.7545 C   0  0  0  0  0  0  0  0  0  0  0  0
    1.9180   -2.0033  -12.1422 C   0  0  0  0  0  0  0  0  0  0  0  0
    2.5548   -1.0677  -12.9510 C   0  0  0  0  0  0  0  0  0  0  0  0
    2.5652   -1.1629  -14.3631 N   0  0  0  0  0  0  0  0  0  0  0  0
    1.9046   -2.1290  -15.1030 C   0  0  0  0  0  0  0  0  0  0  0  0
    1.1221   -2.9575  -14.6513 O   0  0  0  0  0  0  0  0  0  0  0  0
    2.2664   -2.1007  -16.4446 N   0  0  0  0  0  0  0  0  0  0  0  0
    1.6973   -3.0406  -17.3405 C   0  0  0  0  0  0  0  0  0  0  0  0
    0.3217   -3.3197  -17.3265 C   0  0  0  0  0  0  0  0  0  0  0  0
   -0.2078   -4.3278  -18.1333 C   0  0  0  0  0  0  0  0  0  0  0  0
    0.6371   -5.0619  -18.9598 C   0  0  0  0  0  0  0  0  0  0  0  0
    1.9953   -4.7607  -18.9897 C   0  0  0  0  0  0  0  0  0  0  0  0
    2.8116   -5.4912  -19.7613 F   0  0  0  0  0  0  0  0  0  0  0  0
    2.5313   -3.7406  -18.2084 C   0  0  0  0  0  0  0  0  0  0  0  0
    3.2277   -0.0116  -12.3276 C   0  0  0  0  0  0  0  0  0  0  0  0
    3.2998    0.0634  -10.9216 C   0  0  0  0  0  0  0  0  0  0  0  0
    2.6252   -3.2017   -8.2859 N   0  0  0  0  0  0  0  0  0  0  0  0
    2.4161   -4.2033   -7.4346 C   0  0  0  0  0  0  0  0  0  0  0  0
    2.2824   -4.0826   -6.1166 N   0  0  0  0  0  0  0  0  0  0  0  0
    2.3845   -2.8475   -5.6258 C   0  0  0  0  0  0  0  0  0  0  0  0
    2.2934   -2.7155   -4.2554 C   0  0  0  0  0  0  0  0  0  0  0  0
    4.0660   -3.4296    0.4967 C   0  0  0  0  0  0  0  0  0  0  0  0
    5.2545   -4.0929   -0.2083 C   0  0  0  0  0  0  0  0  0  0  0  0
    8.3144   -3.1482   -1.2499 H   0  0  0  0  0  0  0  0  0  0  0  0
    7.1446   -4.1391   -2.1462 H   0  0  0  0  0  0  0  0  0  0  0  0
    7.8095   -4.7013   -0.5976 H   0  0  0  0  0  0  0  0  0  0  0  0
    5.6922   -2.1457   -2.1575 H   0  0  0  0  0  0  0  0  0  0  0  0
    6.8154   -1.2395   -1.1492 H   0  0  0  0  0  0  0  0  0  0  0  0
    4.5297   -0.3263   -0.9588 H   0  0  0  0  0  0  0  0  0  0  0  0
    5.1528   -0.8889    0.5829 H   0  0  0  0  0  0  0  0  0  0  0  0
    2.8662   -1.6295    0.4058 H   0  0  0  0  0  0  0  0  0  0  0  0
    2.0274   -3.1106   -1.3572 H   0  0  0  0  0  0  0  0  0  0  0  0
    3.6199   -3.1085   -2.1489 H   0  0  0  0  0  0  0  0  0  0  0  0
    2.7733    0.6247   -3.9017 H   0  0  0  0  0  0  0  0  0  0  0  0
    2.8297    0.4668   -6.3588 H   0  0  0  0  0  0  0  0  0  0  0  0
    3.5088   -0.2002   -8.3903 H   0  0  0  0  0  0  0  0  0  0  0  0
    1.4258   -2.6615  -10.1920 H   0  0  0  0  0  0  0  0  0  0  0  0
    1.3632   -2.8461  -12.5367 H   0  0  0  0  0  0  0  0  0  0  0  0
    3.0197   -0.4217  -14.8752 H   0  0  0  0  0  0  0  0  0  0  0  0
    3.2325   -1.8541  -16.6054 H   0  0  0  0  0  0  0  0  0  0  0  0
   -0.3458   -2.7737  -16.6623 H   0  0  0  0  0  0  0  0  0  0  0  0
   -1.2711   -4.5516  -18.0919 H   0  0  0  0  0  0  0  0  0  0  0  0
    0.2500   -5.8727  -19.5678 H   0  0  0  0  0  0  0  0  0  0  0  0
    3.6010   -3.5691  -18.2348 H   0  0  0  0  0  0  0  0  0  0  0  0
    3.7155    0.7614  -12.9151 H   0  0  0  0  0  0  0  0  0  0  0  0
    3.8374    0.8937  -10.4709 H   0  0  0  0  0  0  0  0  0  0  0  0
    2.3420   -5.2006   -7.8514 H   0  0  0  0  0  0  0  0  0  0  0  0
    2.0944   -3.6182   -3.6852 H   0  0  0  0  0  0  0  0  0  0  0  0
    3.2395   -4.1460    0.5743 H   0  0  0  0  0  0  0  0  0  0  0  0
    4.3600   -3.1746    1.5242 H   0  0  0  0  0  0  0  0  0  0  0  0
    4.9279   -4.5315   -1.1611 H   0  0  0  0  0  0  0  0  0  0  0  0
    5.5947   -4.9284    0.4165 H   0  0  0  0  0  0  0  0  0  0  0  0
  1  2  1  0  0  0  0
  1 38  1  0  0  0  0
  1 39  1  0  0  0  0
  1 40  1  0  0  0  0
  2  3  1  0  0  0  0
  2 37  1  0  0  0  0
  3  4  1  0  0  0  0
  3 41  1  0  0  0  0
  3 42  1  0  0  0  0
  4  5  1  0  0  0  0
  4 43  1  0  0  0  0
  4 44  1  0  0  0  0
  5  6  1  0  0  0  0
  5 36  1  0  0  0  0
  5 45  1  0  0  0  0
  6  7  1  0  0  0  0
  6 46  1  0  0  0  0
  6 47  1  0  0  0  0
  7  8  1  0  0  0  0
  8  9  1  0  0  0  0
  8 35  2  0  0  0  0
  9 10  2  0  0  0  0
  9 48  1  0  0  0  0
 10 11  1  0  0  0  0
 10 49  1  0  0  0  0
 11 12  1  0  0  0  0
 11 34  2  0  0  0  0
 12 13  1  0  0  0  0
 12 31  2  0  0  0  0
 13 14  1  0  0  0  0
 13 50  1  0  0  0  0
 14 15  1  0  0  0  0
 14 30  2  0  0  0  0
 15 16  2  0  0  0  0
 15 51  1  0  0  0  0
 16 17  1  0  0  0  0
 16 52  1  0  0  0  0
 17 18  1  0  0  0  0
 17 29  2  0  0  0  0
 18 19  1  0  0  0  0
 18 53  1  0  0  0  0
 19 20  2  0  0  0  0
 19 21  1  0  0  0  0
 21 22  1  0  0  0  0
 21 54  1  0  0  0  0
 22 23  1  0  0  0  0
 22 28  2  0  0  0  0
 23 24  2  0  0  0  0
 23 55  1  0  0  0  0
 24 25  1  0  0  0  0
 24 56  1  0  0  0  0
 25 26  2  0  0  0  0
 25 57  1  0  0  0  0
 26 27  1  0  0  0  0
 26 28  1  0  0  0  0
 28 58  1  0  0  0  0
 29 30  1  0  0  0  0
 29 59  1  0  0  0  0
 30 60  1  0  0  0  0
 31 32  1  0  0  0  0
 32 33  2  0  0  0  0
 32 61  1  0  0  0  0
 33 34  1  0  0  0  0
 34 35  1  0  0  0  0
 35 62  1  0  0  0  0
 36 37  1  0  0  0  0
 36 63  1  0  0  0  0
 36 64  1  0  0  0  0
 37 65  1  0  0  0  0
 37 66  1  0  0  0  0
M  END
$$$$
