CHEMBL3896067
 OpenBabel04072215373D

 55 59  0  0  1  0  0  0  0  0999 V2000
   -3.0392   -5.0315    2.1293 C   0  0  0  0  0  0  0  0  0  0  0  0
   -2.0151   -4.2039    1.5775 O   0  0  0  0  0  0  0  0  0  0  0  0
   -0.8173   -4.8153    1.2967 C   0  0  0  0  0  0  0  0  0  0  0  0
   -0.6196   -6.1970    1.3953 C   0  0  0  0  0  0  0  0  0  0  0  0
    0.6360   -6.7758    1.1182 C   0  0  0  0  0  0  0  0  0  0  0  0
    0.9010   -8.1499    1.1655 C   0  0  0  0  0  0  0  0  0  0  0  0
   -0.1554   -9.0693    1.4302 N   0  0  0  0  0  0  0  0  0  0  0  0
    0.0751  -10.4093    1.8123 C   0  0  0  0  0  0  0  0  0  0  0  0
    0.9777  -10.6951    2.8456 C   0  0  0  0  0  0  0  0  0  0  0  0
    1.3331  -12.0094    3.1448 C   0  0  0  0  0  0  0  0  0  0  0  0
    0.7700  -13.0600    2.4242 C   0  0  0  0  0  0  0  0  0  0  0  0
    1.3917  -14.8114    2.8124 Br  0  0  0  0  0  0  0  0  0  0  0  0
   -0.1894  -12.7938    1.4396 C   0  0  0  0  0  0  0  0  0  0  0  0
   -0.9506  -14.0462    0.5218 Cl  0  0  0  0  0  0  0  0  0  0  0  0
   -0.5454  -11.4710    1.1450 C   0  0  0  0  0  0  0  0  0  0  0  0
    2.1357   -8.6405    0.9385 N   0  0  0  0  0  0  0  0  0  0  0  0
    3.0932   -7.7607    0.6485 C   0  0  0  0  0  0  0  0  0  0  0  0
    2.9433   -6.4366    0.5580 N   0  0  0  0  0  0  0  0  0  0  0  0
    1.7184   -5.9543    0.7982 C   0  0  0  0  0  0  0  0  0  0  0  0
    1.5133   -4.5854    0.6991 C   0  0  0  0  0  0  0  0  0  0  0  0
    0.2555   -4.0005    0.9032 C   0  0  0  0  0  0  0  0  0  0  0  0
   -0.0033   -2.6654    0.6742 O   0  0  0  0  0  0  0  0  0  0  0  0
    1.0758   -1.7267    0.8343 C   0  0  1  0  0  0  0  0  0  0  0  0
    1.9042   -1.5560   -0.4403 C   0  0  0  0  0  0  0  0  0  0  0  0
    1.2992   -0.5220   -1.2337 O   0  0  0  0  0  0  0  0  0  0  0  0
    0.6428    0.3765   -0.3332 C   0  0  2  0  0  0  0  0  0  0  0  0
    1.5500    1.5534   -0.0407 C   0  0  1  0  0  0  0  0  0  0  0  0
    1.1724    3.0067   -0.9645 S   0  0  0  0  0  0  0  0  0  0  0  0
    1.4564    2.5395   -2.6585 C   0  0  0  0  0  0  0  0  0  0  0  0
   -0.2386    3.2939   -0.8099 O   0  0  0  0  0  0  0  0  0  0  0  0
    2.1687    4.0088   -0.6196 O   0  0  0  0  0  0  0  0  0  0  0  0
    1.3484    1.7663    1.4359 C   0  0  0  0  0  0  0  0  0  0  0  0
    1.2341    0.4390    1.9725 O   0  0  0  0  0  0  0  0  0  0  0  0
    0.4821   -0.3310    1.0123 C   0  0  2  0  0  0  0  0  0  0  0  0
   -3.8785   -4.3947    2.4213 H   0  0  0  0  0  0  0  0  0  0  0  0
   -2.6969   -5.5541    3.0309 H   0  0  0  0  0  0  0  0  0  0  0  0
   -3.4034   -5.7442    1.3807 H   0  0  0  0  0  0  0  0  0  0  0  0
   -1.4272   -6.8548    1.6972 H   0  0  0  0  0  0  0  0  0  0  0  0
   -0.8534   -8.9834    0.6971 H   0  0  0  0  0  0  0  0  0  0  0  0
    1.4412   -9.8799    3.3976 H   0  0  0  0  0  0  0  0  0  0  0  0
    2.0700  -12.1896    3.9229 H   0  0  0  0  0  0  0  0  0  0  0  0
   -1.2710  -11.2764    0.3600 H   0  0  0  0  0  0  0  0  0  0  0  0
    4.0868   -8.1579    0.4611 H   0  0  0  0  0  0  0  0  0  0  0  0
    2.3794   -3.9934    0.4293 H   0  0  0  0  0  0  0  0  0  0  0  0
    1.6934   -2.0122    1.6943 H   0  0  0  0  0  0  0  0  0  0  0  0
    1.9726   -2.4488   -1.0638 H   0  0  0  0  0  0  0  0  0  0  0  0
    2.9176   -1.2209   -0.1895 H   0  0  0  0  0  0  0  0  0  0  0  0
   -0.3228    0.6485   -0.7697 H   0  0  0  0  0  0  0  0  0  0  0  0
    2.5986    1.3097   -0.2472 H   0  0  0  0  0  0  0  0  0  0  0  0
    0.7682    1.7383   -2.9310 H   0  0  0  0  0  0  0  0  0  0  0  0
    2.4944    2.2204   -2.7711 H   0  0  0  0  0  0  0  0  0  0  0  0
    1.2683    3.4148   -3.2837 H   0  0  0  0  0  0  0  0  0  0  0  0
    0.4306    2.3170    1.6729 H   0  0  0  0  0  0  0  0  0  0  0  0
    2.1909    2.2788    1.9089 H   0  0  0  0  0  0  0  0  0  0  0  0
   -0.5645   -0.3441    1.3361 H   0  0  0  0  0  0  0  0  0  0  0  0
  1  2  1  0  0  0  0
  1 35  1  0  0  0  0
  1 36  1  0  0  0  0
  1 37  1  0  0  0  0
  2  3  1  0  0  0  0
  3  4  1  0  0  0  0
  3 21  2  0  0  0  0
  4  5  2  0  0  0  0
  4 38  1  0  0  0  0
  5  6  1  0  0  0  0
  5 19  1  0  0  0  0
  6  7  1  0  0  0  0
  6 16  2  0  0  0  0
  7  8  1  0  0  0  0
  7 39  1  0  0  0  0
  8  9  1  0  0  0  0
  8 15  2  0  0  0  0
  9 10  2  0  0  0  0
  9 40  1  0  0  0  0
 10 11  1  0  0  0  0
 10 41  1  0  0  0  0
 11 12  1  0  0  0  0
 11 13  2  0  0  0  0
 13 14  1  0  0  0  0
 13 15  1  0  0  0  0
 15 42  1  0  0  0  0
 16 17  1  0  0  0  0
 17 18  2  0  0  0  0
 17 43  1  0  0  0  0
 18 19  1  0  0  0  0
 19 20  2  0  0  0  0
 20 21  1  0  0  0  0
 20 44  1  0  0  0  0
 21 22  1  0  0  0  0
 23 24  1  0  0  0  0
 23 34  1  0  0  0  0
 23 22  1  0  0  0  0
 23 45  1  1  0  0  0
 24 25  1  0  0  0  0
 24 46  1  0  0  0  0
 24 47  1  0  0  0  0
 25 26  1  0  0  0  0
 26 27  1  0  0  0  0
 26 34  1  0  0  0  0
 26 48  1  6  0  0  0
 27 28  1  0  0  0  0
 27 32  1  0  0  0  0
 27 49  1  6  0  0  0
 28 29  1  0  0  0  0
 28 30  2  0  0  0  0
 28 31  2  0  0  0  0
 29 50  1  0  0  0  0
 29 51  1  0  0  0  0
 29 52  1  0  0  0  0
 32 33  1  0  0  0  0
 32 53  1  0  0  0  0
 32 54  1  0  0  0  0
 33 34  1  0  0  0  0
 34 55  1  1  0  0  0
M  END
$$$$
