CHEMBL257479
 OpenBabel04072215363D

 45 48  0  0  0  0  0  0  0  0999 V2000
    2.3707   -0.4110    1.5157 C   0  0  0  0  0  0  0  0  0  0  0  0
    0.8746   -0.2972    1.4907 C   0  0  0  0  0  0  0  0  0  0  0  0
    0.2660    0.8853    1.9238 C   0  0  0  0  0  0  0  0  0  0  0  0
   -1.1182    0.9981    1.9119 C   0  0  0  0  0  0  0  0  0  0  0  0
   -1.9029   -0.0679    1.4713 C   0  0  0  0  0  0  0  0  0  0  0  0
   -1.3248   -1.2601    1.0205 C   0  0  0  0  0  0  0  0  0  0  0  0
   -2.0828   -2.3680    0.5644 N   0  0  0  0  0  0  0  0  0  0  0  0
   -3.4529   -2.3703    0.3641 C   0  0  0  0  0  0  0  0  0  0  0  0
   -4.1793   -1.3877    0.4640 O   0  0  0  0  0  0  0  0  0  0  0  0
   -3.9466   -3.6391    0.0671 N   0  0  0  0  0  0  0  0  0  0  0  0
   -5.3319   -3.8262   -0.1545 C   0  0  0  0  0  0  0  0  0  0  0  0
   -6.0826   -2.9092   -0.8992 C   0  0  0  0  0  0  0  0  0  0  0  0
   -7.4786   -2.9863   -0.9297 C   0  0  0  0  0  0  0  0  0  0  0  0
   -8.1732   -4.0015   -0.2502 C   0  0  0  0  0  0  0  0  0  0  0  0
   -9.6507   -3.9878   -0.1814 C   0  0  0  0  0  0  0  0  0  0  0  0
  -10.4331   -3.5872   -1.2882 C   0  0  0  0  0  0  0  0  0  0  0  0
  -11.8188   -3.5423   -1.2012 C   0  0  0  0  0  0  0  0  0  0  0  0
  -12.5401   -3.8737   -0.1154 N   0  0  0  0  0  0  0  0  0  0  0  0
  -11.7712   -4.2471    0.9231 C   0  0  0  0  0  0  0  0  0  0  0  0
  -12.2467   -4.6314    2.1393 N   0  0  0  0  0  0  0  0  0  0  0  0
  -11.2899   -4.9285    3.0302 N   0  0  0  0  0  0  0  0  0  0  0  0
  -10.1612   -4.7156    2.3549 C   0  0  0  0  0  0  0  0  0  0  0  0
   -8.9719   -4.8598    2.9626 N   0  0  0  0  0  0  0  0  0  0  0  0
  -10.3818   -4.3202    0.9941 C   0  0  0  0  0  0  0  0  0  0  0  0
   -7.3908   -4.9974    0.3596 C   0  0  0  0  0  0  0  0  0  0  0  0
   -5.9904   -4.9057    0.4268 C   0  0  0  0  0  0  0  0  0  0  0  0
    0.0741   -1.3659    1.0417 C   0  0  0  0  0  0  0  0  0  0  0  0
    2.8336    0.5009    1.9111 H   0  0  0  0  0  0  0  0  0  0  0  0
    2.7547   -0.5668    0.5035 H   0  0  0  0  0  0  0  0  0  0  0  0
    2.6771   -1.2421    2.1582 H   0  0  0  0  0  0  0  0  0  0  0  0
    0.8592    1.7261    2.2719 H   0  0  0  0  0  0  0  0  0  0  0  0
   -1.5993    1.9147    2.2447 H   0  0  0  0  0  0  0  0  0  0  0  0
   -2.9773    0.0800    1.4988 H   0  0  0  0  0  0  0  0  0  0  0  0
   -1.5715   -3.1720    0.2320 H   0  0  0  0  0  0  0  0  0  0  0  0
   -3.4620   -4.3976    0.5248 H   0  0  0  0  0  0  0  0  0  0  0  0
   -5.5936   -2.0903   -1.4225 H   0  0  0  0  0  0  0  0  0  0  0  0
   -8.0124   -2.2043   -1.4667 H   0  0  0  0  0  0  0  0  0  0  0  0
   -9.9670   -3.3064   -2.2282 H   0  0  0  0  0  0  0  0  0  0  0  0
  -12.4097   -3.2198   -2.0558 H   0  0  0  0  0  0  0  0  0  0  0  0
  -13.2179   -4.6966    2.4147 H   0  0  0  0  0  0  0  0  0  0  0  0
   -9.0203   -4.9822    3.9689 H   0  0  0  0  0  0  0  0  0  0  0  0
   -8.2071   -4.2544    2.6833 H   0  0  0  0  0  0  0  0  0  0  0  0
   -7.8712   -5.8419    0.8508 H   0  0  0  0  0  0  0  0  0  0  0  0
   -5.4459   -5.6447    1.0072 H   0  0  0  0  0  0  0  0  0  0  0  0
    0.5620   -2.2778    0.7066 H   0  0  0  0  0  0  0  0  0  0  0  0
  1  2  1  0  0  0  0
  1 28  1  0  0  0  0
  1 29  1  0  0  0  0
  1 30  1  0  0  0  0
  2  3  1  0  0  0  0
  2 27  2  0  0  0  0
  3  4  2  0  0  0  0
  3 31  1  0  0  0  0
  4  5  1  0  0  0  0
  4 32  1  0  0  0  0
  5  6  2  0  0  0  0
  5 33  1  0  0  0  0
  6  7  1  0  0  0  0
  6 27  1  0  0  0  0
  7  8  1  0  0  0  0
  7 34  1  0  0  0  0
  8  9  2  0  0  0  0
  8 10  1  0  0  0  0
 10 11  1  0  0  0  0
 10 35  1  0  0  0  0
 11 12  1  0  0  0  0
 11 26  2  0  0  0  0
 12 13  2  0  0  0  0
 12 36  1  0  0  0  0
 13 14  1  0  0  0  0
 13 37  1  0  0  0  0
 14 15  1  0  0  0  0
 14 25  2  0  0  0  0
 15 16  1  0  0  0  0
 15 24  2  0  0  0  0
 16 17  2  0  0  0  0
 16 38  1  0  0  0  0
 17 18  1  0  0  0  0
 17 39  1  0  0  0  0
 18 19  2  0  0  0  0
 19 20  1  0  0  0  0
 19 24  1  0  0  0  0
 20 21  1  0  0  0  0
 20 40  1  0  0  0  0
 21 22  2  0  0  0  0
 22 23  1  0  0  0  0
 22 24  1  0  0  0  0
 23 41  1  0  0  0  0
 23 42  1  0  0  0  0
 25 26  1  0  0  0  0
 25 43  1  0  0  0  0
 26 44  1  0  0  0  0
 27 45  1  0  0  0  0
M  END
$$$$
