CHEMBL270985
 OpenBabel04072215363D

 59 63  0  0  0  0  0  0  0  0999 V2000
    4.9758   -1.8830    0.2937 C   0  0  0  0  0  0  0  0  0  0  0  0
    3.8451   -1.0674    0.6102 O   0  0  0  0  0  0  0  0  0  0  0  0
    4.1208    0.1496    1.1695 C   0  0  0  0  0  0  0  0  0  0  0  0
    5.3408    0.8147    0.9517 C   0  0  0  0  0  0  0  0  0  0  0  0
    5.7134    1.9536    1.6550 C   0  0  0  0  0  0  0  0  0  0  0  0
    6.9607    2.4246    1.4881 N   0  0  0  0  0  0  0  0  0  0  0  0
    7.3683    3.4469    2.2661 C   0  0  0  0  0  0  0  0  0  0  0  0
    6.5888    4.0221    3.2478 C   0  0  0  0  0  0  0  0  0  0  0  0
    5.2920    3.5360    3.4199 C   0  0  0  0  0  0  0  0  0  0  0  0
    4.6357    4.1366    4.4844 O   0  0  0  0  0  0  0  0  0  0  0  0
    3.6877    3.4549    5.2133 C   0  0  0  0  0  0  0  0  0  0  0  0
    3.7248    2.0928    5.4796 C   0  0  0  0  0  0  0  0  0  0  0  0
    2.5602    1.4485    5.9119 C   0  0  0  0  0  0  0  0  0  0  0  0
    1.3843    2.1622    6.2648 C   0  0  0  0  0  0  0  0  0  0  0  0
    0.1408    1.5889    6.6710 C   0  0  0  0  0  0  0  0  0  0  0  0
   -0.1699    0.1256    6.6853 C   0  0  0  0  0  0  0  0  0  0  0  0
   -1.2870   -0.2181    6.3087 O   0  0  0  0  0  0  0  0  0  0  0  0
    0.8006   -0.7154    7.1980 N   0  0  0  0  0  0  0  0  0  0  0  0
    0.7118   -2.1187    7.3368 C   0  0  0  0  0  0  0  0  0  0  0  0
   -0.3467   -2.8858    6.8454 C   0  0  0  0  0  0  0  0  0  0  0  0
   -0.4313   -4.2536    7.1295 C   0  0  0  0  0  0  0  0  0  0  0  0
    0.5522   -4.8846    7.8994 C   0  0  0  0  0  0  0  0  0  0  0  0
    0.4240   -6.3349    8.2956 C   0  0  0  0  0  0  0  0  0  0  0  0
   -0.7133   -6.9300    7.8395 F   0  0  0  0  0  0  0  0  0  0  0  0
    1.4550   -7.0963    7.8370 F   0  0  0  0  0  0  0  0  0  0  0  0
    0.4116   -6.5006    9.6484 F   0  0  0  0  0  0  0  0  0  0  0  0
    1.6553   -4.1302    8.3246 C   0  0  0  0  0  0  0  0  0  0  0  0
    1.7361   -2.7622    8.0396 C   0  0  0  0  0  0  0  0  0  0  0  0
   -0.9481    2.4159    7.0105 C   0  0  0  0  0  0  0  0  0  0  0  0
   -0.8399    3.7988    6.9540 C   0  0  0  0  0  0  0  0  0  0  0  0
    0.3488    4.3731    6.5221 C   0  0  0  0  0  0  0  0  0  0  0  0
    1.4481    3.5794    6.1621 C   0  0  0  0  0  0  0  0  0  0  0  0
    2.5880    4.2022    5.6297 C   0  0  0  0  0  0  0  0  0  0  0  0
    4.7920    2.5272    2.5521 C   0  0  0  0  0  0  0  0  0  0  0  0
    3.4770    2.0074    2.5403 C   0  0  0  0  0  0  0  0  0  0  0  0
    3.1588    0.7788    1.9545 C   0  0  0  0  0  0  0  0  0  0  0  0
    1.9055    0.3681    2.3146 O   0  0  0  0  0  0  0  0  0  0  0  0
    1.5164   -0.9828    2.1239 C   0  0  0  0  0  0  0  0  0  0  0  0
    4.6826   -2.9298    0.4074 H   0  0  0  0  0  0  0  0  0  0  0  0
    5.8307   -1.7208    0.9623 H   0  0  0  0  0  0  0  0  0  0  0  0
    5.2671   -1.7166   -0.7472 H   0  0  0  0  0  0  0  0  0  0  0  0
    6.0722    0.4131    0.2547 H   0  0  0  0  0  0  0  0  0  0  0  0
    8.3864    3.7852    2.0916 H   0  0  0  0  0  0  0  0  0  0  0  0
    6.9825    4.8091    3.8754 H   0  0  0  0  0  0  0  0  0  0  0  0
    4.5912    1.4936    5.2112 H   0  0  0  0  0  0  0  0  0  0  0  0
    2.5810    0.3626    5.8888 H   0  0  0  0  0  0  0  0  0  0  0  0
    1.6048   -0.2764    7.6265 H   0  0  0  0  0  0  0  0  0  0  0  0
   -1.1430   -2.4472    6.2514 H   0  0  0  0  0  0  0  0  0  0  0  0
   -1.2909   -4.8137    6.7624 H   0  0  0  0  0  0  0  0  0  0  0  0
    2.4458   -4.6019    8.9064 H   0  0  0  0  0  0  0  0  0  0  0  0
    2.5954   -2.2054    8.4045 H   0  0  0  0  0  0  0  0  0  0  0  0
   -1.8986    1.9735    7.3074 H   0  0  0  0  0  0  0  0  0  0  0  0
   -1.6900    4.4249    7.2131 H   0  0  0  0  0  0  0  0  0  0  0  0
    0.4014    5.4583    6.4443 H   0  0  0  0  0  0  0  0  0  0  0  0
    2.5982    5.2787    5.4659 H   0  0  0  0  0  0  0  0  0  0  0  0
    2.6867    2.5108    3.0841 H   0  0  0  0  0  0  0  0  0  0  0  0
    0.6973   -1.1835    2.8241 H   0  0  0  0  0  0  0  0  0  0  0  0
    2.3071   -1.7015    2.3569 H   0  0  0  0  0  0  0  0  0  0  0  0
    1.1292   -1.1136    1.1110 H   0  0  0  0  0  0  0  0  0  0  0  0
  1  2  1  0  0  0  0
  1 39  1  0  0  0  0
  1 40  1  0  0  0  0
  1 41  1  0  0  0  0
  2  3  1  0  0  0  0
  3  4  1  0  0  0  0
  3 36  2  0  0  0  0
  4  5  2  0  0  0  0
  4 42  1  0  0  0  0
  5  6  1  0  0  0  0
  5 34  1  0  0  0  0
  6  7  2  0  0  0  0
  7  8  1  0  0  0  0
  7 43  1  0  0  0  0
  8  9  2  0  0  0  0
  8 44  1  0  0  0  0
  9 10  1  0  0  0  0
  9 34  1  0  0  0  0
 10 11  1  0  0  0  0
 11 12  1  0  0  0  0
 11 33  2  0  0  0  0
 12 13  2  0  0  0  0
 12 45  1  0  0  0  0
 13 14  1  0  0  0  0
 13 46  1  0  0  0  0
 14 15  1  0  0  0  0
 14 32  2  0  0  0  0
 15 16  1  0  0  0  0
 15 29  2  0  0  0  0
 16 17  2  0  0  0  0
 16 18  1  0  0  0  0
 18 19  1  0  0  0  0
 18 47  1  0  0  0  0
 19 20  1  0  0  0  0
 19 28  2  0  0  0  0
 20 21  2  0  0  0  0
 20 48  1  0  0  0  0
 21 22  1  0  0  0  0
 21 49  1  0  0  0  0
 22 23  1  0  0  0  0
 22 27  2  0  0  0  0
 23 24  1  0  0  0  0
 23 25  1  0  0  0  0
 23 26  1  0  0  0  0
 27 28  1  0  0  0  0
 27 50  1  0  0  0  0
 28 51  1  0  0  0  0
 29 30  1  0  0  0  0
 29 52  1  0  0  0  0
 30 31  2  0  0  0  0
 30 53  1  0  0  0  0
 31 32  1  0  0  0  0
 31 54  1  0  0  0  0
 32 33  1  0  0  0  0
 33 55  1  0  0  0  0
 34 35  2  0  0  0  0
 35 36  1  0  0  0  0
 35 56  1  0  0  0  0
 36 37  1  0  0  0  0
 37 38  1  0  0  0  0
 38 57  1  0  0  0  0
 38 58  1  0  0  0  0
 38 59  1  0  0  0  0
M  END
$$$$
