CHEMBL2403108
 OpenBabel04072215363D

 74 77  0  0  0  0  0  0  0  0999 V2000
    2.5059   -0.0101   -0.1211 C   0  0  0  0  0  0  0  0  0  0  0  0
    1.0035   -0.0761   -0.0418 C   0  0  0  0  0  0  0  0  0  0  0  0
    0.3012    1.1429   -0.0064 C   0  0  0  0  0  0  0  0  0  0  0  0
   -1.0992    1.1997    0.0223 C   0  0  0  0  0  0  0  0  0  0  0  0
   -1.7670    2.4361    0.1845 N   0  0  0  0  0  0  0  0  0  0  0  0
   -1.3183    3.6947   -0.2244 C   0  0  0  0  0  0  0  0  0  0  0  0
   -1.6288    4.7522    0.5400 N   0  0  0  0  0  0  0  0  0  0  0  0
   -1.2936    5.9703    0.0538 C   0  0  0  0  0  0  0  0  0  0  0  0
   -0.7009    6.1722   -1.1722 C   0  0  0  0  0  0  0  0  0  0  0  0
   -0.3676    7.7589   -1.7370 Cl  0  0  0  0  0  0  0  0  0  0  0  0
   -0.3795    5.0264   -1.8798 C   0  0  0  0  0  0  0  0  0  0  0  0
    0.2752    5.1047   -3.1267 N   0  0  0  0  0  0  0  0  0  0  0  0
    1.1278    4.1348   -3.6841 C   0  0  0  0  0  0  0  0  0  0  0  0
    2.1070    3.5485   -2.8594 C   0  0  0  0  0  0  0  0  0  0  0  0
    3.0454    2.6423   -3.3519 C   0  0  0  0  0  0  0  0  0  0  0  0
    2.9988    2.2617   -4.6861 C   0  0  0  0  0  0  0  0  0  0  0  0
    2.0024    2.7754   -5.5180 C   0  0  0  0  0  0  0  0  0  0  0  0
    1.0607    3.6990   -5.0191 C   0  0  0  0  0  0  0  0  0  0  0  0
   -0.0803    4.4181   -6.1927 S   0  0  0  0  0  0  0  0  0  0  0  0
   -0.5352    5.6801   -5.6299 O   0  0  0  0  0  0  0  0  0  0  0  0
    0.5959    4.4065   -7.4784 O   0  0  0  0  0  0  0  0  0  0  0  0
   -1.4896    3.3146   -6.3123 C   0  0  0  0  0  0  0  0  0  0  0  0
   -2.2980    3.2429   -5.0218 C   0  0  0  0  0  0  0  0  0  0  0  0
   -2.4075    3.7772   -7.4523 C   0  0  0  0  0  0  0  0  0  0  0  0
   -0.6635    3.8007   -1.3909 N   0  0  0  0  0  0  0  0  0  0  0  0
   -1.8070   -0.0132   -0.0293 C   0  0  0  0  0  0  0  0  0  0  0  0
   -3.1838    0.0479   -0.1073 O   0  0  0  0  0  0  0  0  0  0  0  0
   -3.8063   -0.9850   -0.8945 C   0  0  0  0  0  0  0  0  0  0  0  0
   -4.6242   -1.8841    0.0277 C   0  0  0  0  0  0  0  0  0  0  0  0
   -4.7049   -0.3387   -1.9445 C   0  0  0  0  0  0  0  0  0  0  0  0
   -1.1126   -1.2325    0.0254 C   0  0  0  0  0  0  0  0  0  0  0  0
    0.2898   -1.2883    0.0525 C   0  0  0  0  0  0  0  0  0  0  0  0
    1.0077   -2.6289    0.2350 C   0  0  0  0  0  0  0  0  0  0  0  0
    1.1347   -3.4539   -1.0605 C   0  0  0  0  0  0  0  0  0  0  0  0
    0.1078   -4.5692   -1.2076 C   0  0  0  0  0  0  0  0  0  0  0  0
    0.0392   -5.3996   -0.0081 N   0  0  0  0  0  0  0  0  0  0  0  0
   -0.4405   -4.6042    1.1163 C   0  0  0  0  0  0  0  0  0  0  0  0
    0.4981   -3.4444    1.4459 C   0  0  0  0  0  0  0  0  0  0  0  0
    2.8437    0.9832   -0.4388 H   0  0  0  0  0  0  0  0  0  0  0  0
    2.8846   -0.7177   -0.8659 H   0  0  0  0  0  0  0  0  0  0  0  0
    2.9497   -0.2212    0.8557 H   0  0  0  0  0  0  0  0  0  0  0  0
    0.8707    2.0701    0.0168 H   0  0  0  0  0  0  0  0  0  0  0  0
   -2.2198    2.5180    1.0865 H   0  0  0  0  0  0  0  0  0  0  0  0
   -1.5340    6.8073    0.7035 H   0  0  0  0  0  0  0  0  0  0  0  0
   -0.2281    5.6869   -3.8019 H   0  0  0  0  0  0  0  0  0  0  0  0
    2.1778    3.8468   -1.8141 H   0  0  0  0  0  0  0  0  0  0  0  0
    3.8261    2.2633   -2.6970 H   0  0  0  0  0  0  0  0  0  0  0  0
    3.7522    1.5852   -5.0838 H   0  0  0  0  0  0  0  0  0  0  0  0
    1.9941    2.4797   -6.5658 H   0  0  0  0  0  0  0  0  0  0  0  0
   -1.0973    2.3196   -6.5593 H   0  0  0  0  0  0  0  0  0  0  0  0
   -2.8010    4.1965   -4.8155 H   0  0  0  0  0  0  0  0  0  0  0  0
   -1.6686    3.0070   -4.1596 H   0  0  0  0  0  0  0  0  0  0  0  0
   -3.0720    2.4708   -5.0907 H   0  0  0  0  0  0  0  0  0  0  0  0
   -2.8052    4.7801   -7.2549 H   0  0  0  0  0  0  0  0  0  0  0  0
   -3.2584    3.0987   -7.5780 H   0  0  0  0  0  0  0  0  0  0  0  0
   -1.8711    3.8211   -8.4049 H   0  0  0  0  0  0  0  0  0  0  0  0
   -3.0786   -1.5907   -1.4476 H   0  0  0  0  0  0  0  0  0  0  0  0
   -5.4845   -1.3462    0.4413 H   0  0  0  0  0  0  0  0  0  0  0  0
   -4.0265   -2.2254    0.8789 H   0  0  0  0  0  0  0  0  0  0  0  0
   -4.9954   -2.7613   -0.5120 H   0  0  0  0  0  0  0  0  0  0  0  0
   -5.5004    0.2541   -1.4823 H   0  0  0  0  0  0  0  0  0  0  0  0
   -5.1648   -1.1024   -2.5822 H   0  0  0  0  0  0  0  0  0  0  0  0
   -4.1255    0.3384   -2.5806 H   0  0  0  0  0  0  0  0  0  0  0  0
   -1.6700   -2.1607    0.0704 H   0  0  0  0  0  0  0  0  0  0  0  0
    2.0357   -2.3739    0.5150 H   0  0  0  0  0  0  0  0  0  0  0  0
    2.1296   -3.9196   -1.0618 H   0  0  0  0  0  0  0  0  0  0  0  0
    1.1037   -2.8092   -1.9485 H   0  0  0  0  0  0  0  0  0  0  0  0
    0.3940   -5.2102   -2.0512 H   0  0  0  0  0  0  0  0  0  0  0  0
   -0.8826   -4.1705   -1.4491 H   0  0  0  0  0  0  0  0  0  0  0  0
    0.9665   -5.7684    0.2074 H   0  0  0  0  0  0  0  0  0  0  0  0
   -0.5198   -5.2549    1.9952 H   0  0  0  0  0  0  0  0  0  0  0  0
   -1.4573   -4.2513    0.9141 H   0  0  0  0  0  0  0  0  0  0  0  0
    1.3765   -3.8706    1.9487 H   0  0  0  0  0  0  0  0  0  0  0  0
    0.0184   -2.7931    2.1871 H   0  0  0  0  0  0  0  0  0  0  0  0
  1  2  1  0  0  0  0
  1 39  1  0  0  0  0
  1 40  1  0  0  0  0
  1 41  1  0  0  0  0
  2  3  1  0  0  0  0
  2 32  2  0  0  0  0
  3  4  2  0  0  0  0
  3 42  1  0  0  0  0
  4  5  1  0  0  0  0
  4 26  1  0  0  0  0
  5  6  1  0  0  0  0
  5 43  1  0  0  0  0
  6  7  1  0  0  0  0
  6 25  2  0  0  0  0
  7  8  2  0  0  0  0
  8  9  1  0  0  0  0
  8 44  1  0  0  0  0
  9 10  1  0  0  0  0
  9 11  2  0  0  0  0
 11 12  1  0  0  0  0
 11 25  1  0  0  0  0
 12 13  1  0  0  0  0
 12 45  1  0  0  0  0
 13 14  1  0  0  0  0
 13 18  2  0  0  0  0
 14 15  2  0  0  0  0
 14 46  1  0  0  0  0
 15 16  1  0  0  0  0
 15 47  1  0  0  0  0
 16 17  2  0  0  0  0
 16 48  1  0  0  0  0
 17 18  1  0  0  0  0
 17 49  1  0  0  0  0
 18 19  1  0  0  0  0
 19 20  2  0  0  0  0
 19 21  2  0  0  0  0
 19 22  1  0  0  0  0
 22 23  1  0  0  0  0
 22 24  1  0  0  0  0
 22 50  1  0  0  0  0
 23 51  1  0  0  0  0
 23 52  1  0  0  0  0
 23 53  1  0  0  0  0
 24 54  1  0  0  0  0
 24 55  1  0  0  0  0
 24 56  1  0  0  0  0
 26 27  1  0  0  0  0
 26 31  2  0  0  0  0
 27 28  1  0  0  0  0
 28 29  1  0  0  0  0
 28 30  1  0  0  0  0
 28 57  1  0  0  0  0
 29 58  1  0  0  0  0
 29 59  1  0  0  0  0
 29 60  1  0  0  0  0
 30 61  1  0  0  0  0
 30 62  1  0  0  0  0
 30 63  1  0  0  0  0
 31 32  1  0  0  0  0
 31 64  1  0  0  0  0
 32 33  1  0  0  0  0
 33 34  1  0  0  0  0
 33 38  1  0  0  0  0
 33 65  1  0  0  0  0
 34 35  1  0  0  0  0
 34 66  1  0  0  0  0
 34 67  1  0  0  0  0
 35 36  1  0  0  0  0
 35 68  1  0  0  0  0
 35 69  1  0  0  0  0
 36 37  1  0  0  0  0
 36 70  1  0  0  0  0
 37 38  1  0  0  0  0
 37 71  1  0  0  0  0
 37 72  1  0  0  0  0
 38 73  1  0  0  0  0
 38 74  1  0  0  0  0
M  END
$$$$
