CHEMBL258240
 OpenBabel04072215363D

 56 60  0  0  0  0  0  0  0  0999 V2000
    1.2759    0.0532   -0.9775 C   0  0  0  0  0  0  0  0  0  0  0  0
    0.3977   -0.3168   -2.0634 N   0  0  0  0  0  0  0  0  0  0  0  0
    0.0836   -1.6077   -2.3890 C   0  0  0  0  0  0  0  0  0  0  0  0
   -0.8379   -1.5104   -3.4016 C   0  0  0  0  0  0  0  0  0  0  0  0
   -1.0904   -0.1972   -3.6964 N   0  0  0  0  0  0  0  0  0  0  0  0
   -0.3017    0.5144   -2.9125 C   0  0  0  0  0  0  0  0  0  0  0  0
   -0.2165    1.9484   -2.9845 C   0  0  0  0  0  0  0  0  0  0  0  0
   -1.2226    2.8244   -3.3478 C   0  0  0  0  0  0  0  0  0  0  0  0
   -0.8125    4.1904   -3.2893 C   0  0  0  0  0  0  0  0  0  0  0  0
   -1.6006    5.2695   -3.5484 N   0  0  0  0  0  0  0  0  0  0  0  0
   -1.0195    6.4722   -3.3743 C   0  0  0  0  0  0  0  0  0  0  0  0
    0.2853    6.6797   -2.9696 C   0  0  0  0  0  0  0  0  0  0  0  0
    1.1096    5.5746   -2.7801 C   0  0  0  0  0  0  0  0  0  0  0  0
    2.4315    5.6538   -2.4041 O   0  0  0  0  0  0  0  0  0  0  0  0
    3.2295    6.6205   -2.9632 C   0  0  0  0  0  0  0  0  0  0  0  0
    3.0230    7.1665   -4.2301 C   0  0  0  0  0  0  0  0  0  0  0  0
    3.8296    8.2115   -4.6717 C   0  0  0  0  0  0  0  0  0  0  0  0
    4.9146    8.6509   -3.9036 C   0  0  0  0  0  0  0  0  0  0  0  0
    5.6842    9.6879   -4.4626 N   0  0  0  0  0  0  0  0  0  0  0  0
    6.9942   10.0566   -4.2911 C   0  0  0  0  0  0  0  0  0  0  0  0
    8.1897    9.3230   -3.3848 S   0  0  0  0  0  0  0  0  0  0  0  0
    7.3798   11.1562   -5.0418 N   0  0  0  0  0  0  0  0  0  0  0  0
    6.6372   11.8566   -5.9795 C   0  0  0  0  0  0  0  0  0  0  0  0
    5.4432   11.6242   -6.2047 O   0  0  0  0  0  0  0  0  0  0  0  0
    7.3917   12.9324   -6.7279 C   0  0  0  0  0  0  0  0  0  0  0  0
    7.4143   14.2248   -5.9584 C   0  0  0  0  0  0  0  0  0  0  0  0
    8.5170   14.5597   -5.1638 C   0  0  0  0  0  0  0  0  0  0  0  0
    8.4822   15.6977   -4.3588 C   0  0  0  0  0  0  0  0  0  0  0  0
    7.3511   16.5123   -4.3477 C   0  0  0  0  0  0  0  0  0  0  0  0
    6.2622   16.2052   -5.1604 C   0  0  0  0  0  0  0  0  0  0  0  0
    6.2927   15.0666   -5.9648 C   0  0  0  0  0  0  0  0  0  0  0  0
    5.1525    8.0687   -2.6618 C   0  0  0  0  0  0  0  0  0  0  0  0
    4.3161    7.0539   -2.2057 C   0  0  0  0  0  0  0  0  0  0  0  0
    4.5625    6.5055   -1.0058 F   0  0  0  0  0  0  0  0  0  0  0  0
    0.5236    4.3114   -2.9199 C   0  0  0  0  0  0  0  0  0  0  0  0
    1.2486    2.7806   -2.7160 S   0  0  0  0  0  0  0  0  0  0  0  0
    1.5190   -0.8311   -0.3828 H   0  0  0  0  0  0  0  0  0  0  0  0
    0.7690    0.7849   -0.3420 H   0  0  0  0  0  0  0  0  0  0  0  0
    2.2006    0.4568   -1.3954 H   0  0  0  0  0  0  0  0  0  0  0  0
    0.5207   -2.4613   -1.8913 H   0  0  0  0  0  0  0  0  0  0  0  0
   -1.3344   -2.3143   -3.9287 H   0  0  0  0  0  0  0  0  0  0  0  0
   -2.2219    2.5071   -3.6191 H   0  0  0  0  0  0  0  0  0  0  0  0
   -1.6637    7.3231   -3.5833 H   0  0  0  0  0  0  0  0  0  0  0  0
    0.6545    7.6908   -2.8362 H   0  0  0  0  0  0  0  0  0  0  0  0
    2.2322    6.8050   -4.8807 H   0  0  0  0  0  0  0  0  0  0  0  0
    3.6187    8.6548   -5.6433 H   0  0  0  0  0  0  0  0  0  0  0  0
    5.2151   10.1948   -5.2172 H   0  0  0  0  0  0  0  0  0  0  0  0
    8.3477   11.4208   -4.9038 H   0  0  0  0  0  0  0  0  0  0  0  0
    6.8989   13.0782   -7.6981 H   0  0  0  0  0  0  0  0  0  0  0  0
    8.4064   12.5843   -6.9545 H   0  0  0  0  0  0  0  0  0  0  0  0
    9.4063   13.9340   -5.1529 H   0  0  0  0  0  0  0  0  0  0  0  0
    9.3334   15.9439   -3.7292 H   0  0  0  0  0  0  0  0  0  0  0  0
    7.3169   17.3856   -3.7017 H   0  0  0  0  0  0  0  0  0  0  0  0
    5.3818   16.8428   -5.1554 H   0  0  0  0  0  0  0  0  0  0  0  0
    5.4262   14.8286   -6.5800 H   0  0  0  0  0  0  0  0  0  0  0  0
    5.9362    8.4086   -1.9974 H   0  0  0  0  0  0  0  0  0  0  0  0
  1  2  1  0  0  0  0
  1 37  1  0  0  0  0
  1 38  1  0  0  0  0
  1 39  1  0  0  0  0
  2  3  1  0  0  0  0
  2  6  1  0  0  0  0
  3  4  2  0  0  0  0
  3 40  1  0  0  0  0
  4  5  1  0  0  0  0
  4 41  1  0  0  0  0
  5  6  2  0  0  0  0
  6  7  1  0  0  0  0
  7  8  2  0  0  0  0
  7 36  1  0  0  0  0
  8  9  1  0  0  0  0
  8 42  1  0  0  0  0
  9 10  1  0  0  0  0
  9 35  2  0  0  0  0
 10 11  2  0  0  0  0
 11 12  1  0  0  0  0
 11 43  1  0  0  0  0
 12 13  2  0  0  0  0
 12 44  1  0  0  0  0
 13 14  1  0  0  0  0
 13 35  1  0  0  0  0
 14 15  1  0  0  0  0
 15 16  1  0  0  0  0
 15 33  2  0  0  0  0
 16 17  2  0  0  0  0
 16 45  1  0  0  0  0
 17 18  1  0  0  0  0
 17 46  1  0  0  0  0
 18 19  1  0  0  0  0
 18 32  2  0  0  0  0
 19 20  1  0  0  0  0
 19 47  1  0  0  0  0
 20 21  2  0  0  0  0
 20 22  1  0  0  0  0
 22 23  1  0  0  0  0
 22 48  1  0  0  0  0
 23 24  2  0  0  0  0
 23 25  1  0  0  0  0
 25 26  1  0  0  0  0
 25 49  1  0  0  0  0
 25 50  1  0  0  0  0
 26 27  1  0  0  0  0
 26 31  2  0  0  0  0
 27 28  2  0  0  0  0
 27 51  1  0  0  0  0
 28 29  1  0  0  0  0
 28 52  1  0  0  0  0
 29 30  2  0  0  0  0
 29 53  1  0  0  0  0
 30 31  1  0  0  0  0
 30 54  1  0  0  0  0
 31 55  1  0  0  0  0
 32 33  1  0  0  0  0
 32 56  1  0  0  0  0
 33 34  1  0  0  0  0
 35 36  1  0  0  0  0
M  END
$$$$
