CHEMBL3694703
 OpenBabel04072215373D

 52 55  0  0  0  0  0  0  0  0999 V2000
    2.5102   -2.3471   -4.7682 C   0  0  0  0  0  0  0  0  0  0  0  0
    2.9459   -2.2166   -3.3906 N   0  0  0  0  0  0  0  0  0  0  0  0
    3.2972   -0.8998   -2.9848 C   0  0  0  0  0  0  0  0  0  0  0  0
    3.2071    0.1437   -3.8326 N   0  0  0  0  0  0  0  0  0  0  0  0
    3.5125    1.3631   -3.3374 C   0  0  0  0  0  0  0  0  0  0  0  0
    3.2999    2.5655   -4.1931 C   0  0  0  0  0  0  0  0  0  0  0  0
    3.9116    3.8883   -3.8931 C   0  0  0  0  0  0  0  0  0  0  0  0
    3.9089    4.8603   -4.8335 C   0  0  0  0  0  0  0  0  0  0  0  0
    3.1237    4.6607   -5.9841 N   0  0  0  0  0  0  0  0  0  0  0  0
    2.6530    5.5434   -6.9818 C   0  0  0  0  0  0  0  0  0  0  0  0
    2.8220    5.2762   -8.4600 C   0  0  0  0  0  0  0  0  0  0  0  0
    3.8029    4.4012   -8.9389 C   0  0  0  0  0  0  0  0  0  0  0  0
    3.7459    3.9232  -10.2432 C   0  0  0  0  0  0  0  0  0  0  0  0
    2.7222    4.3180  -11.1099 C   0  0  0  0  0  0  0  0  0  0  0  0
    1.7570    5.2278  -10.6878 C   0  0  0  0  0  0  0  0  0  0  0  0
    0.6772    5.6532  -11.5307 N   0  0  0  0  0  0  0  0  0  0  0  0
    0.4216    5.2040  -12.8234 C   0  0  0  0  0  0  0  0  0  0  0  0
    1.0241    4.3377  -13.4350 O   0  0  0  0  0  0  0  0  0  0  0  0
   -0.6005    5.8976  -13.4280 N   0  0  0  0  0  0  0  0  0  0  0  0
   -0.9633    5.5401  -14.8088 C   0  0  0  0  0  0  0  0  0  0  0  0
   -1.8548    4.3004  -14.9874 C   0  0  0  0  0  0  0  0  0  0  0  0
   -2.3053    3.8289  -13.8024 F   0  0  0  0  0  0  0  0  0  0  0  0
   -2.9491    4.6272  -15.7203 F   0  0  0  0  0  0  0  0  0  0  0  0
   -1.2262    3.2987  -15.6332 F   0  0  0  0  0  0  0  0  0  0  0  0
    1.8254    5.7178   -9.3793 C   0  0  0  0  0  0  0  0  0  0  0  0
    1.3625    5.6142   -6.4376 C   0  0  0  0  0  0  0  0  0  0  0  0
    0.9811    4.3310   -6.0726 N   0  0  0  0  0  0  0  0  0  0  0  0
    2.1334    3.6854   -5.9324 C   0  0  0  0  0  0  0  0  0  0  0  0
    2.4643    2.4813   -5.2565 C   0  0  0  0  0  0  0  0  0  0  0  0
    3.9205    1.6007   -2.0759 N   0  0  0  0  0  0  0  0  0  0  0  0
    3.9988    0.5304   -1.2661 C   0  0  0  0  0  0  0  0  0  0  0  0
    3.7434   -0.7635   -1.6610 C   0  0  0  0  0  0  0  0  0  0  0  0
    3.6898   -1.8400   -0.7489 N   0  0  0  0  0  0  0  0  0  0  0  0
    2.1713   -3.3757   -4.9306 H   0  0  0  0  0  0  0  0  0  0  0  0
    3.3388   -2.1637   -5.4597 H   0  0  0  0  0  0  0  0  0  0  0  0
    1.6727   -1.6827   -5.0028 H   0  0  0  0  0  0  0  0  0  0  0  0
    2.2377   -2.5383   -2.7314 H   0  0  0  0  0  0  0  0  0  0  0  0
    4.3174    4.0494   -2.8976 H   0  0  0  0  0  0  0  0  0  0  0  0
    4.3259    5.8472   -4.6716 H   0  0  0  0  0  0  0  0  0  0  0  0
    4.5808    4.0188   -8.2775 H   0  0  0  0  0  0  0  0  0  0  0  0
    4.4776    3.1930  -10.5955 H   0  0  0  0  0  0  0  0  0  0  0  0
    2.7131    3.8773  -12.0990 H   0  0  0  0  0  0  0  0  0  0  0  0
    0.0580    6.3496  -11.1539 H   0  0  0  0  0  0  0  0  0  0  0  0
   -1.3477    6.2361  -12.8295 H   0  0  0  0  0  0  0  0  0  0  0  0
   -0.0392    5.3950  -15.3859 H   0  0  0  0  0  0  0  0  0  0  0  0
   -1.4656    6.4161  -15.2358 H   0  0  0  0  0  0  0  0  0  0  0  0
    1.0510    6.3925   -9.0284 H   0  0  0  0  0  0  0  0  0  0  0  0
    0.6241    6.3889   -6.5920 H   0  0  0  0  0  0  0  0  0  0  0  0
    1.9841    1.5652   -5.5711 H   0  0  0  0  0  0  0  0  0  0  0  0
    4.2742    0.7572   -0.2407 H   0  0  0  0  0  0  0  0  0  0  0  0
    4.3396   -1.7458    0.0258 H   0  0  0  0  0  0  0  0  0  0  0  0
    3.8226   -2.7210   -1.2492 H   0  0  0  0  0  0  0  0  0  0  0  0
  1  2  1  0  0  0  0
  1 34  1  0  0  0  0
  1 35  1  0  0  0  0
  1 36  1  0  0  0  0
  2  3  1  0  0  0  0
  2 37  1  0  0  0  0
  3  4  1  0  0  0  0
  3 32  2  0  0  0  0
  4  5  2  0  0  0  0
  5  6  1  0  0  0  0
  5 30  1  0  0  0  0
  6  7  1  0  0  0  0
  6 29  2  0  0  0  0
  7  8  2  0  0  0  0
  7 38  1  0  0  0  0
  8  9  1  0  0  0  0
  8 39  1  0  0  0  0
  9 10  1  0  0  0  0
  9 28  1  0  0  0  0
 10 11  1  0  0  0  0
 10 26  2  0  0  0  0
 11 12  1  0  0  0  0
 11 25  2  0  0  0  0
 12 13  2  0  0  0  0
 12 40  1  0  0  0  0
 13 14  1  0  0  0  0
 13 41  1  0  0  0  0
 14 15  2  0  0  0  0
 14 42  1  0  0  0  0
 15 16  1  0  0  0  0
 15 25  1  0  0  0  0
 16 17  1  0  0  0  0
 16 43  1  0  0  0  0
 17 18  2  0  0  0  0
 17 19  1  0  0  0  0
 19 20  1  0  0  0  0
 19 44  1  0  0  0  0
 20 21  1  0  0  0  0
 20 45  1  0  0  0  0
 20 46  1  0  0  0  0
 21 22  1  0  0  0  0
 21 23  1  0  0  0  0
 21 24  1  0  0  0  0
 25 47  1  0  0  0  0
 26 27  1  0  0  0  0
 26 48  1  0  0  0  0
 27 28  2  0  0  0  0
 28 29  1  0  0  0  0
 29 49  1  0  0  0  0
 30 31  2  0  0  0  0
 31 32  1  0  0  0  0
 31 50  1  0  0  0  0
 32 33  1  0  0  0  0
 33 51  1  0  0  0  0
 33 52  1  0  0  0  0
M  END
$$$$
