CHEMBL3929131
 OpenBabel04072215373D

 51 54  0  0  0  0  0  0  0  0999 V2000
    2.6307   -0.5855    1.5434 O   0  0  0  0  0  0  0  0  0  0  0  0
    2.1715   -0.7298    0.4154 C   0  0  0  0  0  0  0  0  0  0  0  0
    0.8153   -0.8531    0.1491 N   0  0  0  0  0  0  0  0  0  0  0  0
   -0.1951   -0.8413    1.1433 C   0  0  0  0  0  0  0  0  0  0  0  0
   -0.0080   -0.3921    2.4502 C   0  0  0  0  0  0  0  0  0  0  0  0
   -0.9556   -0.4337    3.4197 N   0  0  0  0  0  0  0  0  0  0  0  0
   -2.1515   -0.9520    3.0829 C   0  0  0  0  0  0  0  0  0  0  0  0
   -2.4613   -1.4060    1.8107 C   0  0  0  0  0  0  0  0  0  0  0  0
   -3.8162   -1.9757    1.5316 C   0  0  0  0  0  0  0  0  0  0  0  0
   -4.6309   -2.0127    2.6226 F   0  0  0  0  0  0  0  0  0  0  0  0
   -4.4920   -1.2692    0.5849 F   0  0  0  0  0  0  0  0  0  0  0  0
   -3.7557   -3.2549    1.0694 F   0  0  0  0  0  0  0  0  0  0  0  0
   -1.4642   -1.3295    0.8215 C   0  0  0  0  0  0  0  0  0  0  0  0
    2.9400   -0.8296   -0.7300 N   0  0  0  0  0  0  0  0  0  0  0  0
    4.3545   -0.8695   -0.7868 C   0  0  0  0  0  0  0  0  0  0  0  0
    5.1911   -0.8415    0.3368 C   0  0  0  0  0  0  0  0  0  0  0  0
    6.5847   -0.8259    0.2029 C   0  0  0  0  0  0  0  0  0  0  0  0
    7.1659   -0.8523   -1.0616 C   0  0  0  0  0  0  0  0  0  0  0  0
    8.5400   -0.7987   -1.1041 O   0  0  0  0  0  0  0  0  0  0  0  0
    9.1664   -0.0492   -2.0797 C   0  0  0  0  0  0  0  0  0  0  0  0
    8.5867    1.0216   -2.7500 C   0  0  0  0  0  0  0  0  0  0  0  0
    9.3105    1.6157   -3.7605 C   0  0  0  0  0  0  0  0  0  0  0  0
   10.5690    1.2643   -4.0728 N   0  0  0  0  0  0  0  0  0  0  0  0
   11.1602    0.2861   -3.3684 C   0  0  0  0  0  0  0  0  0  0  0  0
   12.4878   -0.0690   -3.6515 N   0  0  0  0  0  0  0  0  0  0  0  0
   13.2565    0.5307   -4.6264 C   0  0  0  0  0  0  0  0  0  0  0  0
   12.9473    1.4447   -5.3760 O   0  0  0  0  0  0  0  0  0  0  0  0
   14.6161   -0.0819   -4.7619 C   0  0  0  0  0  0  0  0  0  0  0  0
   15.6482    0.5462   -5.6742 C   0  0  0  0  0  0  0  0  0  0  0  0
   14.9888   -0.7416   -6.0713 C   0  0  0  0  0  0  0  0  0  0  0  0
   10.4885   -0.3994   -2.3626 C   0  0  0  0  0  0  0  0  0  0  0  0
    6.3339   -0.9838   -2.1754 C   0  0  0  0  0  0  0  0  0  0  0  0
    6.8459   -1.1170   -3.4067 F   0  0  0  0  0  0  0  0  0  0  0  0
    4.9446   -0.9544   -2.0494 C   0  0  0  0  0  0  0  0  0  0  0  0
    0.5519   -1.1778   -0.7692 H   0  0  0  0  0  0  0  0  0  0  0  0
    0.9247    0.0435    2.7920 H   0  0  0  0  0  0  0  0  0  0  0  0
   -2.8690   -0.9930    3.8999 H   0  0  0  0  0  0  0  0  0  0  0  0
   -1.6854   -1.6855   -0.1820 H   0  0  0  0  0  0  0  0  0  0  0  0
    2.4542   -0.7844   -1.6128 H   0  0  0  0  0  0  0  0  0  0  0  0
    4.7971   -0.8196    1.3494 H   0  0  0  0  0  0  0  0  0  0  0  0
    7.2079   -0.7843    1.0941 H   0  0  0  0  0  0  0  0  0  0  0  0
    7.5867    1.3773   -2.5381 H   0  0  0  0  0  0  0  0  0  0  0  0
    8.8871    2.4054   -4.3708 H   0  0  0  0  0  0  0  0  0  0  0  0
   12.8922   -0.8199   -3.1154 H   0  0  0  0  0  0  0  0  0  0  0  0
   15.0122   -0.5320   -3.8572 H   0  0  0  0  0  0  0  0  0  0  0  0
   16.6865    0.5177   -5.3679 H   0  0  0  0  0  0  0  0  0  0  0  0
   15.3752    1.4451   -6.2191 H   0  0  0  0  0  0  0  0  0  0  0  0
   15.5801   -1.6479   -6.0387 H   0  0  0  0  0  0  0  0  0  0  0  0
   14.2734   -0.7036   -6.8872 H   0  0  0  0  0  0  0  0  0  0  0  0
   10.9669   -1.1949   -1.8024 H   0  0  0  0  0  0  0  0  0  0  0  0
    4.3491   -1.0019   -2.9546 H   0  0  0  0  0  0  0  0  0  0  0  0
  1  2  2  0  0  0  0
  2  3  1  0  0  0  0
  2 14  1  0  0  0  0
  3  4  1  0  0  0  0
  3 35  1  0  0  0  0
  4  5  1  0  0  0  0
  4 13  2  0  0  0  0
  5  6  2  0  0  0  0
  5 36  1  0  0  0  0
  6  7  1  0  0  0  0
  7  8  2  0  0  0  0
  7 37  1  0  0  0  0
  8  9  1  0  0  0  0
  8 13  1  0  0  0  0
  9 10  1  0  0  0  0
  9 11  1  0  0  0  0
  9 12  1  0  0  0  0
 13 38  1  0  0  0  0
 14 15  1  0  0  0  0
 14 39  1  0  0  0  0
 15 16  1  0  0  0  0
 15 34  2  0  0  0  0
 16 17  2  0  0  0  0
 16 40  1  0  0  0  0
 17 18  1  0  0  0  0
 17 41  1  0  0  0  0
 18 19  1  0  0  0  0
 18 32  2  0  0  0  0
 19 20  1  0  0  0  0
 20 21  1  0  0  0  0
 20 31  2  0  0  0  0
 21 22  2  0  0  0  0
 21 42  1  0  0  0  0
 22 23  1  0  0  0  0
 22 43  1  0  0  0  0
 23 24  2  0  0  0  0
 24 25  1  0  0  0  0
 24 31  1  0  0  0  0
 25 26  1  0  0  0  0
 25 44  1  0  0  0  0
 26 27  2  0  0  0  0
 26 28  1  0  0  0  0
 28 29  1  0  0  0  0
 28 30  1  0  0  0  0
 28 45  1  0  0  0  0
 29 30  1  0  0  0  0
 29 46  1  0  0  0  0
 29 47  1  0  0  0  0
 30 48  1  0  0  0  0
 30 49  1  0  0  0  0
 31 50  1  0  0  0  0
 32 33  1  0  0  0  0
 32 34  1  0  0  0  0
 34 51  1  0  0  0  0
M  END
$$$$
