CHEMBL3908005
 OpenBabel04072215373D

 56 60  0  0  0  0  0  0  0  0999 V2000
    2.5596   -1.3903   -0.3578 O   0  0  0  0  0  0  0  0  0  0  0  0
    2.2012   -0.2274   -0.5061 C   0  0  0  0  0  0  0  0  0  0  0  0
    0.8763    0.1835   -0.4970 N   0  0  0  0  0  0  0  0  0  0  0  0
   -0.2471   -0.6661   -0.3253 C   0  0  0  0  0  0  0  0  0  0  0  0
   -0.1518   -1.9837    0.1280 C   0  0  0  0  0  0  0  0  0  0  0  0
   -1.2855   -2.7868    0.2307 C   0  0  0  0  0  0  0  0  0  0  0  0
   -2.5325   -2.2718   -0.1057 C   0  0  0  0  0  0  0  0  0  0  0  0
   -2.6804   -0.9458   -0.5416 C   0  0  0  0  0  0  0  0  0  0  0  0
   -4.0539   -0.4033   -0.8550 C   0  0  0  0  0  0  0  0  0  0  0  0
   -4.8689   -1.0595   -1.9485 C   0  0  0  0  0  0  0  0  0  0  0  0
   -4.3437    0.3302   -2.1414 C   0  0  0  0  0  0  0  0  0  0  0  0
   -1.5172   -0.1541   -0.6340 C   0  0  0  0  0  0  0  0  0  0  0  0
    3.0735    0.8302   -0.7279 N   0  0  0  0  0  0  0  0  0  0  0  0
    4.4783    0.7273   -0.9018 C   0  0  0  0  0  0  0  0  0  0  0  0
    5.1613   -0.4917   -0.9471 C   0  0  0  0  0  0  0  0  0  0  0  0
    6.5460   -0.5460   -1.1329 C   0  0  0  0  0  0  0  0  0  0  0  0
    7.2890    0.6291   -1.2239 C   0  0  0  0  0  0  0  0  0  0  0  0
    8.6619    0.6440   -1.3646 O   0  0  0  0  0  0  0  0  0  0  0  0
    9.4153   -0.3011   -0.6923 C   0  0  0  0  0  0  0  0  0  0  0  0
    9.0692   -0.8055    0.5568 C   0  0  0  0  0  0  0  0  0  0  0  0
    9.8765   -1.7733    1.1057 C   0  0  0  0  0  0  0  0  0  0  0  0
   11.0040   -2.2142    0.5157 N   0  0  0  0  0  0  0  0  0  0  0  0
   11.3794   -1.6814   -0.6582 C   0  0  0  0  0  0  0  0  0  0  0  0
   12.5824   -2.1046   -1.2520 N   0  0  0  0  0  0  0  0  0  0  0  0
   13.4287   -3.0379   -0.6838 C   0  0  0  0  0  0  0  0  0  0  0  0
   13.2771   -3.6339    0.3732 O   0  0  0  0  0  0  0  0  0  0  0  0
   14.6836   -3.3511   -1.4345 C   0  0  0  0  0  0  0  0  0  0  0  0
   15.7239   -2.2701   -1.6195 C   0  0  0  0  0  0  0  0  0  0  0  0
   15.0598   -2.8896   -2.8161 C   0  0  0  0  0  0  0  0  0  0  0  0
   10.6059   -0.7184   -1.3014 C   0  0  0  0  0  0  0  0  0  0  0  0
    6.6091    1.8463   -1.2167 C   0  0  0  0  0  0  0  0  0  0  0  0
    7.2862    2.9953   -1.3594 F   0  0  0  0  0  0  0  0  0  0  0  0
    5.2184    1.9046   -1.0567 C   0  0  0  0  0  0  0  0  0  0  0  0
    0.6813    1.1228   -0.8054 H   0  0  0  0  0  0  0  0  0  0  0  0
    0.7943   -2.4267    0.4214 H   0  0  0  0  0  0  0  0  0  0  0  0
   -1.1893   -3.8135    0.5736 H   0  0  0  0  0  0  0  0  0  0  0  0
   -3.4075   -2.9126   -0.0212 H   0  0  0  0  0  0  0  0  0  0  0  0
   -4.6153   -0.0675    0.0155 H   0  0  0  0  0  0  0  0  0  0  0  0
   -5.9305   -1.1910   -1.7740 H   0  0  0  0  0  0  0  0  0  0  0  0
   -4.4189   -1.8499   -2.5399 H   0  0  0  0  0  0  0  0  0  0  0  0
   -5.0576    1.1458   -2.1064 H   0  0  0  0  0  0  0  0  0  0  0  0
   -3.5497    0.4685   -2.8655 H   0  0  0  0  0  0  0  0  0  0  0  0
   -1.6227    0.8737   -0.9720 H   0  0  0  0  0  0  0  0  0  0  0  0
    2.6842    1.7595   -0.7010 H   0  0  0  0  0  0  0  0  0  0  0  0
    4.6531   -1.4449   -0.8444 H   0  0  0  0  0  0  0  0  0  0  0  0
    7.0206   -1.5227   -1.1819 H   0  0  0  0  0  0  0  0  0  0  0  0
    8.1844   -0.4840    1.0938 H   0  0  0  0  0  0  0  0  0  0  0  0
    9.6382   -2.2489    2.0499 H   0  0  0  0  0  0  0  0  0  0  0  0
   12.8482   -1.6760   -2.1212 H   0  0  0  0  0  0  0  0  0  0  0  0
   15.0658   -4.3335   -1.1611 H   0  0  0  0  0  0  0  0  0  0  0  0
   16.7516   -2.5335   -1.3964 H   0  0  0  0  0  0  0  0  0  0  0  0
   15.4651   -1.2508   -1.3567 H   0  0  0  0  0  0  0  0  0  0  0  0
   15.6527   -3.5727   -3.4180 H   0  0  0  0  0  0  0  0  0  0  0  0
   14.3831   -2.2852   -3.4034 H   0  0  0  0  0  0  0  0  0  0  0  0
   10.9010   -0.3011   -2.2583 H   0  0  0  0  0  0  0  0  0  0  0  0
    4.7426    2.8803   -1.0548 H   0  0  0  0  0  0  0  0  0  0  0  0
  1  2  2  0  0  0  0
  2  3  1  0  0  0  0
  2 13  1  0  0  0  0
  3  4  1  0  0  0  0
  3 34  1  0  0  0  0
  4  5  1  0  0  0  0
  4 12  2  0  0  0  0
  5  6  2  0  0  0  0
  5 35  1  0  0  0  0
  6  7  1  0  0  0  0
  6 36  1  0  0  0  0
  7  8  2  0  0  0  0
  7 37  1  0  0  0  0
  8  9  1  0  0  0  0
  8 12  1  0  0  0  0
  9 10  1  0  0  0  0
  9 11  1  0  0  0  0
  9 38  1  0  0  0  0
 10 11  1  0  0  0  0
 10 39  1  0  0  0  0
 10 40  1  0  0  0  0
 11 41  1  0  0  0  0
 11 42  1  0  0  0  0
 12 43  1  0  0  0  0
 13 14  1  0  0  0  0
 13 44  1  0  0  0  0
 14 15  1  0  0  0  0
 14 33  2  0  0  0  0
 15 16  2  0  0  0  0
 15 45  1  0  0  0  0
 16 17  1  0  0  0  0
 16 46  1  0  0  0  0
 17 18  1  0  0  0  0
 17 31  2  0  0  0  0
 18 19  1  0  0  0  0
 19 20  1  0  0  0  0
 19 30  2  0  0  0  0
 20 21  2  0  0  0  0
 20 47  1  0  0  0  0
 21 22  1  0  0  0  0
 21 48  1  0  0  0  0
 22 23  2  0  0  0  0
 23 24  1  0  0  0  0
 23 30  1  0  0  0  0
 24 25  1  0  0  0  0
 24 49  1  0  0  0  0
 25 26  2  0  0  0  0
 25 27  1  0  0  0  0
 27 28  1  0  0  0  0
 27 29  1  0  0  0  0
 27 50  1  0  0  0  0
 28 29  1  0  0  0  0
 28 51  1  0  0  0  0
 28 52  1  0  0  0  0
 29 53  1  0  0  0  0
 29 54  1  0  0  0  0
 30 55  1  0  0  0  0
 31 32  1  0  0  0  0
 31 33  1  0  0  0  0
 33 56  1  0  0  0  0
M  END
$$$$
