CHEMBL1969483
 OpenBabel04072215363D

 80 86  0  0  0  0  0  0  0  0999 V2000
    2.5968    0.5426   -1.7811 C   0  0  0  0  0  0  0  0  0  0  0  0
    2.5047   -0.0026   -0.4267 N   0  0  0  0  0  0  0  0  0  0  0  0
    1.7431    0.7288    0.5608 C   0  0  0  0  0  0  0  0  0  0  0  0
    3.2373   -1.1475   -0.1289 C   0  0  0  0  0  0  0  0  0  0  0  0
    3.3568   -2.1395   -1.1300 C   0  0  0  0  0  0  0  0  0  0  0  0
    4.1093   -3.3003   -0.9806 C   0  0  0  0  0  0  0  0  0  0  0  0
    4.8123   -3.5108    0.1967 C   0  0  0  0  0  0  0  0  0  0  0  0
    5.5335   -4.7623    0.3727 C   0  0  0  0  0  0  0  0  0  0  0  0
    6.1064   -5.4402   -0.6976 N   0  0  0  0  0  0  0  0  0  0  0  0
    6.6136   -6.5011   -0.1384 C   0  0  0  0  0  0  0  0  0  0  0  0
    7.4854   -7.8874   -0.7143 S   0  0  0  0  0  0  0  0  0  0  0  0
    7.5258   -8.5044    0.9486 C   0  0  0  0  0  0  0  0  0  0  0  0
    6.9090   -7.6906    1.8301 C   0  0  0  0  0  0  0  0  0  0  0  0
    6.4009   -6.5724    1.2049 N   0  0  0  0  0  0  0  0  0  0  0  0
    5.6696   -5.4693    1.5708 C   0  0  0  0  0  0  0  0  0  0  0  0
    5.1235   -5.2645    2.9006 C   0  0  0  0  0  0  0  0  0  0  0  0
    5.7851   -5.6738    4.0402 C   0  0  0  0  0  0  0  0  0  0  0  0
    5.1288   -5.4625    5.2024 C   0  0  0  0  0  0  0  0  0  0  0  0
    3.9407   -4.8526    5.2574 N   0  0  0  0  0  0  0  0  0  0  0  0
    3.3742   -4.4338    4.1200 C   0  0  0  0  0  0  0  0  0  0  0  0
    2.1649   -3.7451    4.1613 N   0  0  0  0  0  0  0  0  0  0  0  0
    1.6159   -3.0043    5.2183 C   0  0  0  0  0  0  0  0  0  0  0  0
    2.3102   -2.7878    6.4157 C   0  0  0  0  0  0  0  0  0  0  0  0
    1.7467   -2.0965    7.4724 C   0  0  0  0  0  0  0  0  0  0  0  0
    0.4709   -1.5836    7.3322 C   0  0  0  0  0  0  0  0  0  0  0  0
   -0.2637   -1.7386    6.1468 C   0  0  0  0  0  0  0  0  0  0  0  0
   -1.4959   -1.1314    6.0070 N   0  0  0  0  0  0  0  0  0  0  0  0
   -1.7820    0.1517    6.6566 C   0  0  0  0  0  0  0  0  0  0  0  0
   -3.0557    0.0116    7.4994 C   0  0  0  0  0  0  0  0  0  0  0  0
   -4.1538   -0.4545    6.7067 O   0  0  0  0  0  0  0  0  0  0  0  0
   -3.8525   -1.7477    6.1493 C   0  0  0  0  0  0  0  0  0  0  0  0
   -2.6051   -1.7104    5.2476 C   0  0  0  0  0  0  0  0  0  0  0  0
    0.3138   -2.4964    5.1157 C   0  0  0  0  0  0  0  0  0  0  0  0
    3.9155   -4.6719    2.9255 N   0  0  0  0  0  0  0  0  0  0  0  0
    4.7394   -2.5316    1.2020 C   0  0  0  0  0  0  0  0  0  0  0  0
    3.9157   -1.3990    1.0863 C   0  0  0  0  0  0  0  0  0  0  0  0
    3.7470   -0.6344    2.2743 N   0  0  0  0  0  0  0  0  0  0  0  0
    4.5764    0.4521    2.5484 C   0  0  0  0  0  0  0  0  0  0  0  0
    5.5905    0.7234    1.9139 O   0  0  0  0  0  0  0  0  0  0  0  0
    4.1527    1.2670    3.7804 C   0  0  0  0  0  0  0  0  0  0  0  0
    3.9007    2.7464    3.5363 C   0  0  0  0  0  0  0  0  0  0  0  0
    2.6426    3.3117    3.8061 C   0  0  0  0  0  0  0  0  0  0  0  0
    2.4068    4.6782    3.6028 C   0  0  0  0  0  0  0  0  0  0  0  0
    3.4298    5.5097    3.1622 C   0  0  0  0  0  0  0  0  0  0  0  0
    4.6920    4.9683    2.9144 C   0  0  0  0  0  0  0  0  0  0  0  0
    4.9265    3.5995    3.1001 C   0  0  0  0  0  0  0  0  0  0  0  0
    1.8806    1.3542   -1.9364 H   0  0  0  0  0  0  0  0  0  0  0  0
    2.3456   -0.2007   -2.5423 H   0  0  0  0  0  0  0  0  0  0  0  0
    3.6018    0.9246   -1.9960 H   0  0  0  0  0  0  0  0  0  0  0  0
    1.1610    1.5340    0.1040 H   0  0  0  0  0  0  0  0  0  0  0  0
    2.3662    1.2059    1.3169 H   0  0  0  0  0  0  0  0  0  0  0  0
    1.0336    0.0508    1.0467 H   0  0  0  0  0  0  0  0  0  0  0  0
    2.8176   -2.0500   -2.0675 H   0  0  0  0  0  0  0  0  0  0  0  0
    4.1241   -4.0352   -1.7814 H   0  0  0  0  0  0  0  0  0  0  0  0
    7.9981   -9.4453    1.1966 H   0  0  0  0  0  0  0  0  0  0  0  0
    6.8086   -7.8883    2.8770 H   0  0  0  0  0  0  0  0  0  0  0  0
    6.7538   -6.1403    4.0380 H   0  0  0  0  0  0  0  0  0  0  0  0
    5.5411   -5.7688    6.1545 H   0  0  0  0  0  0  0  0  0  0  0  0
    1.7620   -3.6404    3.2416 H   0  0  0  0  0  0  0  0  0  0  0  0
    3.3212   -3.1478    6.5616 H   0  0  0  0  0  0  0  0  0  0  0  0
    2.3003   -1.9653    8.3965 H   0  0  0  0  0  0  0  0  0  0  0  0
    0.0462   -1.0720    8.1900 H   0  0  0  0  0  0  0  0  0  0  0  0
   -1.9271    0.8995    5.8671 H   0  0  0  0  0  0  0  0  0  0  0  0
   -0.9614    0.5209    7.2799 H   0  0  0  0  0  0  0  0  0  0  0  0
   -3.3214    0.9991    7.9035 H   0  0  0  0  0  0  0  0  0  0  0  0
   -2.8957   -0.6632    8.3437 H   0  0  0  0  0  0  0  0  0  0  0  0
   -4.7224   -2.0682    5.5674 H   0  0  0  0  0  0  0  0  0  0  0  0
   -3.7161   -2.4626    6.9703 H   0  0  0  0  0  0  0  0  0  0  0  0
   -2.7957   -1.0748    4.3748 H   0  0  0  0  0  0  0  0  0  0  0  0
   -2.3981   -2.7251    4.8907 H   0  0  0  0  0  0  0  0  0  0  0  0
   -0.2396   -2.6564    4.1947 H   0  0  0  0  0  0  0  0  0  0  0  0
    5.2757   -2.6750    2.1355 H   0  0  0  0  0  0  0  0  0  0  0  0
    2.7874   -0.5153    2.5647 H   0  0  0  0  0  0  0  0  0  0  0  0
    4.9475    1.1665    4.5317 H   0  0  0  0  0  0  0  0  0  0  0  0
    3.2610    0.8153    4.2318 H   0  0  0  0  0  0  0  0  0  0  0  0
    1.8325    2.6992    4.1944 H   0  0  0  0  0  0  0  0  0  0  0  0
    1.4228    5.0946    3.8048 H   0  0  0  0  0  0  0  0  0  0  0  0
    3.2512    6.5702    3.0077 H   0  0  0  0  0  0  0  0  0  0  0  0
    5.5009    5.6155    2.5777 H   0  0  0  0  0  0  0  0  0  0  0  0
    5.9231    3.2057    2.9020 H   0  0  0  0  0  0  0  0  0  0  0  0
  1  2  1  0  0  0  0
  1 47  1  0  0  0  0
  1 48  1  0  0  0  0
  1 49  1  0  0  0  0
  2  3  1  0  0  0  0
  2  4  1  0  0  0  0
  3 50  1  0  0  0  0
  3 51  1  0  0  0  0
  3 52  1  0  0  0  0
  4  5  1  0  0  0  0
  4 36  2  0  0  0  0
  5  6  2  0  0  0  0
  5 53  1  0  0  0  0
  6  7  1  0  0  0  0
  6 54  1  0  0  0  0
  7  8  1  0  0  0  0
  7 35  2  0  0  0  0
  8  9  1  0  0  0  0
  8 15  2  0  0  0  0
  9 10  2  0  0  0  0
 10 11  1  0  0  0  0
 10 14  1  0  0  0  0
 11 12  1  0  0  0  0
 12 13  2  0  0  0  0
 12 55  1  0  0  0  0
 13 14  1  0  0  0  0
 13 56  1  0  0  0  0
 14 15  1  0  0  0  0
 15 16  1  0  0  0  0
 16 17  1  0  0  0  0
 16 34  2  0  0  0  0
 17 18  2  0  0  0  0
 17 57  1  0  0  0  0
 18 19  1  0  0  0  0
 18 58  1  0  0  0  0
 19 20  2  0  0  0  0
 20 21  1  0  0  0  0
 20 34  1  0  0  0  0
 21 22  1  0  0  0  0
 21 59  1  0  0  0  0
 22 23  1  0  0  0  0
 22 33  2  0  0  0  0
 23 24  2  0  0  0  0
 23 60  1  0  0  0  0
 24 25  1  0  0  0  0
 24 61  1  0  0  0  0
 25 26  2  0  0  0  0
 25 62  1  0  0  0  0
 26 27  1  0  0  0  0
 26 33  1  0  0  0  0
 27 28  1  0  0  0  0
 27 32  1  0  0  0  0
 28 29  1  0  0  0  0
 28 63  1  0  0  0  0
 28 64  1  0  0  0  0
 29 30  1  0  0  0  0
 29 65  1  0  0  0  0
 29 66  1  0  0  0  0
 30 31  1  0  0  0  0
 31 32  1  0  0  0  0
 31 67  1  0  0  0  0
 31 68  1  0  0  0  0
 32 69  1  0  0  0  0
 32 70  1  0  0  0  0
 33 71  1  0  0  0  0
 35 36  1  0  0  0  0
 35 72  1  0  0  0  0
 36 37  1  0  0  0  0
 37 38  1  0  0  0  0
 37 73  1  0  0  0  0
 38 39  2  0  0  0  0
 38 40  1  0  0  0  0
 40 41  1  0  0  0  0
 40 74  1  0  0  0  0
 40 75  1  0  0  0  0
 41 42  1  0  0  0  0
 41 46  2  0  0  0  0
 42 43  2  0  0  0  0
 42 76  1  0  0  0  0
 43 44  1  0  0  0  0
 43 77  1  0  0  0  0
 44 45  2  0  0  0  0
 44 78  1  0  0  0  0
 45 46  1  0  0  0  0
 45 79  1  0  0  0  0
 46 80  1  0  0  0  0
M  END
$$$$
