CHEMBL234202
 OpenBabel04072215363D

 38 40  0  0  0  0  0  0  0  0999 V2000
    2.3745    0.1077    1.0502 O   0  0  0  0  0  0  0  0  0  0  0  0
    2.1203    0.0822   -0.1528 C   0  0  0  0  0  0  0  0  0  0  0  0
    1.0638    0.7588   -0.7457 N   0  0  0  0  0  0  0  0  0  0  0  0
    0.0792    1.5238   -0.0809 C   0  0  0  0  0  0  0  0  0  0  0  0
    0.2274    1.9659    1.2383 C   0  0  0  0  0  0  0  0  0  0  0  0
   -0.8123    2.6267    1.8980 C   0  0  0  0  0  0  0  0  0  0  0  0
   -2.0102    2.8616    1.2355 C   0  0  0  0  0  0  0  0  0  0  0  0
   -3.3123    3.6132    2.0698 Cl  0  0  0  0  0  0  0  0  0  0  0  0
   -2.1581    2.4794   -0.0968 C   0  0  0  0  0  0  0  0  0  0  0  0
   -1.1095    1.8242   -0.7585 C   0  0  0  0  0  0  0  0  0  0  0  0
    2.8929   -0.7239   -1.0938 C   0  0  0  0  0  0  0  0  0  0  0  0
    2.6728   -0.6765   -2.4029 N   0  0  0  0  0  0  0  0  0  0  0  0
    3.5336   -1.5801   -2.9654 C   0  0  0  0  0  0  0  0  0  0  0  0
    4.2770   -2.2065   -1.9985 C   0  0  0  0  0  0  0  0  0  0  0  0
    3.8922   -1.6378   -0.8085 N   0  0  0  0  0  0  0  0  0  0  0  0
    4.4146   -2.0426    0.4909 C   0  0  0  0  0  0  0  0  0  0  0  0
    5.9408   -1.9287    0.5940 C   0  0  0  0  0  0  0  0  0  0  0  0
    6.4812   -2.3517    1.9398 C   0  0  0  0  0  0  0  0  0  0  0  0
    6.9356   -3.6568    2.1550 C   0  0  0  0  0  0  0  0  0  0  0  0
    7.4574   -3.9861    3.3982 C   0  0  0  0  0  0  0  0  0  0  0  0
    7.5491   -3.1196    4.4284 N   0  0  0  0  0  0  0  0  0  0  0  0
    7.0961   -1.8677    4.2054 C   0  0  0  0  0  0  0  0  0  0  0  0
    6.5580   -1.4430    2.9989 C   0  0  0  0  0  0  0  0  0  0  0  0
    0.9383    0.5553   -1.7351 H   0  0  0  0  0  0  0  0  0  0  0  0
    1.1502    1.8161    1.7891 H   0  0  0  0  0  0  0  0  0  0  0  0
   -0.6760    2.9372    2.9303 H   0  0  0  0  0  0  0  0  0  0  0  0
   -3.0930    2.6708   -0.6176 H   0  0  0  0  0  0  0  0  0  0  0  0
   -1.2572    1.5170   -1.7911 H   0  0  0  0  0  0  0  0  0  0  0  0
    3.5660   -1.7446   -4.0349 H   0  0  0  0  0  0  0  0  0  0  0  0
    5.0278   -2.9828   -2.0587 H   0  0  0  0  0  0  0  0  0  0  0  0
    4.0872   -3.0779    0.6438 H   0  0  0  0  0  0  0  0  0  0  0  0
    3.9543   -1.4453    1.2761 H   0  0  0  0  0  0  0  0  0  0  0  0
    6.2560   -0.8976    0.3889 H   0  0  0  0  0  0  0  0  0  0  0  0
    6.4231   -2.5395   -0.1793 H   0  0  0  0  0  0  0  0  0  0  0  0
    6.9038   -4.4073    1.3723 H   0  0  0  0  0  0  0  0  0  0  0  0
    7.8331   -4.9851    3.6024 H   0  0  0  0  0  0  0  0  0  0  0  0
    7.1855   -1.1884    5.0489 H   0  0  0  0  0  0  0  0  0  0  0  0
    6.2204   -0.4174    2.8926 H   0  0  0  0  0  0  0  0  0  0  0  0
  1  2  2  0  0  0  0
  2  3  1  0  0  0  0
  2 11  1  0  0  0  0
  3  4  1  0  0  0  0
  3 24  1  0  0  0  0
  4  5  1  0  0  0  0
  4 10  2  0  0  0  0
  5  6  2  0  0  0  0
  5 25  1  0  0  0  0
  6  7  1  0  0  0  0
  6 26  1  0  0  0  0
  7  8  1  0  0  0  0
  7  9  2  0  0  0  0
  9 10  1  0  0  0  0
  9 27  1  0  0  0  0
 10 28  1  0  0  0  0
 11 12  2  0  0  0  0
 11 15  1  0  0  0  0
 12 13  1  0  0  0  0
 13 14  2  0  0  0  0
 13 29  1  0  0  0  0
 14 15  1  0  0  0  0
 14 30  1  0  0  0  0
 15 16  1  0  0  0  0
 16 17  1  0  0  0  0
 16 31  1  0  0  0  0
 16 32  1  0  0  0  0
 17 18  1  0  0  0  0
 17 33  1  0  0  0  0
 17 34  1  0  0  0  0
 18 19  1  0  0  0  0
 18 23  2  0  0  0  0
 19 20  2  0  0  0  0
 19 35  1  0  0  0  0
 20 21  1  0  0  0  0
 20 36  1  0  0  0  0
 21 22  2  0  0  0  0
 22 23  1  0  0  0  0
 22 37  1  0  0  0  0
 23 38  1  0  0  0  0
M  END
$$$$
