CHEMBL4091975
 OpenBabel04072215383D

 48 52  0  0  0  0  0  0  0  0999 V2000
   -0.8146    2.3623   -3.3583 C   0  0  0  0  0  0  0  0  0  0  0  0
   -1.0932    1.1315   -2.5703 C   0  0  0  0  0  0  0  0  0  0  0  0
   -1.4537    0.0269   -3.2454 N   0  0  0  0  0  0  0  0  0  0  0  0
   -1.6629   -0.8844   -2.2806 N   0  0  0  0  0  0  0  0  0  0  0  0
   -1.4422   -0.4166   -1.0201 C   0  0  0  0  0  0  0  0  0  0  0  0
   -1.5907   -1.1422    0.1033 N   0  0  0  0  0  0  0  0  0  0  0  0
   -1.3295   -0.4309    1.2175 C   0  0  0  0  0  0  0  0  0  0  0  0
   -0.9306    0.8993    1.2542 C   0  0  0  0  0  0  0  0  0  0  0  0
   -0.7612    1.6320    0.0726 C   0  0  0  0  0  0  0  0  0  0  0  0
   -0.3106    3.0385    0.0829 C   0  0  0  0  0  0  0  0  0  0  0  0
    0.5324    3.5189   -0.9180 C   0  0  0  0  0  0  0  0  0  0  0  0
    0.8259    4.8747   -1.1119 C   0  0  0  0  0  0  0  0  0  0  0  0
    0.4360    5.8670   -0.2316 C   0  0  0  0  0  0  0  0  0  0  0  0
    0.8270    7.2396   -0.3379 N   0  0  0  0  0  0  0  0  0  0  0  0
    1.5577    7.7960   -1.3501 C   0  0  0  0  0  0  0  0  0  0  0  0
    1.9855    7.1708   -2.3250 O   0  0  0  0  0  0  0  0  0  0  0  0
    1.7735    9.1451   -1.4190 N   0  0  0  0  0  0  0  0  0  0  0  0
    1.6451   10.3592   -0.6756 C   0  0  0  0  0  0  0  0  0  0  0  0
    1.3611   10.5633    0.6615 C   0  0  0  0  0  0  0  0  0  0  0  0
    1.1051   11.7839    1.1999 N   0  0  0  0  0  0  0  0  0  0  0  0
    0.8521   12.7752    0.3721 C   0  0  0  0  0  0  0  0  0  0  0  0
    0.0155   13.7359    0.8829 C   0  0  0  0  0  0  0  0  0  0  0  0
   -0.5043   14.7221    0.0804 C   0  0  0  0  0  0  0  0  0  0  0  0
   -0.1175   14.8006   -1.2560 C   0  0  0  0  0  0  0  0  0  0  0  0
    0.7653   13.8534   -1.7931 C   0  0  0  0  0  0  0  0  0  0  0  0
    1.2178   12.7535   -0.9846 C   0  0  0  0  0  0  0  0  0  0  0  0
    1.7515   11.5516   -1.4519 C   0  0  0  0  0  0  0  0  0  0  0  0
   -0.3648    5.3954    0.8440 C   0  0  0  0  0  0  0  0  0  0  0  0
   -0.7059    4.0134    1.0022 C   0  0  0  0  0  0  0  0  0  0  0  0
   -1.0552    0.9193   -1.1421 C   0  0  0  0  0  0  0  0  0  0  0  0
   -0.9776    2.2217   -4.4289 H   0  0  0  0  0  0  0  0  0  0  0  0
    0.2350    2.6515   -3.2990 H   0  0  0  0  0  0  0  0  0  0  0  0
   -1.4449    3.1872   -3.0104 H   0  0  0  0  0  0  0  0  0  0  0  0
   -1.9679   -1.8132   -2.5428 H   0  0  0  0  0  0  0  0  0  0  0  0
   -1.4544   -0.9835    2.1461 H   0  0  0  0  0  0  0  0  0  0  0  0
   -0.7242    1.3570    2.2175 H   0  0  0  0  0  0  0  0  0  0  0  0
    1.0092    2.8082   -1.5780 H   0  0  0  0  0  0  0  0  0  0  0  0
    1.4159    5.1057   -1.9887 H   0  0  0  0  0  0  0  0  0  0  0  0
    0.5644    7.8610    0.4168 H   0  0  0  0  0  0  0  0  0  0  0  0
    2.0430    9.3125   -2.3863 H   0  0  0  0  0  0  0  0  0  0  0  0
    1.2126    9.8160    1.4450 H   0  0  0  0  0  0  0  0  0  0  0  0
   -0.3255   13.5999    1.9122 H   0  0  0  0  0  0  0  0  0  0  0  0
   -1.2836   15.3668    0.4820 H   0  0  0  0  0  0  0  0  0  0  0  0
   -0.5566   15.5663   -1.8900 H   0  0  0  0  0  0  0  0  0  0  0  0
    1.0129   13.8975   -2.8524 H   0  0  0  0  0  0  0  0  0  0  0  0
    2.1102   11.4903   -2.4832 H   0  0  0  0  0  0  0  0  0  0  0  0
   -0.7299    6.0764    1.6000 H   0  0  0  0  0  0  0  0  0  0  0  0
   -1.3010    3.7010    1.8772 H   0  0  0  0  0  0  0  0  0  0  0  0
  1  2  1  0  0  0  0
  1 31  1  0  0  0  0
  1 32  1  0  0  0  0
  1 33  1  0  0  0  0
  2  3  2  0  0  0  0
  2 30  1  0  0  0  0
  3  4  1  0  0  0  0
  4  5  1  0  0  0  0
  4 34  1  0  0  0  0
  5  6  1  0  0  0  0
  5 30  2  0  0  0  0
  6  7  2  0  0  0  0
  7  8  1  0  0  0  0
  7 35  1  0  0  0  0
  8  9  2  0  0  0  0
  8 36  1  0  0  0  0
  9 10  1  0  0  0  0
  9 30  1  0  0  0  0
 10 11  1  0  0  0  0
 10 29  2  0  0  0  0
 11 12  2  0  0  0  0
 11 37  1  0  0  0  0
 12 13  1  0  0  0  0
 12 38  1  0  0  0  0
 13 14  1  0  0  0  0
 13 28  2  0  0  0  0
 14 15  1  0  0  0  0
 14 39  1  0  0  0  0
 15 16  2  0  0  0  0
 15 17  1  0  0  0  0
 17 18  1  0  0  0  0
 17 40  1  0  0  0  0
 18 19  1  0  0  0  0
 18 27  2  0  0  0  0
 19 20  2  0  0  0  0
 19 41  1  0  0  0  0
 20 21  1  0  0  0  0
 21 22  1  0  0  0  0
 21 26  2  0  0  0  0
 22 23  2  0  0  0  0
 22 42  1  0  0  0  0
 23 24  1  0  0  0  0
 23 43  1  0  0  0  0
 24 25  2  0  0  0  0
 24 44  1  0  0  0  0
 25 26  1  0  0  0  0
 25 45  1  0  0  0  0
 26 27  1  0  0  0  0
 27 46  1  0  0  0  0
 28 29  1  0  0  0  0
 28 47  1  0  0  0  0
 29 48  1  0  0  0  0
M  END
$$$$
