CHEMBL3972998
 OpenBabel04072215373D

 65 68  0  0  1  0  0  0  0  0999 V2000
    5.7649    3.9369   -3.4917 C   0  0  0  0  0  0  0  0  0  0  0  0
    4.6980    3.0051   -3.3527 O   0  0  0  0  0  0  0  0  0  0  0  0
    4.4066    2.6733   -1.9733 C   0  0  0  0  0  0  0  0  0  0  0  0
    3.3322    1.5675   -1.9594 C   0  0  2  0  0  0  0  0  0  0  0  0
    2.9397    0.9876   -0.5634 C   0  0  0  0  0  0  0  0  0  0  0  0
    2.2364    1.8724    0.4539 N   0  0  0  0  0  0  0  0  0  0  0  0
    3.0947    2.5801    1.3398 C   0  0  0  0  0  0  0  0  0  0  0  0
    2.8048    3.8748    1.8101 C   0  0  0  0  0  0  0  0  0  0  0  0
    3.7150    4.5794    2.6264 C   0  0  0  0  0  0  0  0  0  0  0  0
    3.5649    5.8392    3.1425 O   0  0  0  0  0  0  0  0  0  0  0  0
    2.3503    6.5225    2.8863 C   0  0  0  0  0  0  0  0  0  0  0  0
    4.9312    3.9976    2.9927 C   0  0  0  0  0  0  0  0  0  0  0  0
    5.2338    2.7179    2.5664 C   0  0  0  0  0  0  0  0  0  0  0  0
    6.3845    2.0456    2.8764 O   0  0  0  0  0  0  0  0  0  0  0  0
    6.8053    2.2159    4.2274 C   0  0  0  0  0  0  0  0  0  0  0  0
    4.3390    2.0393    1.7391 C   0  0  0  0  0  0  0  0  0  0  0  0
    0.7994    1.7830    0.4593 C   0  0  0  0  0  0  0  0  0  0  0  0
    0.1709    1.5207   -0.7572 C   0  0  0  0  0  0  0  0  0  0  0  0
   -1.1989    1.5619   -0.9126 C   0  0  0  0  0  0  0  0  0  0  0  0
   -2.0485    1.7576    0.1458 C   0  0  0  0  0  0  0  0  0  0  0  0
   -3.3070    1.8402   -0.2541 N   0  0  0  0  0  0  0  0  0  0  0  0
   -4.2378    1.8290    0.6974 C   0  0  0  0  0  0  0  0  0  0  0  0
   -3.9156    1.6771    2.0315 C   0  0  0  0  0  0  0  0  0  0  0  0
   -5.0644    1.3795    2.8899 C   0  0  0  0  0  0  0  0  0  0  0  0
   -5.5560    0.1230    3.3456 C   0  0  0  0  0  0  0  0  0  0  0  0
   -6.8053    0.1885    3.8292 N   0  0  0  0  0  0  0  0  0  0  0  0
   -7.1379    1.4790    3.6623 N   0  0  0  0  0  0  0  0  0  0  0  0
   -8.3276    2.0239    4.2751 C   0  0  0  0  0  0  0  0  0  0  0  0
   -6.1989    2.1811    2.9590 C   0  0  0  0  0  0  0  0  0  0  0  0
   -2.5960    1.6971    2.4580 N   0  0  0  0  0  0  0  0  0  0  0  0
   -1.5762    1.7780    1.4759 C   0  0  0  0  0  0  0  0  0  0  0  0
   -0.1118    1.8761    1.5874 C   0  0  0  0  0  0  0  0  0  0  0  0
    3.9383    0.4581   -2.7145 O   0  0  0  0  0  0  0  0  0  0  0  0
    3.1053   -0.3595   -3.4085 C   0  0  0  0  0  0  0  0  0  0  0  0
    3.8777   -1.4098   -4.1528 C   0  0  0  0  0  0  0  0  0  0  0  0
    1.8849   -0.2912   -3.3917 O   0  0  0  0  0  0  0  0  0  0  0  0
    6.0018    4.0394   -4.5573 H   0  0  0  0  0  0  0  0  0  0  0  0
    6.6649    3.5822   -2.9777 H   0  0  0  0  0  0  0  0  0  0  0  0
    5.4680    4.9138   -3.1071 H   0  0  0  0  0  0  0  0  0  0  0  0
    4.0561    3.5770   -1.4680 H   0  0  0  0  0  0  0  0  0  0  0  0
    5.3298    2.3098   -1.5112 H   0  0  0  0  0  0  0  0  0  0  0  0
    2.4702    1.9419   -2.5235 H   0  0  0  0  0  0  0  0  0  0  0  0
    2.3282    0.0870   -0.7229 H   0  0  0  0  0  0  0  0  0  0  0  0
    3.8460    0.5277   -0.1666 H   0  0  0  0  0  0  0  0  0  0  0  0
    1.8783    4.3453    1.4947 H   0  0  0  0  0  0  0  0  0  0  0  0
    2.3619    7.4434    3.4797 H   0  0  0  0  0  0  0  0  0  0  0  0
    1.4842    5.9356    3.2037 H   0  0  0  0  0  0  0  0  0  0  0  0
    2.2835    6.8035    1.8317 H   0  0  0  0  0  0  0  0  0  0  0  0
    5.6260    4.5613    3.6091 H   0  0  0  0  0  0  0  0  0  0  0  0
    7.4278    1.3560    4.4931 H   0  0  0  0  0  0  0  0  0  0  0  0
    5.9584    2.2385    4.9230 H   0  0  0  0  0  0  0  0  0  0  0  0
    7.4127    3.1204    4.3234 H   0  0  0  0  0  0  0  0  0  0  0  0
    4.6437    1.0330    1.4676 H   0  0  0  0  0  0  0  0  0  0  0  0
    0.7147    1.3039   -1.6645 H   0  0  0  0  0  0  0  0  0  0  0  0
   -1.6198    1.4015   -1.8944 H   0  0  0  0  0  0  0  0  0  0  0  0
   -5.2559    1.8836    0.3404 H   0  0  0  0  0  0  0  0  0  0  0  0
   -5.0811   -0.8489    3.2984 H   0  0  0  0  0  0  0  0  0  0  0  0
   -8.8477    1.2480    4.8433 H   0  0  0  0  0  0  0  0  0  0  0  0
   -8.9846    2.4337    3.5038 H   0  0  0  0  0  0  0  0  0  0  0  0
   -8.0032    2.8170    4.9548 H   0  0  0  0  0  0  0  0  0  0  0  0
   -6.4157    3.1699    2.5796 H   0  0  0  0  0  0  0  0  0  0  0  0
    0.3093    1.9701    2.5919 H   0  0  0  0  0  0  0  0  0  0  0  0
    4.9239   -1.1134   -4.2694 H   0  0  0  0  0  0  0  0  0  0  0  0
    3.4528   -1.5306   -5.1537 H   0  0  0  0  0  0  0  0  0  0  0  0
    3.8292   -2.3561   -3.6075 H   0  0  0  0  0  0  0  0  0  0  0  0
  1  2  1  0  0  0  0
  1 37  1  0  0  0  0
  1 38  1  0  0  0  0
  1 39  1  0  0  0  0
  2  3  1  0  0  0  0
  3 40  1  0  0  0  0
  3 41  1  0  0  0  0
  4 33  1  0  0  0  0
  4  5  1  0  0  0  0
  4  3  1  0  0  0  0
  4 42  1  6  0  0  0
  5  6  1  0  0  0  0
  5 43  1  0  0  0  0
  5 44  1  0  0  0  0
  6  7  1  0  0  0  0
  6 17  1  0  0  0  0
  7  8  1  0  0  0  0
  7 16  2  0  0  0  0
  8  9  2  0  0  0  0
  8 45  1  0  0  0  0
  9 10  1  0  0  0  0
  9 12  1  0  0  0  0
 10 11  1  0  0  0  0
 11 46  1  0  0  0  0
 11 47  1  0  0  0  0
 11 48  1  0  0  0  0
 12 13  2  0  0  0  0
 12 49  1  0  0  0  0
 13 14  1  0  0  0  0
 13 16  1  0  0  0  0
 14 15  1  0  0  0  0
 15 50  1  0  0  0  0
 15 51  1  0  0  0  0
 15 52  1  0  0  0  0
 16 53  1  0  0  0  0
 17 18  1  0  0  0  0
 17 32  2  0  0  0  0
 18 19  2  0  0  0  0
 18 54  1  0  0  0  0
 19 20  1  0  0  0  0
 19 55  1  0  0  0  0
 20 21  1  0  0  0  0
 20 31  2  0  0  0  0
 21 22  2  0  0  0  0
 22 23  1  0  0  0  0
 22 56  1  0  0  0  0
 23 24  1  0  0  0  0
 23 30  2  0  0  0  0
 24 25  1  0  0  0  0
 24 29  2  0  0  0  0
 25 26  2  0  0  0  0
 25 57  1  0  0  0  0
 26 27  1  0  0  0  0
 27 28  1  0  0  0  0
 27 29  1  0  0  0  0
 28 58  1  0  0  0  0
 28 59  1  0  0  0  0
 28 60  1  0  0  0  0
 29 61  1  0  0  0  0
 30 31  1  0  0  0  0
 31 32  1  0  0  0  0
 32 62  1  0  0  0  0
 33 34  1  0  0  0  0
 34 35  1  0  0  0  0
 34 36  2  0  0  0  0
 35 63  1  0  0  0  0
 35 64  1  0  0  0  0
 35 65  1  0  0  0  0
M  END
$$$$
