CHEMBL3671481
 OpenBabel04072215373D

 60 63  0  0  0  0  0  0  0  0999 V2000
    3.2162   -1.3546    2.1341 C   0  0  0  0  0  0  0  0  0  0  0  0
    3.7430   -0.5990    1.1591 C   0  0  0  0  0  0  0  0  0  0  0  0
    4.7229   -1.2365    0.2511 C   0  0  0  0  0  0  0  0  0  0  0  0
    5.3482   -2.2263    0.6126 O   0  0  0  0  0  0  0  0  0  0  0  0
    4.7320   -0.6571   -1.0133 N   0  0  0  0  0  0  0  0  0  0  0  0
    5.3672   -1.2512   -2.1402 C   0  0  0  0  0  0  0  0  0  0  0  0
    6.4902   -2.0325   -1.8696 C   0  0  0  0  0  0  0  0  0  0  0  0
    7.0755   -2.8816   -2.8136 C   0  0  0  0  0  0  0  0  0  0  0  0
    8.0771   -3.8032   -2.4866 C   0  0  0  0  0  0  0  0  0  0  0  0
    8.4944   -3.9152   -1.1298 N   0  0  0  0  0  0  0  0  0  0  0  0
    9.6114   -4.5983   -0.6064 C   0  0  0  0  0  0  0  0  0  0  0  0
   10.7733   -4.8067   -1.3609 C   0  0  0  0  0  0  0  0  0  0  0  0
   11.8698   -5.4803   -0.8249 C   0  0  0  0  0  0  0  0  0  0  0  0
   11.8310   -5.9151    0.4951 C   0  0  0  0  0  0  0  0  0  0  0  0
   12.8831   -6.5724    0.9968 F   0  0  0  0  0  0  0  0  0  0  0  0
   10.7190   -5.6610    1.2864 C   0  0  0  0  0  0  0  0  0  0  0  0
   10.7056   -6.0529    2.5681 F   0  0  0  0  0  0  0  0  0  0  0  0
    9.6240   -4.9994    0.7420 C   0  0  0  0  0  0  0  0  0  0  0  0
    8.5531   -4.7524    1.5140 F   0  0  0  0  0  0  0  0  0  0  0  0
    8.6465   -4.5725   -3.4340 N   0  0  0  0  0  0  0  0  0  0  0  0
    8.1791   -4.4337   -4.6769 C   0  0  0  0  0  0  0  0  0  0  0  0
    7.1952   -3.6132   -5.0763 N   0  0  0  0  0  0  0  0  0  0  0  0
    6.6353   -2.8444   -4.1346 C   0  0  0  0  0  0  0  0  0  0  0  0
    5.5936   -1.9670   -4.4450 C   0  0  0  0  0  0  0  0  0  0  0  0
    4.9391   -1.1647   -3.4785 C   0  0  0  0  0  0  0  0  0  0  0  0
    3.9129   -0.4347   -4.0433 O   0  0  0  0  0  0  0  0  0  0  0  0
    3.1814    0.4255   -3.1909 C   0  0  0  0  0  0  0  0  0  0  0  0
    2.1010    1.2519   -3.9014 C   0  0  0  0  0  0  0  0  0  0  0  0
    1.4328    2.1925   -2.8672 C   0  0  0  0  0  0  0  0  0  0  0  0
    0.5196    1.4268   -1.9053 C   0  0  0  0  0  0  0  0  0  0  0  0
   -0.4625    0.6662   -2.6685 N   0  0  0  0  0  0  0  0  0  0  0  0
   -1.8190    0.9320   -2.7597 C   0  0  0  0  0  0  0  0  0  0  0  0
   -2.4125    2.0899   -1.9946 C   0  0  0  0  0  0  0  0  0  0  0  0
   -2.5720    0.2469   -3.4573 O   0  0  0  0  0  0  0  0  0  0  0  0
    0.1165   -0.3220   -3.5820 C   0  0  0  0  0  0  0  0  0  0  0  0
    1.0403    0.3724   -4.5879 C   0  0  0  0  0  0  0  0  0  0  0  0
    2.4911   -0.9618    2.8357 H   0  0  0  0  0  0  0  0  0  0  0  0
    3.5021   -2.4011    2.2508 H   0  0  0  0  0  0  0  0  0  0  0  0
    3.4707    0.4374    1.0276 H   0  0  0  0  0  0  0  0  0  0  0  0
    4.0553    0.0624   -1.1462 H   0  0  0  0  0  0  0  0  0  0  0  0
    6.9400   -1.9907   -0.8805 H   0  0  0  0  0  0  0  0  0  0  0  0
    7.6850   -3.9976   -0.5115 H   0  0  0  0  0  0  0  0  0  0  0  0
   10.8335   -4.4470   -2.3847 H   0  0  0  0  0  0  0  0  0  0  0  0
   12.7498   -5.6637   -1.4322 H   0  0  0  0  0  0  0  0  0  0  0  0
    8.6496   -5.0474   -5.4366 H   0  0  0  0  0  0  0  0  0  0  0  0
    5.2524   -1.9328   -5.4800 H   0  0  0  0  0  0  0  0  0  0  0  0
    3.8785    1.1414   -2.7412 H   0  0  0  0  0  0  0  0  0  0  0  0
    2.6916   -0.1958   -2.4387 H   0  0  0  0  0  0  0  0  0  0  0  0
    2.5909    1.8577   -4.6740 H   0  0  0  0  0  0  0  0  0  0  0  0
    0.8396    2.9454   -3.4000 H   0  0  0  0  0  0  0  0  0  0  0  0
    2.1954    2.7342   -2.2944 H   0  0  0  0  0  0  0  0  0  0  0  0
    0.0666    2.1082   -1.1869 H   0  0  0  0  0  0  0  0  0  0  0  0
    1.0912    0.7116   -1.3020 H   0  0  0  0  0  0  0  0  0  0  0  0
   -1.6935    2.7618   -1.5350 H   0  0  0  0  0  0  0  0  0  0  0  0
   -3.0760    1.6986   -1.2187 H   0  0  0  0  0  0  0  0  0  0  0  0
   -2.9964    2.6936   -2.6967 H   0  0  0  0  0  0  0  0  0  0  0  0
   -0.6586   -0.8728   -4.1236 H   0  0  0  0  0  0  0  0  0  0  0  0
    0.6662   -1.0548   -2.9810 H   0  0  0  0  0  0  0  0  0  0  0  0
    0.4302    1.0154   -5.2362 H   0  0  0  0  0  0  0  0  0  0  0  0
    1.5150   -0.3717   -5.2365 H   0  0  0  0  0  0  0  0  0  0  0  0
  1  2  2  0  0  0  0
  1 37  1  0  0  0  0
  1 38  1  0  0  0  0
  2  3  1  0  0  0  0
  2 39  1  0  0  0  0
  3  4  2  0  0  0  0
  3  5  1  0  0  0  0
  5  6  1  0  0  0  0
  5 40  1  0  0  0  0
  6  7  1  0  0  0  0
  6 25  2  0  0  0  0
  7  8  2  0  0  0  0
  7 41  1  0  0  0  0
  8  9  1  0  0  0  0
  8 23  1  0  0  0  0
  9 10  1  0  0  0  0
  9 20  2  0  0  0  0
 10 11  1  0  0  0  0
 10 42  1  0  0  0  0
 11 12  1  0  0  0  0
 11 18  2  0  0  0  0
 12 13  2  0  0  0  0
 12 43  1  0  0  0  0
 13 14  1  0  0  0  0
 13 44  1  0  0  0  0
 14 15  1  0  0  0  0
 14 16  2  0  0  0  0
 16 17  1  0  0  0  0
 16 18  1  0  0  0  0
 18 19  1  0  0  0  0
 20 21  1  0  0  0  0
 21 22  2  0  0  0  0
 21 45  1  0  0  0  0
 22 23  1  0  0  0  0
 23 24  2  0  0  0  0
 24 25  1  0  0  0  0
 24 46  1  0  0  0  0
 25 26  1  0  0  0  0
 26 27  1  0  0  0  0
 27 28  1  0  0  0  0
 27 47  1  0  0  0  0
 27 48  1  0  0  0  0
 28 29  1  0  0  0  0
 28 36  1  0  0  0  0
 28 49  1  0  0  0  0
 29 30  1  0  0  0  0
 29 50  1  0  0  0  0
 29 51  1  0  0  0  0
 30 31  1  0  0  0  0
 30 52  1  0  0  0  0
 30 53  1  0  0  0  0
 31 32  1  0  0  0  0
 31 35  1  0  0  0  0
 32 33  1  0  0  0  0
 32 34  2  0  0  0  0
 33 54  1  0  0  0  0
 33 55  1  0  0  0  0
 33 56  1  0  0  0  0
 35 36  1  0  0  0  0
 35 57  1  0  0  0  0
 35 58  1  0  0  0  0
 36 59  1  0  0  0  0
 36 60  1  0  0  0  0
M  END
$$$$
