CHEMBL2000746
 OpenBabel04072215363D

 59 62  0  0  0  0  0  0  0  0999 V2000
    5.2517    2.4487    3.9062 C   0  0  0  0  0  0  0  0  0  0  0  0
    5.0514    1.4830    2.8864 O   0  0  0  0  0  0  0  0  0  0  0  0
    4.3119    1.8550    1.7939 C   0  0  0  0  0  0  0  0  0  0  0  0
    3.7769    3.1374    1.5753 C   0  0  0  0  0  0  0  0  0  0  0  0
    2.9919    3.4351    0.4411 C   0  0  0  0  0  0  0  0  0  0  0  0
    2.4232    4.7945    0.1982 C   0  0  0  0  0  0  0  0  0  0  0  0
    2.3025    5.7912    1.1863 C   0  0  0  0  0  0  0  0  0  0  0  0
    2.1151    7.1416    0.8312 C   0  0  0  0  0  0  0  0  0  0  0  0
    1.9204    7.4617   -0.5141 C   0  0  0  0  0  0  0  0  0  0  0  0
    1.5208    6.4554   -1.3494 C   0  0  0  0  0  0  0  0  0  0  0  0
    1.9792    5.1685   -1.0739 C   0  0  0  0  0  0  0  0  0  0  0  0
    0.9560    6.7609   -2.6064 N   0  0  0  0  0  0  0  0  0  0  0  0
    1.9463    6.9178   -3.5949 C   0  0  0  0  0  0  0  0  0  0  0  0
    1.9843    5.9007   -4.5423 C   0  0  0  0  0  0  0  0  0  0  0  0
    3.0740    5.7228   -5.3699 C   0  0  0  0  0  0  0  0  0  0  0  0
    3.2196    4.5606   -6.0983 O   0  0  0  0  0  0  0  0  0  0  0  0
    2.3128    3.5006   -5.7357 C   0  0  0  0  0  0  0  0  0  0  0  0
    2.6167    2.1976   -6.4597 C   0  0  0  0  0  0  0  0  0  0  0  0
    3.9327    1.5763   -6.0092 C   0  0  0  0  0  0  0  0  0  0  0  0
    4.1759    0.2540   -6.7228 C   0  0  0  0  0  0  0  0  0  0  0  0
    5.4204   -0.2906   -6.3096 O   0  0  0  0  0  0  0  0  0  0  0  0
    4.0457    6.7444   -5.3757 C   0  0  0  0  0  0  0  0  0  0  0  0
    5.1525    6.7914   -6.1943 O   0  0  0  0  0  0  0  0  0  0  0  0
    5.0540    6.0871   -7.4270 C   0  0  0  0  0  0  0  0  0  0  0  0
    3.9729    7.8159   -4.4291 C   0  0  0  0  0  0  0  0  0  0  0  0
    2.9599    7.8644   -3.4589 C   0  0  0  0  0  0  0  0  0  0  0  0
    2.9578    8.7946   -2.3880 N   0  0  0  0  0  0  0  0  0  0  0  0
    2.3588    8.7710   -1.1183 C   0  0  0  0  0  0  0  0  0  0  0  0
    2.3493    9.7731   -0.4031 O   0  0  0  0  0  0  0  0  0  0  0  0
    2.8195    2.3903   -0.4935 C   0  0  0  0  0  0  0  0  0  0  0  0
    3.3689    1.1203   -0.3088 C   0  0  0  0  0  0  0  0  0  0  0  0
    4.0962    0.8548    0.8407 C   0  0  0  0  0  0  0  0  0  0  0  0
    4.6052   -0.3993    1.0435 O   0  0  0  0  0  0  0  0  0  0  0  0
    5.7900    1.9620    4.7251 H   0  0  0  0  0  0  0  0  0  0  0  0
    4.2990    2.8113    4.3057 H   0  0  0  0  0  0  0  0  0  0  0  0
    5.8707    3.2746    3.5425 H   0  0  0  0  0  0  0  0  0  0  0  0
    3.9874    3.9280    2.2868 H   0  0  0  0  0  0  0  0  0  0  0  0
    2.4373    5.5513    2.2371 H   0  0  0  0  0  0  0  0  0  0  0  0
    2.1868    7.9237    1.5792 H   0  0  0  0  0  0  0  0  0  0  0  0
    2.0459    4.4851   -1.9168 H   0  0  0  0  0  0  0  0  0  0  0  0
    0.5002    7.6726   -2.5118 H   0  0  0  0  0  0  0  0  0  0  0  0
    1.1594    5.1911   -4.4932 H   0  0  0  0  0  0  0  0  0  0  0  0
    1.2948    3.7898   -6.0265 H   0  0  0  0  0  0  0  0  0  0  0  0
    2.3548    3.3099   -4.6548 H   0  0  0  0  0  0  0  0  0  0  0  0
    2.6401    2.3731   -7.5402 H   0  0  0  0  0  0  0  0  0  0  0  0
    1.8007    1.4925   -6.2534 H   0  0  0  0  0  0  0  0  0  0  0  0
    3.9232    1.4029   -4.9240 H   0  0  0  0  0  0  0  0  0  0  0  0
    4.7649    2.2615   -6.1981 H   0  0  0  0  0  0  0  0  0  0  0  0
    4.1953    0.3874   -7.8093 H   0  0  0  0  0  0  0  0  0  0  0  0
    3.3930   -0.4709   -6.4816 H   0  0  0  0  0  0  0  0  0  0  0  0
    6.1090    0.3629   -6.5221 H   0  0  0  0  0  0  0  0  0  0  0  0
    5.8622    6.4293   -8.0787 H   0  0  0  0  0  0  0  0  0  0  0  0
    4.1069    6.2931   -7.9428 H   0  0  0  0  0  0  0  0  0  0  0  0
    5.2036    5.0117   -7.2813 H   0  0  0  0  0  0  0  0  0  0  0  0
    4.7784    8.5512   -4.4213 H   0  0  0  0  0  0  0  0  0  0  0  0
    3.5173    9.6310   -2.5161 H   0  0  0  0  0  0  0  0  0  0  0  0
    2.2469    2.5343   -1.4051 H   0  0  0  0  0  0  0  0  0  0  0  0
    3.2112    0.3610   -1.0683 H   0  0  0  0  0  0  0  0  0  0  0  0
    4.3566   -0.9668    0.2976 H   0  0  0  0  0  0  0  0  0  0  0  0
  1  2  1  0  0  0  0
  1 34  1  0  0  0  0
  1 35  1  0  0  0  0
  1 36  1  0  0  0  0
  2  3  1  0  0  0  0
  3  4  1  0  0  0  0
  3 32  2  0  0  0  0
  4  5  2  0  0  0  0
  4 37  1  0  0  0  0
  5  6  1  0  0  0  0
  5 30  1  0  0  0  0
  6  7  1  0  0  0  0
  6 11  2  0  0  0  0
  7  8  2  0  0  0  0
  7 38  1  0  0  0  0
  8  9  1  0  0  0  0
  8 39  1  0  0  0  0
  9 10  2  0  0  0  0
  9 28  1  0  0  0  0
 10 11  1  0  0  0  0
 10 12  1  0  0  0  0
 11 40  1  0  0  0  0
 12 13  1  0  0  0  0
 12 41  1  0  0  0  0
 13 14  1  0  0  0  0
 13 26  2  0  0  0  0
 14 15  2  0  0  0  0
 14 42  1  0  0  0  0
 15 16  1  0  0  0  0
 15 22  1  0  0  0  0
 16 17  1  0  0  0  0
 17 18  1  0  0  0  0
 17 43  1  0  0  0  0
 17 44  1  0  0  0  0
 18 19  1  0  0  0  0
 18 45  1  0  0  0  0
 18 46  1  0  0  0  0
 19 20  1  0  0  0  0
 19 47  1  0  0  0  0
 19 48  1  0  0  0  0
 20 21  1  0  0  0  0
 20 49  1  0  0  0  0
 20 50  1  0  0  0  0
 21 51  1  0  0  0  0
 22 23  1  0  0  0  0
 22 25  2  0  0  0  0
 23 24  1  0  0  0  0
 24 52  1  0  0  0  0
 24 53  1  0  0  0  0
 24 54  1  0  0  0  0
 25 26  1  0  0  0  0
 25 55  1  0  0  0  0
 26 27  1  0  0  0  0
 27 28  1  0  0  0  0
 27 56  1  0  0  0  0
 28 29  2  0  0  0  0
 30 31  2  0  0  0  0
 30 57  1  0  0  0  0
 31 32  1  0  0  0  0
 31 58  1  0  0  0  0
 32 33  1  0  0  0  0
 33 59  1  0  0  0  0
M  END
$$$$
