CHEMBL196609
 OpenBabel04072215363D

 57 60  0  0  0  0  0  0  0  0999 V2000
    1.2275   -0.7577    1.6480 C   0  0  0  0  0  0  0  0  0  0  0  0
    2.6533   -0.5544    1.6765 N   0  0  0  0  0  0  0  0  0  0  0  0
    3.2037    0.6341    1.2407 C   0  0  0  0  0  0  0  0  0  0  0  0
    2.5354    1.5812    0.8418 O   0  0  0  0  0  0  0  0  0  0  0  0
    4.6927    0.6988    1.2156 C   0  0  0  0  0  0  0  0  0  0  0  0
    5.3086    1.5786    0.3250 C   0  0  0  0  0  0  0  0  0  0  0  0
    6.7059    1.6398    0.2432 C   0  0  0  0  0  0  0  0  0  0  0  0
    7.5345    0.7837    0.9919 C   0  0  0  0  0  0  0  0  0  0  0  0
    9.0202    0.7704    0.8599 C   0  0  0  0  0  0  0  0  0  0  0  0
    9.6552    0.4784    2.0158 N   0  0  0  0  0  0  0  0  0  0  0  0
   11.0226    0.4844    2.0907 N   0  0  0  0  0  0  0  0  0  0  0  0
   11.7836    0.8519    1.0421 C   0  0  0  0  0  0  0  0  0  0  0  0
   13.2046    0.8580    1.1539 N   0  0  0  0  0  0  0  0  0  0  0  0
   13.9601    0.6251    2.3283 C   0  0  0  0  0  0  0  0  0  0  0  0
   15.2565    0.1033    2.2332 C   0  0  0  0  0  0  0  0  0  0  0  0
   16.0264   -0.1517    3.3806 C   0  0  0  0  0  0  0  0  0  0  0  0
   15.5346    0.1276    4.6643 C   0  0  0  0  0  0  0  0  0  0  0  0
   16.2991   -0.2016    5.9556 C   0  0  0  0  0  0  0  0  0  0  0  0
   17.6538   -0.9003    5.7101 C   0  0  0  0  0  0  0  0  0  0  0  0
   16.5788    1.0948    6.7449 C   0  0  0  0  0  0  0  0  0  0  0  0
   15.4521   -1.1504    6.8347 C   0  0  0  0  0  0  0  0  0  0  0  0
   14.2679    0.7326    4.7396 C   0  0  0  0  0  0  0  0  0  0  0  0
   13.5100    0.9945    3.5941 C   0  0  0  0  0  0  0  0  0  0  0  0
   11.1756    1.1985   -0.1834 C   0  0  0  0  0  0  0  0  0  0  0  0
   11.9157    1.6709   -1.2978 C   0  0  0  0  0  0  0  0  0  0  0  0
   11.3124    1.9362   -2.5259 C   0  0  0  0  0  0  0  0  0  0  0  0
    9.9632    1.6809   -2.6891 C   0  0  0  0  0  0  0  0  0  0  0  0
    9.2105    1.2366   -1.6026 C   0  0  0  0  0  0  0  0  0  0  0  0
    9.7672    1.0685   -0.3069 C   0  0  0  0  0  0  0  0  0  0  0  0
    6.8877   -0.0361    1.9410 C   0  0  0  0  0  0  0  0  0  0  0  0
    5.4904   -0.0734    2.0624 C   0  0  0  0  0  0  0  0  0  0  0  0
    1.0065   -1.7398    2.0724 H   0  0  0  0  0  0  0  0  0  0  0  0
    0.8759   -0.7107    0.6137 H   0  0  0  0  0  0  0  0  0  0  0  0
    0.7371    0.0230    2.2353 H   0  0  0  0  0  0  0  0  0  0  0  0
    3.2460   -1.3660    1.7796 H   0  0  0  0  0  0  0  0  0  0  0  0
    4.7059    2.2230   -0.3128 H   0  0  0  0  0  0  0  0  0  0  0  0
    7.1316    2.3869   -0.4230 H   0  0  0  0  0  0  0  0  0  0  0  0
   13.5871    0.3256    0.3750 H   0  0  0  0  0  0  0  0  0  0  0  0
   15.6855   -0.1365    1.2637 H   0  0  0  0  0  0  0  0  0  0  0  0
   17.0133   -0.5823    3.2360 H   0  0  0  0  0  0  0  0  0  0  0  0
   18.3378   -0.2638    5.1372 H   0  0  0  0  0  0  0  0  0  0  0  0
   17.5269   -1.8425    5.1637 H   0  0  0  0  0  0  0  0  0  0  0  0
   18.1519   -1.1407    6.6568 H   0  0  0  0  0  0  0  0  0  0  0  0
   17.1971    1.7870    6.1618 H   0  0  0  0  0  0  0  0  0  0  0  0
   17.1079    0.8797    7.6807 H   0  0  0  0  0  0  0  0  0  0  0  0
   15.6579    1.6243    7.0136 H   0  0  0  0  0  0  0  0  0  0  0  0
   15.2298   -2.0855    6.3070 H   0  0  0  0  0  0  0  0  0  0  0  0
   14.4958   -0.7040    7.1286 H   0  0  0  0  0  0  0  0  0  0  0  0
   15.9806   -1.4075    7.7602 H   0  0  0  0  0  0  0  0  0  0  0  0
   13.8365    1.0043    5.7003 H   0  0  0  0  0  0  0  0  0  0  0  0
   12.5442    1.4764    3.7221 H   0  0  0  0  0  0  0  0  0  0  0  0
   12.9837    1.8634   -1.2086 H   0  0  0  0  0  0  0  0  0  0  0  0
   11.9009    2.3216   -3.3543 H   0  0  0  0  0  0  0  0  0  0  0  0
    9.4861    1.8364   -3.6534 H   0  0  0  0  0  0  0  0  0  0  0  0
    8.1646    1.0080   -1.7924 H   0  0  0  0  0  0  0  0  0  0  0  0
    7.4783   -0.6555    2.6172 H   0  0  0  0  0  0  0  0  0  0  0  0
    5.0498   -0.6958    2.8360 H   0  0  0  0  0  0  0  0  0  0  0  0
  1  2  1  0  0  0  0
  1 32  1  0  0  0  0
  1 33  1  0  0  0  0
  1 34  1  0  0  0  0
  2  3  1  0  0  0  0
  2 35  1  0  0  0  0
  3  4  2  0  0  0  0
  3  5  1  0  0  0  0
  5  6  1  0  0  0  0
  5 31  2  0  0  0  0
  6  7  2  0  0  0  0
  6 36  1  0  0  0  0
  7  8  1  0  0  0  0
  7 37  1  0  0  0  0
  8  9  1  0  0  0  0
  8 30  2  0  0  0  0
  9 10  1  0  0  0  0
  9 29  2  0  0  0  0
 10 11  2  0  0  0  0
 11 12  1  0  0  0  0
 12 13  1  0  0  0  0
 12 24  2  0  0  0  0
 13 14  1  0  0  0  0
 13 38  1  0  0  0  0
 14 15  1  0  0  0  0
 14 23  2  0  0  0  0
 15 16  2  0  0  0  0
 15 39  1  0  0  0  0
 16 17  1  0  0  0  0
 16 40  1  0  0  0  0
 17 18  1  0  0  0  0
 17 22  2  0  0  0  0
 18 19  1  0  0  0  0
 18 20  1  0  0  0  0
 18 21  1  0  0  0  0
 19 41  1  0  0  0  0
 19 42  1  0  0  0  0
 19 43  1  0  0  0  0
 20 44  1  0  0  0  0
 20 45  1  0  0  0  0
 20 46  1  0  0  0  0
 21 47  1  0  0  0  0
 21 48  1  0  0  0  0
 21 49  1  0  0  0  0
 22 23  1  0  0  0  0
 22 50  1  0  0  0  0
 23 51  1  0  0  0  0
 24 25  1  0  0  0  0
 24 29  1  0  0  0  0
 25 26  2  0  0  0  0
 25 52  1  0  0  0  0
 26 27  1  0  0  0  0
 26 53  1  0  0  0  0
 27 28  2  0  0  0  0
 27 54  1  0  0  0  0
 28 29  1  0  0  0  0
 28 55  1  0  0  0  0
 30 31  1  0  0  0  0
 30 56  1  0  0  0  0
 31 57  1  0  0  0  0
M  END
$$$$
