CHEMBL4065713
 OpenBabel04072215383D

 51 56  0  0  0  0  0  0  0  0999 V2000
    2.8036   -0.9365    0.6307 O   0  0  0  0  0  0  0  0  0  0  0  0
    2.2311   -0.2317   -0.1851 C   0  0  0  0  0  0  0  0  0  0  0  0
    0.9522   -0.3139   -0.6909 N   0  0  0  0  0  0  0  0  0  0  0  0
    0.0317   -1.2275   -0.2045 C   0  0  0  0  0  0  0  0  0  0  0  0
   -1.1182   -1.6702   -0.9050 C   0  0  0  0  0  0  0  0  0  0  0  0
   -1.7252   -2.5612   -0.0516 C   0  0  0  0  0  0  0  0  0  0  0  0
   -2.9847   -3.3586   -0.3325 C   0  0  0  0  0  0  0  0  0  0  0  0
   -3.9155   -3.6647    0.8235 C   0  0  0  0  0  0  0  0  0  0  0  0
   -3.0775   -4.7546    0.2514 C   0  0  0  0  0  0  0  0  0  0  0  0
   -1.0024   -2.6303    1.0963 O   0  0  0  0  0  0  0  0  0  0  0  0
    0.0980   -1.8041    0.9990 N   0  0  0  0  0  0  0  0  0  0  0  0
    2.9849    0.7316   -0.8803 N   0  0  0  0  0  0  0  0  0  0  0  0
    4.2413    0.4866   -1.4009 C   0  0  0  0  0  0  0  0  0  0  0  0
    4.7200    1.6335   -1.9821 C   0  0  0  0  0  0  0  0  0  0  0  0
    3.7838    2.6642   -1.7154 C   0  0  0  0  0  0  0  0  0  0  0  0
    3.7998    4.0581   -1.9337 C   0  0  0  0  0  0  0  0  0  0  0  0
    2.7476    4.8525   -1.4548 C   0  0  0  0  0  0  0  0  0  0  0  0
    2.9432    6.2132   -1.5732 O   0  0  0  0  0  0  0  0  0  0  0  0
    1.8474    7.0519   -1.4551 C   0  0  0  0  0  0  0  0  0  0  0  0
    0.7792    6.7895   -2.2309 N   0  0  0  0  0  0  0  0  0  0  0  0
   -0.2265    7.6571   -2.1220 C   0  0  0  0  0  0  0  0  0  0  0  0
   -0.2411    8.7457   -1.3392 N   0  0  0  0  0  0  0  0  0  0  0  0
    0.8679    8.9892   -0.5993 C   0  0  0  0  0  0  0  0  0  0  0  0
    1.9615    8.1529   -0.6193 C   0  0  0  0  0  0  0  0  0  0  0  0
    3.1852    8.4351    0.1801 C   0  0  0  0  0  0  0  0  0  0  0  0
    3.0888    9.6096    1.1616 C   0  0  0  0  0  0  0  0  0  0  0  0
    2.0164   10.5796    1.0383 N   0  0  0  0  0  0  0  0  0  0  0  0
    0.8484   10.2463    0.2300 C   0  0  0  0  0  0  0  0  0  0  0  0
    1.6673    4.2532   -0.8091 C   0  0  0  0  0  0  0  0  0  0  0  0
    1.6056    2.8664   -0.6190 C   0  0  0  0  0  0  0  0  0  0  0  0
    2.6886    2.0843   -1.0640 C   0  0  0  0  0  0  0  0  0  0  0  0
    0.7379    0.1383   -1.5710 H   0  0  0  0  0  0  0  0  0  0  0  0
   -1.4376   -1.4128   -1.9024 H   0  0  0  0  0  0  0  0  0  0  0  0
   -3.4395   -3.1967   -1.3035 H   0  0  0  0  0  0  0  0  0  0  0  0
   -4.9813   -3.6888    0.6256 H   0  0  0  0  0  0  0  0  0  0  0  0
   -3.6642   -3.2988    1.8134 H   0  0  0  0  0  0  0  0  0  0  0  0
   -3.5668   -5.5188   -0.3416 H   0  0  0  0  0  0  0  0  0  0  0  0
   -2.2570   -5.1298    0.8545 H   0  0  0  0  0  0  0  0  0  0  0  0
    4.6681   -0.5055   -1.3204 H   0  0  0  0  0  0  0  0  0  0  0  0
    5.6770    1.7345   -2.4780 H   0  0  0  0  0  0  0  0  0  0  0  0
    4.6555    4.5231   -2.4158 H   0  0  0  0  0  0  0  0  0  0  0  0
   -1.1141    7.4630   -2.7102 H   0  0  0  0  0  0  0  0  0  0  0  0
    3.4423    7.5376    0.7596 H   0  0  0  0  0  0  0  0  0  0  0  0
    4.0143    8.6218   -0.5148 H   0  0  0  0  0  0  0  0  0  0  0  0
    4.0419   10.1557    1.1204 H   0  0  0  0  0  0  0  0  0  0  0  0
    3.0527    9.2078    2.1813 H   0  0  0  0  0  0  0  0  0  0  0  0
    2.3635   11.5081    0.8108 H   0  0  0  0  0  0  0  0  0  0  0  0
    0.6762   11.0820   -0.4605 H   0  0  0  0  0  0  0  0  0  0  0  0
   -0.0245   10.2063    0.8921 H   0  0  0  0  0  0  0  0  0  0  0  0
    0.8552    4.8563   -0.4099 H   0  0  0  0  0  0  0  0  0  0  0  0
    0.7712    2.4335   -0.0786 H   0  0  0  0  0  0  0  0  0  0  0  0
  1  2  2  0  0  0  0
  2  3  1  0  0  0  0
  2 12  1  0  0  0  0
  3  4  1  0  0  0  0
  3 32  1  0  0  0  0
  4  5  1  0  0  0  0
  4 11  2  0  0  0  0
  5  6  2  0  0  0  0
  5 33  1  0  0  0  0
  6  7  1  0  0  0  0
  6 10  1  0  0  0  0
  7  8  1  0  0  0  0
  7  9  1  0  0  0  0
  7 34  1  0  0  0  0
  8  9  1  0  0  0  0
  8 35  1  0  0  0  0
  8 36  1  0  0  0  0
  9 37  1  0  0  0  0
  9 38  1  0  0  0  0
 10 11  1  0  0  0  0
 12 13  1  0  0  0  0
 12 31  1  0  0  0  0
 13 14  2  0  0  0  0
 13 39  1  0  0  0  0
 14 15  1  0  0  0  0
 14 40  1  0  0  0  0
 15 16  1  0  0  0  0
 15 31  2  0  0  0  0
 16 17  2  0  0  0  0
 16 41  1  0  0  0  0
 17 18  1  0  0  0  0
 17 29  1  0  0  0  0
 18 19  1  0  0  0  0
 19 20  1  0  0  0  0
 19 24  2  0  0  0  0
 20 21  2  0  0  0  0
 21 22  1  0  0  0  0
 21 42  1  0  0  0  0
 22 23  2  0  0  0  0
 23 24  1  0  0  0  0
 23 28  1  0  0  0  0
 24 25  1  0  0  0  0
 25 26  1  0  0  0  0
 25 43  1  0  0  0  0
 25 44  1  0  0  0  0
 26 27  1  0  0  0  0
 26 45  1  0  0  0  0
 26 46  1  0  0  0  0
 27 28  1  0  0  0  0
 27 47  1  0  0  0  0
 28 48  1  0  0  0  0
 28 49  1  0  0  0  0
 29 30  2  0  0  0  0
 29 50  1  0  0  0  0
 30 31  1  0  0  0  0
 30 51  1  0  0  0  0
M  END
$$$$
