CHEMBL3969446
 OpenBabel04072215373D

 68 73  0  0  0  0  0  0  0  0999 V2000
    3.2754    7.1469    1.0726 C   0  0  0  0  0  0  0  0  0  0  0  0
    3.6205    5.7658    1.1801 O   0  0  0  0  0  0  0  0  0  0  0  0
    4.8698    5.4674    1.6639 C   0  0  0  0  0  0  0  0  0  0  0  0
    5.8501    6.3936    1.9803 C   0  0  0  0  0  0  0  0  0  0  0  0
    7.0874    5.9483    2.4405 C   0  0  0  0  0  0  0  0  0  0  0  0
    8.1340    6.7678    2.7823 O   0  0  0  0  0  0  0  0  0  0  0  0
    7.8628    8.1649    2.8258 C   0  0  0  0  0  0  0  0  0  0  0  0
    7.3420    4.5707    2.6029 C   0  0  0  0  0  0  0  0  0  0  0  0
    6.3577    3.6007    2.4016 C   0  0  0  0  0  0  0  0  0  0  0  0
    6.5688    2.2018    2.6999 N   0  0  0  0  0  0  0  0  0  0  0  0
    5.2451    1.4576    2.8320 C   0  0  0  0  0  0  0  0  0  0  0  0
    4.6312    0.7325    1.6430 C   0  0  0  0  0  0  0  0  0  0  0  0
    5.3776   -0.2128    0.7240 C   0  0  0  0  0  0  0  0  0  0  0  0
    4.7599    1.0371    0.1670 C   0  0  0  0  0  0  0  0  0  0  0  0
    7.5662    1.5256    3.5385 C   0  0  0  0  0  0  0  0  0  0  0  0
    7.5584    0.1311    3.4621 C   0  0  0  0  0  0  0  0  0  0  0  0
    7.9366   -0.6306    4.5477 C   0  0  0  0  0  0  0  0  0  0  0  0
    8.6052   -0.0826    5.6071 C   0  0  0  0  0  0  0  0  0  0  0  0
    8.7366   -0.8979    6.6578 N   0  0  0  0  0  0  0  0  0  0  0  0
    9.6618   -0.5613    7.5575 C   0  0  0  0  0  0  0  0  0  0  0  0
   10.5306    0.4868    7.3402 C   0  0  0  0  0  0  0  0  0  0  0  0
   11.8723    0.2708    7.9092 C   0  0  0  0  0  0  0  0  0  0  0  0
   12.5939    0.8784    8.9560 C   0  0  0  0  0  0  0  0  0  0  0  0
   13.7165    0.2162    9.2789 N   0  0  0  0  0  0  0  0  0  0  0  0
   13.7365   -0.8558    8.4510 N   0  0  0  0  0  0  0  0  0  0  0  0
   14.9754   -1.6410    8.3259 C   0  0  0  0  0  0  0  0  0  0  0  0
   14.9314   -2.9109    7.4498 C   0  0  0  0  0  0  0  0  0  0  0  0
   14.3061   -4.1088    8.1646 C   0  0  0  0  0  0  0  0  0  0  0  0
   14.9298   -4.3888    9.4552 N   0  0  0  0  0  0  0  0  0  0  0  0
   14.9420   -3.2121   10.3242 C   0  0  0  0  0  0  0  0  0  0  0  0
   15.6349   -2.0233    9.6660 C   0  0  0  0  0  0  0  0  0  0  0  0
   12.6034   -0.8976    7.6759 C   0  0  0  0  0  0  0  0  0  0  0  0
   10.2381    1.4489    6.3875 N   0  0  0  0  0  0  0  0  0  0  0  0
    9.1616    1.2000    5.5080 C   0  0  0  0  0  0  0  0  0  0  0  0
    8.4952    2.0422    4.4987 C   0  0  0  0  0  0  0  0  0  0  0  0
    5.1388    4.0986    1.8572 C   0  0  0  0  0  0  0  0  0  0  0  0
    2.2375    7.2182    0.7300 H   0  0  0  0  0  0  0  0  0  0  0  0
    3.9022    7.6546    0.3309 H   0  0  0  0  0  0  0  0  0  0  0  0
    3.3335    7.6488    2.0451 H   0  0  0  0  0  0  0  0  0  0  0  0
    5.6572    7.4532    1.8515 H   0  0  0  0  0  0  0  0  0  0  0  0
    8.7405    8.6649    3.2447 H   0  0  0  0  0  0  0  0  0  0  0  0
    7.0111    8.3937    3.4773 H   0  0  0  0  0  0  0  0  0  0  0  0
    7.7014    8.5577    1.8165 H   0  0  0  0  0  0  0  0  0  0  0  0
    8.3449    4.2836    2.8905 H   0  0  0  0  0  0  0  0  0  0  0  0
    4.4838    2.1246    3.2584 H   0  0  0  0  0  0  0  0  0  0  0  0
    5.2892    0.6985    3.6250 H   0  0  0  0  0  0  0  0  0  0  0  0
    3.6410    0.3908    1.9481 H   0  0  0  0  0  0  0  0  0  0  0  0
    4.9048   -1.1675    0.5085 H   0  0  0  0  0  0  0  0  0  0  0  0
    6.4575   -0.2446    0.6765 H   0  0  0  0  0  0  0  0  0  0  0  0
    3.8839    0.9001   -0.4627 H   0  0  0  0  0  0  0  0  0  0  0  0
    5.4358    1.8066   -0.1808 H   0  0  0  0  0  0  0  0  0  0  0  0
    7.0811   -0.3863    2.6539 H   0  0  0  0  0  0  0  0  0  0  0  0
    7.6976   -1.6852    4.5676 H   0  0  0  0  0  0  0  0  0  0  0  0
    9.7835   -1.2573    8.3794 H   0  0  0  0  0  0  0  0  0  0  0  0
   12.3417    1.7610    9.5292 H   0  0  0  0  0  0  0  0  0  0  0  0
   15.6501   -0.9362    7.8206 H   0  0  0  0  0  0  0  0  0  0  0  0
   15.9654   -3.1822    7.1873 H   0  0  0  0  0  0  0  0  0  0  0  0
   14.4205   -2.7320    6.4984 H   0  0  0  0  0  0  0  0  0  0  0  0
   14.4171   -5.0002    7.5338 H   0  0  0  0  0  0  0  0  0  0  0  0
   13.2303   -3.9585    8.3000 H   0  0  0  0  0  0  0  0  0  0  0  0
   15.8830   -4.7283    9.3197 H   0  0  0  0  0  0  0  0  0  0  0  0
   15.4727   -3.4738   11.2473 H   0  0  0  0  0  0  0  0  0  0  0  0
   13.9185   -2.9517   10.6140 H   0  0  0  0  0  0  0  0  0  0  0  0
   16.6829   -2.2983    9.4712 H   0  0  0  0  0  0  0  0  0  0  0  0
   15.6696   -1.1787   10.3611 H   0  0  0  0  0  0  0  0  0  0  0  0
   12.4016   -1.7331    7.0199 H   0  0  0  0  0  0  0  0  0  0  0  0
    8.7155    3.1028    4.5617 H   0  0  0  0  0  0  0  0  0  0  0  0
    4.3342    3.4278    1.5663 H   0  0  0  0  0  0  0  0  0  0  0  0
  1  2  1  0  0  0  0
  1 37  1  0  0  0  0
  1 38  1  0  0  0  0
  1 39  1  0  0  0  0
  2  3  1  0  0  0  0
  3  4  1  0  0  0  0
  3 36  2  0  0  0  0
  4  5  2  0  0  0  0
  4 40  1  0  0  0  0
  5  6  1  0  0  0  0
  5  8  1  0  0  0  0
  6  7  1  0  0  0  0
  7 41  1  0  0  0  0
  7 42  1  0  0  0  0
  7 43  1  0  0  0  0
  8  9  2  0  0  0  0
  8 44  1  0  0  0  0
  9 10  1  0  0  0  0
  9 36  1  0  0  0  0
 10 11  1  0  0  0  0
 10 15  1  0  0  0  0
 11 12  1  0  0  0  0
 11 45  1  0  0  0  0
 11 46  1  0  0  0  0
 12 13  1  0  0  0  0
 12 14  1  0  0  0  0
 12 47  1  0  0  0  0
 13 14  1  0  0  0  0
 13 48  1  0  0  0  0
 13 49  1  0  0  0  0
 14 50  1  0  0  0  0
 14 51  1  0  0  0  0
 15 16  1  0  0  0  0
 15 35  2  0  0  0  0
 16 17  2  0  0  0  0
 16 52  1  0  0  0  0
 17 18  1  0  0  0  0
 17 53  1  0  0  0  0
 18 19  1  0  0  0  0
 18 34  2  0  0  0  0
 19 20  2  0  0  0  0
 20 21  1  0  0  0  0
 20 54  1  0  0  0  0
 21 22  1  0  0  0  0
 21 33  2  0  0  0  0
 22 23  1  0  0  0  0
 22 32  2  0  0  0  0
 23 24  2  0  0  0  0
 23 55  1  0  0  0  0
 24 25  1  0  0  0  0
 25 26  1  0  0  0  0
 25 32  1  0  0  0  0
 26 27  1  0  0  0  0
 26 31  1  0  0  0  0
 26 56  1  0  0  0  0
 27 28  1  0  0  0  0
 27 57  1  0  0  0  0
 27 58  1  0  0  0  0
 28 29  1  0  0  0  0
 28 59  1  0  0  0  0
 28 60  1  0  0  0  0
 29 30  1  0  0  0  0
 29 61  1  0  0  0  0
 30 31  1  0  0  0  0
 30 62  1  0  0  0  0
 30 63  1  0  0  0  0
 31 64  1  0  0  0  0
 31 65  1  0  0  0  0
 32 66  1  0  0  0  0
 33 34  1  0  0  0  0
 34 35  1  0  0  0  0
 35 67  1  0  0  0  0
 36 68  1  0  0  0  0
M  END
$$$$
