CHEMBL3747565
 OpenBabel04072215373D

 53 57  0  0  0  0  0  0  0  0999 V2000
   -0.1370   -0.4009   -0.9170 C   0  0  0  0  0  0  0  0  0  0  0  0
    0.9827    0.6407   -0.7154 C   0  0  0  0  0  0  0  0  0  0  0  0
    0.3898    2.0553   -0.8820 C   0  0  0  0  0  0  0  0  0  0  0  0
    1.4950    0.5147    0.7360 C   0  0  0  0  0  0  0  0  0  0  0  0
    2.0719    0.3987   -1.7388 C   0  0  0  0  0  0  0  0  0  0  0  0
    1.9791    0.4292   -3.1587 C   0  0  0  0  0  0  0  0  0  0  0  0
    3.2269    0.0602   -3.5985 C   0  0  0  0  0  0  0  0  0  0  0  0
    3.7255   -0.1247   -4.8681 N   0  0  0  0  0  0  0  0  0  0  0  0
    5.0786   -0.3011   -5.0579 C   0  0  0  0  0  0  0  0  0  0  0  0
    5.9871   -0.2723   -4.2407 O   0  0  0  0  0  0  0  0  0  0  0  0
    5.4204   -0.3875   -6.4244 N   0  0  0  0  0  0  0  0  0  0  0  0
    6.5803    0.1756   -6.9321 C   0  0  0  0  0  0  0  0  0  0  0  0
    6.6788   -0.0916   -8.2687 C   0  0  0  0  0  0  0  0  0  0  0  0
    5.5792   -0.9179   -8.6121 C   0  0  0  0  0  0  0  0  0  0  0  0
    5.2345   -1.5882   -9.8026 C   0  0  0  0  0  0  0  0  0  0  0  0
    4.1242   -2.4336   -9.8273 C   0  0  0  0  0  0  0  0  0  0  0  0
    3.9413   -3.1164  -11.0207 O   0  0  0  0  0  0  0  0  0  0  0  0
    3.1302   -4.2349  -10.9834 C   0  0  0  0  0  0  0  0  0  0  0  0
    3.3664   -5.1833  -10.0512 N   0  0  0  0  0  0  0  0  0  0  0  0
    2.3716   -6.0664   -9.8448 C   0  0  0  0  0  0  0  0  0  0  0  0
    1.1675   -6.0639  -10.4468 N   0  0  0  0  0  0  0  0  0  0  0  0
    1.0389   -5.1296  -11.3972 C   0  0  0  0  0  0  0  0  0  0  0  0
    2.0128   -4.2322  -11.7563 C   0  0  0  0  0  0  0  0  0  0  0  0
    1.4977   -3.3170  -12.7953 C   0  0  0  0  0  0  0  0  0  0  0  0
    0.0332   -3.3030  -12.5561 N   0  0  0  0  0  0  0  0  0  0  0  0
   -0.2509   -4.6857  -12.0469 C   0  0  0  0  0  0  0  0  0  0  0  0
    3.3045   -2.5289   -8.7025 C   0  0  0  0  0  0  0  0  0  0  0  0
    3.6259   -1.8733   -7.5029 C   0  0  0  0  0  0  0  0  0  0  0  0
    4.7767   -1.0670   -7.4683 C   0  0  0  0  0  0  0  0  0  0  0  0
    4.0252   -0.1471   -2.5179 O   0  0  0  0  0  0  0  0  0  0  0  0
    3.3077    0.0621   -1.3543 N   0  0  0  0  0  0  0  0  0  0  0  0
   -0.9572   -0.2498   -0.2073 H   0  0  0  0  0  0  0  0  0  0  0  0
    0.2478   -1.4181   -0.7755 H   0  0  0  0  0  0  0  0  0  0  0  0
   -0.5577   -0.3493   -1.9272 H   0  0  0  0  0  0  0  0  0  0  0  0
   -0.4090    2.2381   -0.1531 H   0  0  0  0  0  0  0  0  0  0  0  0
   -0.0367    2.2015   -1.8800 H   0  0  0  0  0  0  0  0  0  0  0  0
    1.1559    2.8265   -0.7350 H   0  0  0  0  0  0  0  0  0  0  0  0
    0.6873    0.6808    1.4587 H   0  0  0  0  0  0  0  0  0  0  0  0
    2.2828    1.2474    0.9485 H   0  0  0  0  0  0  0  0  0  0  0  0
    1.9079   -0.4823    0.9303 H   0  0  0  0  0  0  0  0  0  0  0  0
    1.1172    0.6718   -3.7588 H   0  0  0  0  0  0  0  0  0  0  0  0
    3.1135    0.0432   -5.6535 H   0  0  0  0  0  0  0  0  0  0  0  0
    7.2306    0.7370   -6.2723 H   0  0  0  0  0  0  0  0  0  0  0  0
    7.4822    0.2189   -8.9220 H   0  0  0  0  0  0  0  0  0  0  0  0
    5.8693   -1.4975  -10.6796 H   0  0  0  0  0  0  0  0  0  0  0  0
    2.5424   -6.8198   -9.0828 H   0  0  0  0  0  0  0  0  0  0  0  0
    1.6909   -3.7326  -13.7946 H   0  0  0  0  0  0  0  0  0  0  0  0
    1.9255   -2.3118  -12.7494 H   0  0  0  0  0  0  0  0  0  0  0  0
   -0.1144   -2.6715  -11.7669 H   0  0  0  0  0  0  0  0  0  0  0  0
   -0.5148   -5.3411  -12.8790 H   0  0  0  0  0  0  0  0  0  0  0  0
   -1.0652   -4.6547  -11.3156 H   0  0  0  0  0  0  0  0  0  0  0  0
    2.4200   -3.1613   -8.7061 H   0  0  0  0  0  0  0  0  0  0  0  0
    3.0209   -2.0598   -6.6203 H   0  0  0  0  0  0  0  0  0  0  0  0
  1  2  1  0  0  0  0
  1 32  1  0  0  0  0
  1 33  1  0  0  0  0
  1 34  1  0  0  0  0
  2  3  1  0  0  0  0
  2  4  1  0  0  0  0
  2  5  1  0  0  0  0
  3 35  1  0  0  0  0
  3 36  1  0  0  0  0
  3 37  1  0  0  0  0
  4 38  1  0  0  0  0
  4 39  1  0  0  0  0
  4 40  1  0  0  0  0
  5  6  1  0  0  0  0
  5 31  2  0  0  0  0
  6  7  2  0  0  0  0
  6 41  1  0  0  0  0
  7  8  1  0  0  0  0
  7 30  1  0  0  0  0
  8  9  1  0  0  0  0
  8 42  1  0  0  0  0
  9 10  2  0  0  0  0
  9 11  1  0  0  0  0
 11 12  1  0  0  0  0
 11 29  1  0  0  0  0
 12 13  2  0  0  0  0
 12 43  1  0  0  0  0
 13 14  1  0  0  0  0
 13 44  1  0  0  0  0
 14 15  1  0  0  0  0
 14 29  2  0  0  0  0
 15 16  2  0  0  0  0
 15 45  1  0  0  0  0
 16 17  1  0  0  0  0
 16 27  1  0  0  0  0
 17 18  1  0  0  0  0
 18 19  1  0  0  0  0
 18 23  2  0  0  0  0
 19 20  2  0  0  0  0
 20 21  1  0  0  0  0
 20 46  1  0  0  0  0
 21 22  2  0  0  0  0
 22 23  1  0  0  0  0
 22 26  1  0  0  0  0
 23 24  1  0  0  0  0
 24 25  1  0  0  0  0
 24 47  1  0  0  0  0
 24 48  1  0  0  0  0
 25 26  1  0  0  0  0
 25 49  1  0  0  0  0
 26 50  1  0  0  0  0
 26 51  1  0  0  0  0
 27 28  2  0  0  0  0
 27 52  1  0  0  0  0
 28 29  1  0  0  0  0
 28 53  1  0  0  0  0
 30 31  1  0  0  0  0
M  END
$$$$
