CHEMBL3935851
 OpenBabel04072215373D

 52 55  0  0  1  0  0  0  0  0999 V2000
    2.3909   -1.4605   -0.8071 C   0  0  0  0  0  0  0  0  0  0  0  0
    2.4359   -0.2208   -0.0918 O   0  0  0  0  0  0  0  0  0  0  0  0
    3.0201    0.7952   -0.7912 C   0  0  0  0  0  0  0  0  0  0  0  0
    4.1065    0.5329   -1.6269 C   0  0  0  0  0  0  0  0  0  0  0  0
    4.6497    1.5186   -2.4683 C   0  0  0  0  0  0  0  0  0  0  0  0
    5.6663    1.2644   -3.4031 C   0  0  0  0  0  0  0  0  0  0  0  0
    6.0724   -0.0732   -3.6167 N   0  0  0  0  0  0  0  0  0  0  0  0
    7.3525   -0.5774   -3.9168 C   0  0  0  0  0  0  0  0  0  0  0  0
    8.5153    0.1086   -3.5590 C   0  0  0  0  0  0  0  0  0  0  0  0
    9.7667   -0.5059   -3.6569 C   0  0  0  0  0  0  0  0  0  0  0  0
    9.8718   -1.8210   -4.1251 C   0  0  0  0  0  0  0  0  0  0  0  0
   11.5979   -2.6132   -4.1044 Br  0  0  0  0  0  0  0  0  0  0  0  0
    8.7278   -2.5084   -4.5387 C   0  0  0  0  0  0  0  0  0  0  0  0
    8.7885   -4.1195   -5.1628 Cl  0  0  0  0  0  0  0  0  0  0  0  0
    7.4826   -1.8831   -4.4198 C   0  0  0  0  0  0  0  0  0  0  0  0
    6.3628   -2.5449   -4.7651 F   0  0  0  0  0  0  0  0  0  0  0  0
    6.2036    2.2374   -4.1534 N   0  0  0  0  0  0  0  0  0  0  0  0
    5.6805    3.4587   -3.9921 C   0  0  0  0  0  0  0  0  0  0  0  0
    4.6942    3.8018   -3.1488 N   0  0  0  0  0  0  0  0  0  0  0  0
    4.1811    2.8288   -2.3857 C   0  0  0  0  0  0  0  0  0  0  0  0
    3.1552    3.1019   -1.4795 C   0  0  0  0  0  0  0  0  0  0  0  0
    2.5564    2.1091   -0.6750 C   0  0  0  0  0  0  0  0  0  0  0  0
    1.5646    2.5967    0.1343 O   0  0  0  0  0  0  0  0  0  0  0  0
    0.8141    1.6850    0.9555 C   0  0  0  0  0  0  0  0  0  0  0  0
   -0.2730    2.4922    1.7031 C   0  0  2  0  0  0  0  0  0  0  0  0
   -1.1124    1.6079    2.6547 C   0  0  0  0  0  0  0  0  0  0  0  0
   -1.9888    0.6899    1.9036 N   0  0  0  0  0  0  0  0  0  0  0  0
   -2.7919   -0.1273    2.8175 C   0  0  0  0  0  0  0  0  0  0  0  0
   -2.8975    1.4528    1.0090 C   0  0  0  0  0  0  0  0  0  0  0  0
   -2.1861    2.5135    0.1620 C   0  0  0  0  0  0  0  0  0  0  0  0
   -2.5968    2.8640   -0.9423 O   0  0  0  0  0  0  0  0  0  0  0  0
   -1.1364    3.1791    0.7462 N   0  0  0  0  0  0  0  0  0  0  0  0
    1.5705   -2.0576   -0.4012 H   0  0  0  0  0  0  0  0  0  0  0  0
    3.3151   -2.0203   -0.6480 H   0  0  0  0  0  0  0  0  0  0  0  0
    2.2049   -1.3200   -1.8819 H   0  0  0  0  0  0  0  0  0  0  0  0
    4.5567   -0.4571   -1.6294 H   0  0  0  0  0  0  0  0  0  0  0  0
    5.3202   -0.6215   -4.0277 H   0  0  0  0  0  0  0  0  0  0  0  0
    8.4554    1.1177   -3.1570 H   0  0  0  0  0  0  0  0  0  0  0  0
   10.6472    0.0419   -3.3359 H   0  0  0  0  0  0  0  0  0  0  0  0
    6.0870    4.2480   -4.6153 H   0  0  0  0  0  0  0  0  0  0  0  0
    2.7909    4.1260   -1.4086 H   0  0  0  0  0  0  0  0  0  0  0  0
    1.4818    1.2253    1.6932 H   0  0  0  0  0  0  0  0  0  0  0  0
    0.3394    0.9249    0.3259 H   0  0  0  0  0  0  0  0  0  0  0  0
    0.2135    3.2855    2.2837 H   0  0  0  0  0  0  0  0  0  0  0  0
   -1.7184    2.2538    3.3049 H   0  0  0  0  0  0  0  0  0  0  0  0
   -0.4381    1.0351    3.3035 H   0  0  0  0  0  0  0  0  0  0  0  0
   -2.1494   -0.7297    3.4683 H   0  0  0  0  0  0  0  0  0  0  0  0
   -3.4194   -0.8281    2.2549 H   0  0  0  0  0  0  0  0  0  0  0  0
   -3.4469    0.4822    3.4519 H   0  0  0  0  0  0  0  0  0  0  0  0
   -3.6762    1.9736    1.5803 H   0  0  0  0  0  0  0  0  0  0  0  0
   -3.3776    0.7509    0.3173 H   0  0  0  0  0  0  0  0  0  0  0  0
   -0.6863    3.8357    0.1194 H   0  0  0  0  0  0  0  0  0  0  0  0
  1  2  1  0  0  0  0
  1 33  1  0  0  0  0
  1 34  1  0  0  0  0
  1 35  1  0  0  0  0
  2  3  1  0  0  0  0
  3  4  1  0  0  0  0
  3 22  2  0  0  0  0
  4  5  2  0  0  0  0
  4 36  1  0  0  0  0
  5  6  1  0  0  0  0
  5 20  1  0  0  0  0
  6  7  1  0  0  0  0
  6 17  2  0  0  0  0
  7  8  1  0  0  0  0
  7 37  1  0  0  0  0
  8  9  1  0  0  0  0
  8 15  2  0  0  0  0
  9 10  2  0  0  0  0
  9 38  1  0  0  0  0
 10 11  1  0  0  0  0
 10 39  1  0  0  0  0
 11 12  1  0  0  0  0
 11 13  2  0  0  0  0
 13 14  1  0  0  0  0
 13 15  1  0  0  0  0
 15 16  1  0  0  0  0
 17 18  1  0  0  0  0
 18 19  2  0  0  0  0
 18 40  1  0  0  0  0
 19 20  1  0  0  0  0
 20 21  2  0  0  0  0
 21 22  1  0  0  0  0
 21 41  1  0  0  0  0
 22 23  1  0  0  0  0
 23 24  1  0  0  0  0
 24 25  1  0  0  0  0
 24 42  1  0  0  0  0
 24 43  1  0  0  0  0
 25 26  1  0  0  0  0
 25 32  1  0  0  0  0
 25 44  1  1  0  0  0
 26 27  1  0  0  0  0
 26 45  1  0  0  0  0
 26 46  1  0  0  0  0
 27 28  1  0  0  0  0
 27 29  1  0  0  0  0
 28 47  1  0  0  0  0
 28 48  1  0  0  0  0
 28 49  1  0  0  0  0
 29 30  1  0  0  0  0
 29 50  1  0  0  0  0
 29 51  1  0  0  0  0
 30 31  2  0  0  0  0
 30 32  1  0  0  0  0
 32 52  1  0  0  0  0
M  END
$$$$
