CHEMBL363153
 OpenBabel04072215373D

 32 34  0  0  0  0  0  0  0  0999 V2000
    1.2168    0.0643   -0.8394 C   0  0  0  0  0  0  0  0  0  0  0  0
    2.6218   -0.0577   -0.3769 C   0  0  0  0  0  0  0  0  0  0  0  0
    3.5111    0.9910   -0.4307 N   0  0  0  0  0  0  0  0  0  0  0  0
    4.7199    0.6112    0.1039 C   0  0  0  0  0  0  0  0  0  0  0  0
    5.7721    1.5569    0.1722 C   0  0  0  0  0  0  0  0  0  0  0  0
    5.9467    2.3668    1.2295 C   0  0  0  0  0  0  0  0  0  0  0  0
    5.0468    2.4894    2.4394 C   0  0  0  0  0  0  0  0  0  0  0  0
    3.9640    1.9813    2.6453 O   0  0  0  0  0  0  0  0  0  0  0  0
    5.7032    3.3683    3.2851 N   0  0  0  0  0  0  0  0  0  0  0  0
    6.8872    3.8297    2.7252 C   0  0  0  0  0  0  0  0  0  0  0  0
    7.7693    4.7213    3.3011 C   0  0  0  0  0  0  0  0  0  0  0  0
    8.9020    5.0657    2.5636 C   0  0  0  0  0  0  0  0  0  0  0  0
    9.1201    4.5154    1.2862 C   0  0  0  0  0  0  0  0  0  0  0  0
    8.2111    3.6073    0.7239 C   0  0  0  0  0  0  0  0  0  0  0  0
    7.0879    3.2685    1.4584 C   0  0  0  0  0  0  0  0  0  0  0  0
    4.6126   -0.7133    0.5013 C   0  0  0  0  0  0  0  0  0  0  0  0
    5.6549   -1.5405    1.1648 C   0  0  0  0  0  0  0  0  0  0  0  0
    3.2844   -1.1236    0.1941 C   0  0  0  0  0  0  0  0  0  0  0  0
    2.6348   -2.6653    0.5149 Cl  0  0  0  0  0  0  0  0  0  0  0  0
    1.0105    1.0523   -1.2621 H   0  0  0  0  0  0  0  0  0  0  0  0
    0.5275   -0.0961   -0.0035 H   0  0  0  0  0  0  0  0  0  0  0  0
    1.0004   -0.6849   -1.6081 H   0  0  0  0  0  0  0  0  0  0  0  0
    3.2919    1.9181   -0.7697 H   0  0  0  0  0  0  0  0  0  0  0  0
    6.5040    1.5357   -0.6301 H   0  0  0  0  0  0  0  0  0  0  0  0
    5.3248    3.6373    4.1787 H   0  0  0  0  0  0  0  0  0  0  0  0
    7.5953    5.1392    4.2860 H   0  0  0  0  0  0  0  0  0  0  0  0
    9.6234    5.7660    2.9799 H   0  0  0  0  0  0  0  0  0  0  0  0
   10.0121    4.8011    0.7312 H   0  0  0  0  0  0  0  0  0  0  0  0
    8.3985    3.1883   -0.2590 H   0  0  0  0  0  0  0  0  0  0  0  0
    6.5972   -0.9956    1.2760 H   0  0  0  0  0  0  0  0  0  0  0  0
    5.8561   -2.4439    0.5806 H   0  0  0  0  0  0  0  0  0  0  0  0
    5.3210   -1.8394    2.1640 H   0  0  0  0  0  0  0  0  0  0  0  0
  1  2  1  0  0  0  0
  1 20  1  0  0  0  0
  1 21  1  0  0  0  0
  1 22  1  0  0  0  0
  2  3  1  0  0  0  0
  2 18  2  0  0  0  0
  3  4  1  0  0  0  0
  3 23  1  0  0  0  0
  4  5  1  0  0  0  0
  4 16  2  0  0  0  0
  5  6  2  0  0  0  0
  5 24  1  0  0  0  0
  6  7  1  0  0  0  0
  6 15  1  0  0  0  0
  7  8  2  0  0  0  0
  7  9  1  0  0  0  0
  9 10  1  0  0  0  0
  9 25  1  0  0  0  0
 10 11  1  0  0  0  0
 10 15  2  0  0  0  0
 11 12  2  0  0  0  0
 11 26  1  0  0  0  0
 12 13  1  0  0  0  0
 12 27  1  0  0  0  0
 13 14  2  0  0  0  0
 13 28  1  0  0  0  0
 14 15  1  0  0  0  0
 14 29  1  0  0  0  0
 16 17  1  0  0  0  0
 16 18  1  0  0  0  0
 17 30  1  0  0  0  0
 17 31  1  0  0  0  0
 17 32  1  0  0  0  0
 18 19  1  0  0  0  0
M  END
$$$$
