CHEMBL3909658
 OpenBabel04072215373D

 49 52  0  0  0  0  0  0  0  0999 V2000
    2.9161   -5.8952   -0.8178 C   0  0  0  0  0  0  0  0  0  0  0  0
    1.4665   -6.2212   -1.0318 C   0  0  0  0  0  0  0  0  0  0  0  0
    1.1216   -7.4230   -1.6615 C   0  0  0  0  0  0  0  0  0  0  0  0
   -0.2124   -7.7404   -1.8687 C   0  0  0  0  0  0  0  0  0  0  0  0
   -1.2256   -6.8705   -1.4445 C   0  0  0  0  0  0  0  0  0  0  0  0
   -0.9114   -5.6675   -0.7968 C   0  0  0  0  0  0  0  0  0  0  0  0
   -1.9056   -4.7597   -0.3619 N   0  0  0  0  0  0  0  0  0  0  0  0
   -3.2821   -4.9779   -0.3214 C   0  0  0  0  0  0  0  0  0  0  0  0
   -3.8147   -6.0745   -0.4929 O   0  0  0  0  0  0  0  0  0  0  0  0
   -3.9864   -3.8091   -0.0809 N   0  0  0  0  0  0  0  0  0  0  0  0
   -5.4027   -3.7111   -0.0045 C   0  0  0  0  0  0  0  0  0  0  0  0
   -6.0006   -2.5377   -0.4690 C   0  0  0  0  0  0  0  0  0  0  0  0
   -7.3907   -2.3842   -0.4346 C   0  0  0  0  0  0  0  0  0  0  0  0
   -8.2112   -3.4252    0.0050 C   0  0  0  0  0  0  0  0  0  0  0  0
   -7.6464   -4.6632    0.3317 C   0  0  0  0  0  0  0  0  0  0  0  0
   -8.4518   -5.9402    0.0759 C   0  0  0  0  0  0  0  0  0  0  0  0
   -7.7883   -7.1218   -0.3027 C   0  0  0  0  0  0  0  0  0  0  0  0
   -7.5851   -6.8787   -1.7084 C   0  0  0  0  0  0  0  0  0  0  0  0
   -6.5581   -7.1639   -2.6163 C   0  0  0  0  0  0  0  0  0  0  0  0
   -6.6314   -6.6245   -3.9085 C   0  0  0  0  0  0  0  0  0  0  0  0
   -7.7393   -5.8668   -4.3078 C   0  0  0  0  0  0  0  0  0  0  0  0
   -8.7965   -5.6078   -3.4369 C   0  0  0  0  0  0  0  0  0  0  0  0
   -8.6502   -6.0708   -2.1267 C   0  0  0  0  0  0  0  0  0  0  0  0
   -9.4147   -5.9190   -0.9796 N   0  0  0  0  0  0  0  0  0  0  0  0
  -10.7927   -5.6937   -0.9223 C   0  0  0  0  0  0  0  0  0  0  0  0
  -11.3747   -6.3405    0.1343 N   0  0  0  0  0  0  0  0  0  0  0  0
  -11.3988   -5.1308   -1.8228 O   0  0  0  0  0  0  0  0  0  0  0  0
   -6.2331   -4.7509    0.4376 C   0  0  0  0  0  0  0  0  0  0  0  0
    0.4410   -5.3547   -0.5958 C   0  0  0  0  0  0  0  0  0  0  0  0
    3.5691   -6.6685   -1.2361 H   0  0  0  0  0  0  0  0  0  0  0  0
    3.1402   -5.8164    0.2492 H   0  0  0  0  0  0  0  0  0  0  0  0
    3.1721   -4.9505   -1.3148 H   0  0  0  0  0  0  0  0  0  0  0  0
    1.8858   -8.1146   -2.0016 H   0  0  0  0  0  0  0  0  0  0  0  0
   -0.4864   -8.6729   -2.3682 H   0  0  0  0  0  0  0  0  0  0  0  0
   -2.2467   -7.1608   -1.6497 H   0  0  0  0  0  0  0  0  0  0  0  0
   -1.5760   -3.9186    0.1070 H   0  0  0  0  0  0  0  0  0  0  0  0
   -3.5038   -2.9657   -0.3558 H   0  0  0  0  0  0  0  0  0  0  0  0
   -5.4033   -1.7561   -0.9306 H   0  0  0  0  0  0  0  0  0  0  0  0
   -7.8448   -1.4836   -0.8411 H   0  0  0  0  0  0  0  0  0  0  0  0
   -9.2896   -3.3006   -0.0583 H   0  0  0  0  0  0  0  0  0  0  0  0
   -7.0404   -7.6249    0.3025 H   0  0  0  0  0  0  0  0  0  0  0  0
   -5.6675   -7.7016   -2.2939 H   0  0  0  0  0  0  0  0  0  0  0  0
   -5.7939   -6.7521   -4.5866 H   0  0  0  0  0  0  0  0  0  0  0  0
   -7.7672   -5.4562   -5.3186 H   0  0  0  0  0  0  0  0  0  0  0  0
   -9.6466   -5.0026   -3.7382 H   0  0  0  0  0  0  0  0  0  0  0  0
  -10.8785   -7.0994    0.5847 H   0  0  0  0  0  0  0  0  0  0  0  0
  -12.3756   -6.4691    0.0332 H   0  0  0  0  0  0  0  0  0  0  0  0
   -5.7805   -5.6890    0.7465 H   0  0  0  0  0  0  0  0  0  0  0  0
    0.7242   -4.4243   -0.1102 H   0  0  0  0  0  0  0  0  0  0  0  0
  1  2  1  0  0  0  0
  1 30  1  0  0  0  0
  1 31  1  0  0  0  0
  1 32  1  0  0  0  0
  2  3  1  0  0  0  0
  2 29  2  0  0  0  0
  3  4  2  0  0  0  0
  3 33  1  0  0  0  0
  4  5  1  0  0  0  0
  4 34  1  0  0  0  0
  5  6  2  0  0  0  0
  5 35  1  0  0  0  0
  6  7  1  0  0  0  0
  6 29  1  0  0  0  0
  7  8  1  0  0  0  0
  7 36  1  0  0  0  0
  8  9  2  0  0  0  0
  8 10  1  0  0  0  0
 10 11  1  0  0  0  0
 10 37  1  0  0  0  0
 11 12  1  0  0  0  0
 11 28  2  0  0  0  0
 12 13  2  0  0  0  0
 12 38  1  0  0  0  0
 13 14  1  0  0  0  0
 13 39  1  0  0  0  0
 14 15  2  0  0  0  0
 14 40  1  0  0  0  0
 15 16  1  0  0  0  0
 15 28  1  0  0  0  0
 16 17  2  0  0  0  0
 16 24  1  0  0  0  0
 17 18  1  0  0  0  0
 17 41  1  0  0  0  0
 18 19  1  0  0  0  0
 18 23  2  0  0  0  0
 19 20  2  0  0  0  0
 19 42  1  0  0  0  0
 20 21  1  0  0  0  0
 20 43  1  0  0  0  0
 21 22  2  0  0  0  0
 21 44  1  0  0  0  0
 22 23  1  0  0  0  0
 22 45  1  0  0  0  0
 23 24  1  0  0  0  0
 24 25  1  0  0  0  0
 25 26  1  0  0  0  0
 25 27  2  0  0  0  0
 26 46  1  0  0  0  0
 26 47  1  0  0  0  0
 28 48  1  0  0  0  0
 29 49  1  0  0  0  0
M  END
$$$$
