CHEMBL4483816
 OpenBabel04072215383D

 50 54  0  0  0  0  0  0  0  0999 V2000
    1.4218    4.4003    3.1326 C   0  0  0  0  0  0  0  0  0  0  0  0
    0.4508    4.6419    2.0148 C   0  0  0  0  0  0  0  0  0  0  0  0
    0.2549    5.9234    1.5147 C   0  0  0  0  0  0  0  0  0  0  0  0
   -0.6843    6.1103    0.5072 C   0  0  0  0  0  0  0  0  0  0  0  0
   -1.3908    5.0165    0.0168 C   0  0  0  0  0  0  0  0  0  0  0  0
   -1.1314    3.7530    0.5429 C   0  0  0  0  0  0  0  0  0  0  0  0
   -1.7597    2.5196   -0.0547 C   0  0  0  0  0  0  0  0  0  0  0  0
   -3.2116    2.4766    0.0718 N   0  0  0  0  0  0  0  0  0  0  0  0
   -3.9787    2.9357   -0.9426 N   0  0  0  0  0  0  0  0  0  0  0  0
   -5.2220    2.5687   -0.6051 C   0  0  0  0  0  0  0  0  0  0  0  0
   -6.3592    2.9520   -1.4767 C   0  0  0  0  0  0  0  0  0  0  0  0
   -5.2599    1.8384    0.6180 C   0  0  0  0  0  0  0  0  0  0  0  0
   -6.2494    1.2485    1.4331 C   0  0  0  0  0  0  0  0  0  0  0  0
   -7.6134    1.2052    1.0386 N   0  0  0  0  0  0  0  0  0  0  0  0
   -8.6320    1.6629    1.8609 C   0  0  0  0  0  0  0  0  0  0  0  0
   -8.4369    2.1285    2.9824 O   0  0  0  0  0  0  0  0  0  0  0  0
   -9.9938    1.6287    1.3053 C   0  0  0  0  0  0  0  0  0  0  0  0
  -11.0448    2.1955    2.0086 C   0  0  0  0  0  0  0  0  0  0  0  0
  -12.5545    2.0135    1.2501 S   0  0  0  0  0  0  0  0  0  0  0  0
  -11.8612    1.1627   -0.0681 C   0  0  0  0  0  0  0  0  0  0  0  0
  -12.4937    0.5981   -1.1784 C   0  0  0  0  0  0  0  0  0  0  0  0
  -13.8582    0.6554   -1.3961 N   0  0  0  0  0  0  0  0  0  0  0  0
  -11.7370   -0.0391   -2.0851 N   0  0  0  0  0  0  0  0  0  0  0  0
  -10.4110   -0.0868   -1.8864 C   0  0  0  0  0  0  0  0  0  0  0  0
   -9.7068    0.4292   -0.8672 N   0  0  0  0  0  0  0  0  0  0  0  0
  -10.4737    1.0474    0.0754 C   0  0  0  0  0  0  0  0  0  0  0  0
   -5.8495    0.6469    2.6422 C   0  0  0  0  0  0  0  0  0  0  0  0
   -4.5150    0.6297    3.0345 C   0  0  0  0  0  0  0  0  0  0  0  0
   -3.5263    1.2294    2.2543 C   0  0  0  0  0  0  0  0  0  0  0  0
   -3.9328    1.8263    1.0512 C   0  0  0  0  0  0  0  0  0  0  0  0
   -0.2183    3.5617    1.5360 N   0  0  0  0  0  0  0  0  0  0  0  0
    1.9034    5.3281    3.4598 H   0  0  0  0  0  0  0  0  0  0  0  0
    2.2043    3.7060    2.8117 H   0  0  0  0  0  0  0  0  0  0  0  0
    0.8953    3.9731    3.9916 H   0  0  0  0  0  0  0  0  0  0  0  0
    0.8156    6.7681    1.9020 H   0  0  0  0  0  0  0  0  0  0  0  0
   -0.8600    7.1028    0.1015 H   0  0  0  0  0  0  0  0  0  0  0  0
   -2.1194    5.1506   -0.7784 H   0  0  0  0  0  0  0  0  0  0  0  0
   -1.3601    1.6174    0.4215 H   0  0  0  0  0  0  0  0  0  0  0  0
   -1.5142    2.4537   -1.1210 H   0  0  0  0  0  0  0  0  0  0  0  0
   -6.0201    3.5189   -2.3498 H   0  0  0  0  0  0  0  0  0  0  0  0
   -7.0707    3.5769   -0.9270 H   0  0  0  0  0  0  0  0  0  0  0  0
   -6.8819    2.0615   -1.8384 H   0  0  0  0  0  0  0  0  0  0  0  0
   -7.8309    1.1124    0.0532 H   0  0  0  0  0  0  0  0  0  0  0  0
  -10.9874    2.7093    2.9610 H   0  0  0  0  0  0  0  0  0  0  0  0
  -14.4367    0.8297   -0.5812 H   0  0  0  0  0  0  0  0  0  0  0  0
  -14.1874   -0.0455   -2.0501 H   0  0  0  0  0  0  0  0  0  0  0  0
   -9.8383   -0.6030   -2.6541 H   0  0  0  0  0  0  0  0  0  0  0  0
   -6.5896    0.1570    3.2793 H   0  0  0  0  0  0  0  0  0  0  0  0
   -4.2290    0.1395    3.9644 H   0  0  0  0  0  0  0  0  0  0  0  0
   -2.4928    1.2368    2.5728 H   0  0  0  0  0  0  0  0  0  0  0  0
  1  2  1  0  0  0  0
  1 32  1  0  0  0  0
  1 33  1  0  0  0  0
  1 34  1  0  0  0  0
  2  3  1  0  0  0  0
  2 31  2  0  0  0  0
  3  4  2  0  0  0  0
  3 35  1  0  0  0  0
  4  5  1  0  0  0  0
  4 36  1  0  0  0  0
  5  6  2  0  0  0  0
  5 37  1  0  0  0  0
  6  7  1  0  0  0  0
  6 31  1  0  0  0  0
  7  8  1  0  0  0  0
  7 38  1  0  0  0  0
  7 39  1  0  0  0  0
  8  9  1  0  0  0  0
  8 30  1  0  0  0  0
  9 10  2  0  0  0  0
 10 11  1  0  0  0  0
 10 12  1  0  0  0  0
 11 40  1  0  0  0  0
 11 41  1  0  0  0  0
 11 42  1  0  0  0  0
 12 13  1  0  0  0  0
 12 30  2  0  0  0  0
 13 14  1  0  0  0  0
 13 27  2  0  0  0  0
 14 15  1  0  0  0  0
 14 43  1  0  0  0  0
 15 16  2  0  0  0  0
 15 17  1  0  0  0  0
 17 18  2  0  0  0  0
 17 26  1  0  0  0  0
 18 19  1  0  0  0  0
 18 44  1  0  0  0  0
 19 20  1  0  0  0  0
 20 21  1  0  0  0  0
 20 26  2  0  0  0  0
 21 22  1  0  0  0  0
 21 23  2  0  0  0  0
 22 45  1  0  0  0  0
 22 46  1  0  0  0  0
 23 24  1  0  0  0  0
 24 25  2  0  0  0  0
 24 47  1  0  0  0  0
 25 26  1  0  0  0  0
 27 28  1  0  0  0  0
 27 48  1  0  0  0  0
 28 29  2  0  0  0  0
 28 49  1  0  0  0  0
 29 30  1  0  0  0  0
 29 50  1  0  0  0  0
M  END
$$$$
