CHEMBL3656117
 OpenBabel04072215373D

 52 55  0  0  0  0  0  0  0  0999 V2000
    3.3031    6.0737    1.5519 C   0  0  0  0  0  0  0  0  0  0  0  0
    1.8984    6.4795    1.2116 C   0  0  0  0  0  0  0  0  0  0  0  0
    1.5488    7.8333    1.2283 C   0  0  0  0  0  0  0  0  0  0  0  0
    0.2615    8.2212    0.8788 C   0  0  0  0  0  0  0  0  0  0  0  0
   -0.6894    7.2645    0.5314 C   0  0  0  0  0  0  0  0  0  0  0  0
   -1.8565    7.7403    0.0837 F   0  0  0  0  0  0  0  0  0  0  0  0
   -0.3995    5.8923    0.5667 C   0  0  0  0  0  0  0  0  0  0  0  0
   -1.3364    4.8559    0.3145 N   0  0  0  0  0  0  0  0  0  0  0  0
   -2.7130    4.9834    0.3196 C   0  0  0  0  0  0  0  0  0  0  0  0
   -3.3377    6.0135    0.5619 O   0  0  0  0  0  0  0  0  0  0  0  0
   -3.3631    3.7778    0.0906 N   0  0  0  0  0  0  0  0  0  0  0  0
   -4.7821    3.7409    0.0377 C   0  0  0  0  0  0  0  0  0  0  0  0
   -5.5189    4.6357   -0.7450 C   0  0  0  0  0  0  0  0  0  0  0  0
   -6.9191    4.6071   -0.7156 C   0  0  0  0  0  0  0  0  0  0  0  0
   -7.5901    3.7005    0.1090 C   0  0  0  0  0  0  0  0  0  0  0  0
   -8.9663    3.7733    0.0916 O   0  0  0  0  0  0  0  0  0  0  0  0
   -9.6853    3.4162    1.2104 C   0  0  0  0  0  0  0  0  0  0  0  0
   -9.2864    3.6935    2.5139 C   0  0  0  0  0  0  0  0  0  0  0  0
  -10.0873    3.2396    3.5467 C   0  0  0  0  0  0  0  0  0  0  0  0
  -11.2551    2.5845    3.3645 N   0  0  0  0  0  0  0  0  0  0  0  0
  -11.6530    2.3864    2.0834 C   0  0  0  0  0  0  0  0  0  0  0  0
  -12.9360    1.7023    1.9550 C   0  0  0  0  0  0  0  0  0  0  0  0
  -13.6832    1.3309    0.8519 C   0  0  0  0  0  0  0  0  0  0  0  0
  -14.8906    0.7135    1.2956 C   0  0  0  0  0  0  0  0  0  0  0  0
  -15.9540    0.1955    0.4423 C   0  0  0  0  0  0  0  0  0  0  0  0
  -15.7837   -0.1266   -0.7241 O   0  0  0  0  0  0  0  0  0  0  0  0
  -17.1739    0.1370    1.0336 O   0  0  0  0  0  0  0  0  0  0  0  0
  -14.8212    0.6894    2.6789 C   0  0  0  0  0  0  0  0  0  0  0  0
  -13.6415    1.2779    3.0596 N   0  0  0  0  0  0  0  0  0  0  0  0
  -10.9089    2.7922    0.9849 C   0  0  0  0  0  0  0  0  0  0  0  0
   -6.8563    2.7641    0.8440 C   0  0  0  0  0  0  0  0  0  0  0  0
   -5.4640    2.7990    0.8080 C   0  0  0  0  0  0  0  0  0  0  0  0
   -4.7698    1.9543    1.5868 F   0  0  0  0  0  0  0  0  0  0  0  0
    0.9228    5.5167    0.8824 C   0  0  0  0  0  0  0  0  0  0  0  0
    3.9299    6.9483    1.7646 H   0  0  0  0  0  0  0  0  0  0  0  0
    3.7584    5.5406    0.7107 H   0  0  0  0  0  0  0  0  0  0  0  0
    3.3128    5.4348    2.4404 H   0  0  0  0  0  0  0  0  0  0  0  0
    2.2770    8.5968    1.4916 H   0  0  0  0  0  0  0  0  0  0  0  0
   -0.0164    9.2695    0.8549 H   0  0  0  0  0  0  0  0  0  0  0  0
   -0.9717    3.9155    0.2306 H   0  0  0  0  0  0  0  0  0  0  0  0
   -2.9440    2.9895    0.5725 H   0  0  0  0  0  0  0  0  0  0  0  0
   -5.0155    5.3670   -1.3735 H   0  0  0  0  0  0  0  0  0  0  0  0
   -7.4825    5.3101   -1.3236 H   0  0  0  0  0  0  0  0  0  0  0  0
   -8.3716    4.2313    2.7324 H   0  0  0  0  0  0  0  0  0  0  0  0
   -9.7962    3.3932    4.5824 H   0  0  0  0  0  0  0  0  0  0  0  0
  -13.4150    1.4967   -0.1855 H   0  0  0  0  0  0  0  0  0  0  0  0
  -17.1620    0.5563    1.9120 H   0  0  0  0  0  0  0  0  0  0  0  0
  -15.4834    0.2812    3.4308 H   0  0  0  0  0  0  0  0  0  0  0  0
  -13.3018    1.3974    4.0064 H   0  0  0  0  0  0  0  0  0  0  0  0
  -11.2577    2.6250   -0.0268 H   0  0  0  0  0  0  0  0  0  0  0  0
   -7.3386    2.0202    1.4679 H   0  0  0  0  0  0  0  0  0  0  0  0
    1.2042    4.4654    0.8943 H   0  0  0  0  0  0  0  0  0  0  0  0
  1  2  1  0  0  0  0
  1 35  1  0  0  0  0
  1 36  1  0  0  0  0
  1 37  1  0  0  0  0
  2  3  1  0  0  0  0
  2 34  2  0  0  0  0
  3  4  2  0  0  0  0
  3 38  1  0  0  0  0
  4  5  1  0  0  0  0
  4 39  1  0  0  0  0
  5  6  1  0  0  0  0
  5  7  2  0  0  0  0
  7  8  1  0  0  0  0
  7 34  1  0  0  0  0
  8  9  1  0  0  0  0
  8 40  1  0  0  0  0
  9 10  2  0  0  0  0
  9 11  1  0  0  0  0
 11 12  1  0  0  0  0
 11 41  1  0  0  0  0
 12 13  1  0  0  0  0
 12 32  2  0  0  0  0
 13 14  2  0  0  0  0
 13 42  1  0  0  0  0
 14 15  1  0  0  0  0
 14 43  1  0  0  0  0
 15 16  1  0  0  0  0
 15 31  2  0  0  0  0
 16 17  1  0  0  0  0
 17 18  1  0  0  0  0
 17 30  2  0  0  0  0
 18 19  2  0  0  0  0
 18 44  1  0  0  0  0
 19 20  1  0  0  0  0
 19 45  1  0  0  0  0
 20 21  2  0  0  0  0
 21 22  1  0  0  0  0
 21 30  1  0  0  0  0
 22 23  2  0  0  0  0
 22 29  1  0  0  0  0
 23 24  1  0  0  0  0
 23 46  1  0  0  0  0
 24 25  1  0  0  0  0
 24 28  2  0  0  0  0
 25 26  2  0  0  0  0
 25 27  1  0  0  0  0
 27 47  1  0  0  0  0
 28 29  1  0  0  0  0
 28 48  1  0  0  0  0
 29 49  1  0  0  0  0
 30 50  1  0  0  0  0
 31 32  1  0  0  0  0
 31 51  1  0  0  0  0
 32 33  1  0  0  0  0
 34 52  1  0  0  0  0
M  END
$$$$
