CHEMBL1976376
 OpenBabel04072215363D

 52 56  0  0  1  0  0  0  0  0999 V2000
    1.0869    0.3594   -0.0122 N   0  0  0  0  0  0  0  0  0  0  0  0
    2.4609    0.1572   -0.0501 C   0  0  0  0  0  0  0  0  0  0  0  0
    3.2076    1.2800   -0.0640 N   0  0  0  0  0  0  0  0  0  0  0  0
    4.5443    1.1575   -0.0761 C   0  0  0  0  0  0  0  0  0  0  0  0
    5.2675    0.0306   -0.0695 N   0  0  0  0  0  0  0  0  0  0  0  0
    4.4949   -1.0690   -0.0563 C   0  0  0  0  0  0  0  0  0  0  0  0
    3.1009   -1.0993   -0.0511 C   0  0  0  0  0  0  0  0  0  0  0  0
    2.7238   -2.4884   -0.0628 C   0  0  0  0  0  0  0  0  0  0  0  0
    1.4199   -3.1352   -0.1512 C   0  0  0  0  0  0  0  0  0  0  0  0
    0.3812   -2.5197   -0.8512 C   0  0  0  0  0  0  0  0  0  0  0  0
   -0.8746   -3.1107   -0.9363 C   0  0  0  0  0  0  0  0  0  0  0  0
   -1.0649   -4.4125   -0.4742 C   0  0  0  0  0  0  0  0  0  0  0  0
   -2.2173   -5.1382   -0.6880 O   0  0  0  0  0  0  0  0  0  0  0  0
   -2.9417   -4.8980   -1.8380 C   0  0  0  0  0  0  0  0  0  0  0  0
   -2.3658   -4.5558   -3.0670 C   0  0  0  0  0  0  0  0  0  0  0  0
   -3.1718   -4.1803   -4.1411 C   0  0  0  0  0  0  0  0  0  0  0  0
   -4.5651   -4.2226   -4.0249 C   0  0  0  0  0  0  0  0  0  0  0  0
   -5.4401   -3.7581   -5.1564 C   0  0  0  0  0  0  0  0  0  0  0  0
   -6.2010   -4.8382   -5.6734 O   0  0  0  0  0  0  0  0  0  0  0  0
   -5.1341   -4.6836   -2.8276 C   0  0  0  0  0  0  0  0  0  0  0  0
   -4.3262   -5.0136   -1.7365 C   0  0  0  0  0  0  0  0  0  0  0  0
   -0.0457   -5.0427    0.2361 C   0  0  0  0  0  0  0  0  0  0  0  0
    1.1843   -4.3982    0.4146 C   0  0  0  0  0  0  0  0  0  0  0  0
    3.8961   -3.2233   -0.0362 C   0  0  0  0  0  0  0  0  0  0  0  0
    4.9601   -2.3623   -0.0705 N   0  0  0  0  0  0  0  0  0  0  0  0
    6.3725   -2.7368   -0.1504 C   0  0  3  0  0  0  0  0  0  0  0  0
    6.7210   -3.4743   -1.4282 C   0  0  0  0  0  0  0  0  0  0  0  0
    6.6070   -4.9357   -1.0459 C   0  0  0  0  0  0  0  0  0  0  0  0
    6.7998   -5.0314    0.3699 O   0  0  0  0  0  0  0  0  0  0  0  0
    6.8053   -3.7090    0.9336 C   0  0  0  0  0  0  0  0  0  0  0  0
    0.8790    1.3272    0.2044 H   0  0  0  0  0  0  0  0  0  0  0  0
    0.5869   -0.3289    0.5365 H   0  0  0  0  0  0  0  0  0  0  0  0
    5.1037    2.0884   -0.0769 H   0  0  0  0  0  0  0  0  0  0  0  0
    0.5338   -1.5802   -1.3757 H   0  0  0  0  0  0  0  0  0  0  0  0
   -1.6710   -2.5641   -1.4334 H   0  0  0  0  0  0  0  0  0  0  0  0
   -1.2858   -4.5178   -3.1863 H   0  0  0  0  0  0  0  0  0  0  0  0
   -2.6992   -3.8324   -5.0571 H   0  0  0  0  0  0  0  0  0  0  0  0
   -4.8422   -3.3427   -5.9746 H   0  0  0  0  0  0  0  0  0  0  0  0
   -6.1184   -2.9713   -4.8103 H   0  0  0  0  0  0  0  0  0  0  0  0
   -5.5947   -5.5941   -5.7552 H   0  0  0  0  0  0  0  0  0  0  0  0
   -6.2158   -4.7611   -2.7344 H   0  0  0  0  0  0  0  0  0  0  0  0
   -4.7784   -5.3333   -0.8014 H   0  0  0  0  0  0  0  0  0  0  0  0
   -0.1963   -6.0426    0.6341 H   0  0  0  0  0  0  0  0  0  0  0  0
    1.9616   -4.9137    0.9739 H   0  0  0  0  0  0  0  0  0  0  0  0
    4.0517   -4.2933   -0.0285 H   0  0  0  0  0  0  0  0  0  0  0  0
    6.9485   -1.8082   -0.0679 H   0  0  0  0  0  0  0  0  0  0  0  0
    7.7637   -3.2607   -1.6935 H   0  0  0  0  0  0  0  0  0  0  0  0
    6.1015   -3.2187   -2.2938 H   0  0  0  0  0  0  0  0  0  0  0  0
    7.3487   -5.5569   -1.5567 H   0  0  0  0  0  0  0  0  0  0  0  0
    5.6181   -5.3411   -1.2812 H   0  0  0  0  0  0  0  0  0  0  0  0
    7.8358   -3.5022    1.2431 H   0  0  0  0  0  0  0  0  0  0  0  0
    6.1742   -3.6955    1.8278 H   0  0  0  0  0  0  0  0  0  0  0  0
  1  2  1  0  0  0  0
  1 31  1  0  0  0  0
  1 32  1  0  0  0  0
  2  3  1  0  0  0  0
  2  7  2  0  0  0  0
  3  4  2  0  0  0  0
  4  5  1  0  0  0  0
  4 33  1  0  0  0  0
  5  6  2  0  0  0  0
  6  7  1  0  0  0  0
  6 25  1  0  0  0  0
  7  8  1  0  0  0  0
  8  9  1  0  0  0  0
  8 24  2  0  0  0  0
  9 10  1  0  0  0  0
  9 23  2  0  0  0  0
 10 11  2  0  0  0  0
 10 34  1  0  0  0  0
 11 12  1  0  0  0  0
 11 35  1  0  0  0  0
 12 13  1  0  0  0  0
 12 22  2  0  0  0  0
 13 14  1  0  0  0  0
 14 15  1  0  0  0  0
 14 21  2  0  0  0  0
 15 16  2  0  0  0  0
 15 36  1  0  0  0  0
 16 17  1  0  0  0  0
 16 37  1  0  0  0  0
 17 18  1  0  0  0  0
 17 20  2  0  0  0  0
 18 19  1  0  0  0  0
 18 38  1  0  0  0  0
 18 39  1  0  0  0  0
 19 40  1  0  0  0  0
 20 21  1  0  0  0  0
 20 41  1  0  0  0  0
 21 42  1  0  0  0  0
 22 23  1  0  0  0  0
 22 43  1  0  0  0  0
 23 44  1  0  0  0  0
 24 25  1  0  0  0  0
 24 45  1  0  0  0  0
 25 26  1  0  0  0  0
 26 27  1  0  0  0  0
 26 30  1  0  0  0  0
 26 46  1  0  0  0  0
 27 28  1  0  0  0  0
 27 47  1  0  0  0  0
 27 48  1  0  0  0  0
 28 29  1  0  0  0  0
 28 49  1  0  0  0  0
 28 50  1  0  0  0  0
 29 30  1  0  0  0  0
 30 51  1  0  0  0  0
 30 52  1  0  0  0  0
M  END
$$$$
