CHEMBL4789492
 OpenBabel04072215383D

 81 87  0  0  0  0  0  0  0  0999 V2000
    2.6072    1.0476   -0.7421 C   0  0  0  0  0  0  0  0  0  0  0  0
    2.4298   -0.2001   -0.0797 O   0  0  0  0  0  0  0  0  0  0  0  0
    3.1628   -0.4732    1.0385 C   0  0  0  0  0  0  0  0  0  0  0  0
    4.3052    0.2419    1.4141 C   0  0  0  0  0  0  0  0  0  0  0  0
    4.9485   -0.0026    2.6518 C   0  0  0  0  0  0  0  0  0  0  0  0
    6.0479    0.7057    3.1501 C   0  0  0  0  0  0  0  0  0  0  0  0
    6.5551    1.7505    2.3862 O   0  0  0  0  0  0  0  0  0  0  0  0
    7.9179    1.9499    2.4088 C   0  0  0  0  0  0  0  0  0  0  0  0
    8.8451    0.9146    2.5328 C   0  0  0  0  0  0  0  0  0  0  0  0
   10.2145    1.1798    2.4975 C   0  0  0  0  0  0  0  0  0  0  0  0
   10.6912    2.4775    2.2736 C   0  0  0  0  0  0  0  0  0  0  0  0
   12.0816    2.6719    2.1298 N   0  0  0  0  0  0  0  0  0  0  0  0
   12.7448    3.5040    1.1998 C   0  0  0  0  0  0  0  0  0  0  0  0
   12.0096    4.3721    0.4603 N   0  0  0  0  0  0  0  0  0  0  0  0
   12.6341    5.2121   -0.3870 C   0  0  0  0  0  0  0  0  0  0  0  0
   14.0019    5.2501   -0.5534 C   0  0  0  0  0  0  0  0  0  0  0  0
   14.7741    4.3555    0.1794 C   0  0  0  0  0  0  0  0  0  0  0  0
   16.1726    4.3822    0.0788 N   0  0  0  0  0  0  0  0  0  0  0  0
   16.9410    3.4806    0.7634 C   0  0  0  0  0  0  0  0  0  0  0  0
   16.4703    2.5532    1.6097 C   0  0  0  0  0  0  0  0  0  0  0  0
   17.3851    1.5932    2.2381 C   0  0  0  0  0  0  0  0  0  0  0  0
   18.0094    1.8847    3.4592 C   0  0  0  0  0  0  0  0  0  0  0  0
   18.8982    0.9676    4.0281 C   0  0  0  0  0  0  0  0  0  0  0  0
   19.1626   -0.2303    3.3729 C   0  0  0  0  0  0  0  0  0  0  0  0
   20.0167   -1.1061    3.9176 F   0  0  0  0  0  0  0  0  0  0  0  0
   18.5555   -0.5320    2.1600 C   0  0  0  0  0  0  0  0  0  0  0  0
   17.6656    0.3804    1.5910 C   0  0  0  0  0  0  0  0  0  0  0  0
   14.9850    2.4816    1.7979 C   0  0  0  0  0  0  0  0  0  0  0  0
   14.4708    1.5977    2.4792 O   0  0  0  0  0  0  0  0  0  0  0  0
   14.1407    3.4745    1.0748 C   0  0  0  0  0  0  0  0  0  0  0  0
    9.7566    3.5138    2.1568 C   0  0  0  0  0  0  0  0  0  0  0  0
    8.3884    3.2497    2.2188 C   0  0  0  0  0  0  0  0  0  0  0  0
    7.5226    4.2688    2.0766 F   0  0  0  0  0  0  0  0  0  0  0  0
    6.6289    0.4599    4.3431 N   0  0  0  0  0  0  0  0  0  0  0  0
    6.1205   -0.5584    5.0280 C   0  0  0  0  0  0  0  0  0  0  0  0
    5.0755   -1.3124    4.6598 N   0  0  0  0  0  0  0  0  0  0  0  0
    4.4913   -1.0191    3.4919 C   0  0  0  0  0  0  0  0  0  0  0  0
    3.3955   -1.7641    3.0794 C   0  0  0  0  0  0  0  0  0  0  0  0
    2.7402   -1.5264    1.8632 C   0  0  0  0  0  0  0  0  0  0  0  0
    1.6807   -2.3776    1.6456 O   0  0  0  0  0  0  0  0  0  0  0  0
    1.4066   -2.7231    0.2852 C   0  0  0  0  0  0  0  0  0  0  0  0
    0.8898   -4.1632    0.2071 C   0  0  0  0  0  0  0  0  0  0  0  0
   -0.4156   -4.3790    0.9849 C   0  0  0  0  0  0  0  0  0  0  0  0
   -1.0391   -5.6926    0.7249 N   0  0  0  0  0  0  0  0  0  0  0  0
   -2.3338   -5.8177    1.4384 C   0  0  0  0  0  0  0  0  0  0  0  0
   -2.1957   -6.0688    2.9518 C   0  0  0  0  0  0  0  0  0  0  0  0
   -1.3851   -7.2194    3.2214 O   0  0  0  0  0  0  0  0  0  0  0  0
   -0.0911   -7.0758    2.6223 C   0  0  0  0  0  0  0  0  0  0  0  0
   -0.2034   -6.8531    1.1057 C   0  0  0  0  0  0  0  0  0  0  0  0
    3.1773    0.8849   -1.6613 H   0  0  0  0  0  0  0  0  0  0  0  0
    3.0784    1.8274   -0.1388 H   0  0  0  0  0  0  0  0  0  0  0  0
    1.6162    1.4234   -1.0149 H   0  0  0  0  0  0  0  0  0  0  0  0
    4.7291    1.0013    0.7625 H   0  0  0  0  0  0  0  0  0  0  0  0
    8.5212   -0.1139    2.6645 H   0  0  0  0  0  0  0  0  0  0  0  0
   10.9085    0.3501    2.6161 H   0  0  0  0  0  0  0  0  0  0  0  0
   12.6363    1.8362    2.3276 H   0  0  0  0  0  0  0  0  0  0  0  0
   11.9775    5.8787   -0.9389 H   0  0  0  0  0  0  0  0  0  0  0  0
   14.4447    5.9589   -1.2421 H   0  0  0  0  0  0  0  0  0  0  0  0
   16.5996    4.8937   -0.6862 H   0  0  0  0  0  0  0  0  0  0  0  0
   18.0036    3.5653    0.5447 H   0  0  0  0  0  0  0  0  0  0  0  0
   17.8053    2.8191    3.9773 H   0  0  0  0  0  0  0  0  0  0  0  0
   19.3831    1.1778    4.9759 H   0  0  0  0  0  0  0  0  0  0  0  0
   18.7759   -1.4734    1.6673 H   0  0  0  0  0  0  0  0  0  0  0  0
   17.1893    0.1388    0.6432 H   0  0  0  0  0  0  0  0  0  0  0  0
   10.0804    4.5398    2.0101 H   0  0  0  0  0  0  0  0  0  0  0  0
    6.6064   -0.8122    5.9650 H   0  0  0  0  0  0  0  0  0  0  0  0
    3.0376   -2.5612    3.7273 H   0  0  0  0  0  0  0  0  0  0  0  0
    2.3122   -2.6746   -0.3308 H   0  0  0  0  0  0  0  0  0  0  0  0
    0.6522   -2.0350   -0.1110 H   0  0  0  0  0  0  0  0  0  0  0  0
    1.6671   -4.8225    0.6097 H   0  0  0  0  0  0  0  0  0  0  0  0
    0.7413   -4.4228   -0.8479 H   0  0  0  0  0  0  0  0  0  0  0  0
   -1.1236   -3.6046    0.6620 H   0  0  0  0  0  0  0  0  0  0  0  0
   -0.2370   -4.2212    2.0538 H   0  0  0  0  0  0  0  0  0  0  0  0
   -2.8688   -6.6690    0.9967 H   0  0  0  0  0  0  0  0  0  0  0  0
   -2.9622   -4.9379    1.2574 H   0  0  0  0  0  0  0  0  0  0  0  0
   -3.1835   -6.2565    3.3848 H   0  0  0  0  0  0  0  0  0  0  0  0
   -1.7711   -5.2021    3.4704 H   0  0  0  0  0  0  0  0  0  0  0  0
    0.4624   -8.0003    2.8168 H   0  0  0  0  0  0  0  0  0  0  0  0
    0.4484   -6.2589    3.1142 H   0  0  0  0  0  0  0  0  0  0  0  0
   -0.6724   -7.7438    0.6656 H   0  0  0  0  0  0  0  0  0  0  0  0
    0.7916   -6.8003    0.6542 H   0  0  0  0  0  0  0  0  0  0  0  0
  1  2  1  0  0  0  0
  1 50  1  0  0  0  0
  1 51  1  0  0  0  0
  1 52  1  0  0  0  0
  2  3  1  0  0  0  0
  3  4  1  0  0  0  0
  3 39  2  0  0  0  0
  4  5  2  0  0  0  0
  4 53  1  0  0  0  0
  5  6  1  0  0  0  0
  5 37  1  0  0  0  0
  6  7  1  0  0  0  0
  6 34  2  0  0  0  0
  7  8  1  0  0  0  0
  8  9  1  0  0  0  0
  8 32  2  0  0  0  0
  9 10  2  0  0  0  0
  9 54  1  0  0  0  0
 10 11  1  0  0  0  0
 10 55  1  0  0  0  0
 11 12  1  0  0  0  0
 11 31  2  0  0  0  0
 12 13  1  0  0  0  0
 12 56  1  0  0  0  0
 13 14  1  0  0  0  0
 13 30  2  0  0  0  0
 14 15  2  0  0  0  0
 15 16  1  0  0  0  0
 15 57  1  0  0  0  0
 16 17  2  0  0  0  0
 16 58  1  0  0  0  0
 17 18  1  0  0  0  0
 17 30  1  0  0  0  0
 18 19  1  0  0  0  0
 18 59  1  0  0  0  0
 19 20  2  0  0  0  0
 19 60  1  0  0  0  0
 20 21  1  0  0  0  0
 20 28  1  0  0  0  0
 21 22  1  0  0  0  0
 21 27  2  0  0  0  0
 22 23  2  0  0  0  0
 22 61  1  0  0  0  0
 23 24  1  0  0  0  0
 23 62  1  0  0  0  0
 24 25  1  0  0  0  0
 24 26  2  0  0  0  0
 26 27  1  0  0  0  0
 26 63  1  0  0  0  0
 27 64  1  0  0  0  0
 28 29  2  0  0  0  0
 28 30  1  0  0  0  0
 31 32  1  0  0  0  0
 31 65  1  0  0  0  0
 32 33  1  0  0  0  0
 34 35  1  0  0  0  0
 35 36  2  0  0  0  0
 35 66  1  0  0  0  0
 36 37  1  0  0  0  0
 37 38  2  0  0  0  0
 38 39  1  0  0  0  0
 38 67  1  0  0  0  0
 39 40  1  0  0  0  0
 40 41  1  0  0  0  0
 41 42  1  0  0  0  0
 41 68  1  0  0  0  0
 41 69  1  0  0  0  0
 42 43  1  0  0  0  0
 42 70  1  0  0  0  0
 42 71  1  0  0  0  0
 43 44  1  0  0  0  0
 43 72  1  0  0  0  0
 43 73  1  0  0  0  0
 44 45  1  0  0  0  0
 44 49  1  0  0  0  0
 45 46  1  0  0  0  0
 45 74  1  0  0  0  0
 45 75  1  0  0  0  0
 46 47  1  0  0  0  0
 46 76  1  0  0  0  0
 46 77  1  0  0  0  0
 47 48  1  0  0  0  0
 48 49  1  0  0  0  0
 48 78  1  0  0  0  0
 48 79  1  0  0  0  0
 49 80  1  0  0  0  0
 49 81  1  0  0  0  0
M  END
$$$$
