CHEMBL177298
 OpenBabel04072215363D

 47 50  0  0  0  0  0  0  0  0999 V2000
    0.9297   -2.4413    1.6771 C   0  0  0  0  0  0  0  0  0  0  0  0
    1.8246   -1.6593    0.6900 C   0  0  0  0  0  0  0  0  0  0  0  0
    0.9618   -0.7964   -0.2489 C   0  0  0  0  0  0  0  0  0  0  0  0
    2.7745   -0.7843    1.3786 N   0  0  0  0  0  0  0  0  0  0  0  0
    2.5017   -0.0812    2.5262 C   0  0  0  0  0  0  0  0  0  0  0  0
    1.2525    0.2188    2.8319 N   0  0  0  0  0  0  0  0  0  0  0  0
    1.0623    0.8098    4.0050 C   0  0  0  0  0  0  0  0  0  0  0  0
   -0.2614    1.1125    4.3465 N   0  0  0  0  0  0  0  0  0  0  0  0
   -1.1922    1.3280    3.3204 O   0  0  0  0  0  0  0  0  0  0  0  0
    2.0261    1.1032    4.8643 N   0  0  0  0  0  0  0  0  0  0  0  0
    3.2450    0.7507    4.4802 C   0  0  0  0  0  0  0  0  0  0  0  0
    4.2820    0.9875    5.3860 N   0  0  0  0  0  0  0  0  0  0  0  0
    5.4853    0.2749    5.5411 C   0  0  0  0  0  0  0  0  0  0  0  0
    6.5969    0.9364    6.0707 C   0  0  0  0  0  0  0  0  0  0  0  0
    7.8472    0.3063    6.1585 C   0  0  0  0  0  0  0  0  0  0  0  0
    7.9954   -1.0243    5.7213 C   0  0  0  0  0  0  0  0  0  0  0  0
    9.1698   -1.7602    5.7241 N   0  0  0  0  0  0  0  0  0  0  0  0
    8.9370   -2.9559    5.2337 C   0  0  0  0  0  0  0  0  0  0  0  0
    7.3232   -3.2920    4.7726 S   0  0  0  0  0  0  0  0  0  0  0  0
    6.8751   -1.6891    5.2221 C   0  0  0  0  0  0  0  0  0  0  0  0
    5.6209   -1.0609    5.1270 C   0  0  0  0  0  0  0  0  0  0  0  0
    3.5247    0.2074    3.3011 N   0  0  0  0  0  0  0  0  0  0  0  0
    2.6404   -2.7349   -0.0665 C   0  0  0  0  0  0  0  0  0  0  0  0
    2.1524   -3.3562   -1.2308 C   0  0  0  0  0  0  0  0  0  0  0  0
    2.8537   -4.4004   -1.8429 C   0  0  0  0  0  0  0  0  0  0  0  0
    4.0563   -4.8483   -1.3049 C   0  0  0  0  0  0  0  0  0  0  0  0
    4.5605   -4.2538   -0.1534 C   0  0  0  0  0  0  0  0  0  0  0  0
    3.8579   -3.2148    0.4620 C   0  0  0  0  0  0  0  0  0  0  0  0
    0.1631   -1.8109    2.1384 H   0  0  0  0  0  0  0  0  0  0  0  0
    1.5214   -2.8895    2.4854 H   0  0  0  0  0  0  0  0  0  0  0  0
    0.3911   -3.2530    1.1754 H   0  0  0  0  0  0  0  0  0  0  0  0
    0.4704    0.0216    0.2891 H   0  0  0  0  0  0  0  0  0  0  0  0
    0.1656   -1.3788   -0.7244 H   0  0  0  0  0  0  0  0  0  0  0  0
    1.5690   -0.3426   -1.0414 H   0  0  0  0  0  0  0  0  0  0  0  0
    3.4249   -0.2766    0.7926 H   0  0  0  0  0  0  0  0  0  0  0  0
   -0.2761    1.8058    5.0873 H   0  0  0  0  0  0  0  0  0  0  0  0
   -0.8730    0.7333    2.6083 H   0  0  0  0  0  0  0  0  0  0  0  0
    3.9465    1.4626    6.2108 H   0  0  0  0  0  0  0  0  0  0  0  0
    6.5143    1.9758    6.3810 H   0  0  0  0  0  0  0  0  0  0  0  0
    8.7108    0.8438    6.5375 H   0  0  0  0  0  0  0  0  0  0  0  0
    9.7196   -3.6960    5.1283 H   0  0  0  0  0  0  0  0  0  0  0  0
    4.7739   -1.6154    4.7336 H   0  0  0  0  0  0  0  0  0  0  0  0
    1.2029   -3.0629   -1.6697 H   0  0  0  0  0  0  0  0  0  0  0  0
    2.4497   -4.8740   -2.7341 H   0  0  0  0  0  0  0  0  0  0  0  0
    4.5940   -5.6664   -1.7763 H   0  0  0  0  0  0  0  0  0  0  0  0
    5.4941   -4.6051    0.2779 H   0  0  0  0  0  0  0  0  0  0  0  0
    4.2644   -2.7912    1.3795 H   0  0  0  0  0  0  0  0  0  0  0  0
  1  2  1  0  0  0  0
  1 29  1  0  0  0  0
  1 30  1  0  0  0  0
  1 31  1  0  0  0  0
  2  3  1  0  0  0  0
  2  4  1  0  0  0  0
  2 23  1  0  0  0  0
  3 32  1  0  0  0  0
  3 33  1  0  0  0  0
  3 34  1  0  0  0  0
  4  5  1  0  0  0  0
  4 35  1  0  0  0  0
  5  6  1  0  0  0  0
  5 22  2  0  0  0  0
  6  7  2  0  0  0  0
  7  8  1  0  0  0  0
  7 10  1  0  0  0  0
  8  9  1  0  0  0  0
  8 36  1  0  0  0  0
  9 37  1  0  0  0  0
 10 11  2  0  0  0  0
 11 12  1  0  0  0  0
 11 22  1  0  0  0  0
 12 13  1  0  0  0  0
 12 38  1  0  0  0  0
 13 14  1  0  0  0  0
 13 21  2  0  0  0  0
 14 15  2  0  0  0  0
 14 39  1  0  0  0  0
 15 16  1  0  0  0  0
 15 40  1  0  0  0  0
 16 17  1  0  0  0  0
 16 20  2  0  0  0  0
 17 18  2  0  0  0  0
 18 19  1  0  0  0  0
 18 41  1  0  0  0  0
 19 20  1  0  0  0  0
 20 21  1  0  0  0  0
 21 42  1  0  0  0  0
 23 24  1  0  0  0  0
 23 28  2  0  0  0  0
 24 25  2  0  0  0  0
 24 43  1  0  0  0  0
 25 26  1  0  0  0  0
 25 44  1  0  0  0  0
 26 27  2  0  0  0  0
 26 45  1  0  0  0  0
 27 28  1  0  0  0  0
 27 46  1  0  0  0  0
 28 47  1  0  0  0  0
M  END
$$$$
