CHEMBL180603
 OpenBabel04072215363D

 52 55  0  0  0  0  0  0  0  0999 V2000
   -1.2825   -1.3000   -2.6732 C   0  0  0  0  0  0  0  0  0  0  0  0
   -0.1323   -0.5825   -2.0302 C   0  0  0  0  0  0  0  0  0  0  0  0
   -0.0271    0.8120   -2.0988 C   0  0  0  0  0  0  0  0  0  0  0  0
    1.0453    1.4758   -1.4908 C   0  0  0  0  0  0  0  0  0  0  0  0
    2.0438    0.7577   -0.8227 C   0  0  0  0  0  0  0  0  0  0  0  0
    3.1056    1.4570   -0.2037 N   0  0  0  0  0  0  0  0  0  0  0  0
    4.3717    0.9295   -0.0251 C   0  0  0  0  0  0  0  0  0  0  0  0
    4.8671    0.1263   -0.9275 N   0  0  0  0  0  0  0  0  0  0  0  0
    6.1198   -0.3959   -0.7790 C   0  0  0  0  0  0  0  0  0  0  0  0
    6.9319   -0.1828    0.2035 N   0  0  0  0  0  0  0  0  0  0  0  0
    6.4397    0.6440    1.1330 N   0  0  0  0  0  0  0  0  0  0  0  0
    7.1072    1.0119    2.2597 C   0  0  0  0  0  0  0  0  0  0  0  0
    6.3142    1.8735    2.9997 C   0  0  0  0  0  0  0  0  0  0  0  0
    6.7101    2.4645    4.2843 C   0  0  0  0  0  0  0  0  0  0  0  0
    5.9058    2.7963    5.1464 O   0  0  0  0  0  0  0  0  0  0  0  0
    8.0777    2.6160    4.4199 N   0  0  0  0  0  0  0  0  0  0  0  0
    8.7209    3.0712    5.6336 C   0  0  0  0  0  0  0  0  0  0  0  0
    9.0856    1.9215    6.5699 C   0  0  0  0  0  0  0  0  0  0  0  0
   10.0515    0.9290    5.9261 C   0  0  0  0  0  0  0  0  0  0  0  0
   10.3911   -0.1568    6.8255 N   0  0  0  0  0  0  0  0  0  0  0  0
   11.4717   -0.0880    7.6307 N   0  0  0  0  0  0  0  0  0  0  0  0
   11.3979   -1.2600    8.2702 C   0  0  0  0  0  0  0  0  0  0  0  0
   10.2831   -1.9786    7.8196 C   0  0  0  0  0  0  0  0  0  0  0  0
    9.6374   -1.2736    6.8860 N   0  0  0  0  0  0  0  0  0  0  0  0
    5.0726    1.9988    2.2655 C   0  0  0  0  0  0  0  0  0  0  0  0
    3.8844    2.8039    2.6671 C   0  0  0  0  0  0  0  0  0  0  0  0
    5.2095    1.2317    1.1084 C   0  0  0  0  0  0  0  0  0  0  0  0
    1.9309   -0.6362   -0.7492 C   0  0  0  0  0  0  0  0  0  0  0  0
    0.8555   -1.2921   -1.3459 C   0  0  0  0  0  0  0  0  0  0  0  0
    0.7512   -2.6525   -1.2611 O   0  0  0  0  0  0  0  0  0  0  0  0
   -1.9567   -0.6041   -3.1827 H   0  0  0  0  0  0  0  0  0  0  0  0
   -1.8640   -1.8349   -1.9152 H   0  0  0  0  0  0  0  0  0  0  0  0
   -0.9156   -2.0139   -3.4179 H   0  0  0  0  0  0  0  0  0  0  0  0
   -0.7774    1.3926   -2.6309 H   0  0  0  0  0  0  0  0  0  0  0  0
    1.1095    2.5583   -1.5712 H   0  0  0  0  0  0  0  0  0  0  0  0
    2.7609    2.0709    0.5205 H   0  0  0  0  0  0  0  0  0  0  0  0
    6.4542   -1.0673   -1.5882 H   0  0  0  0  0  0  0  0  0  0  0  0
    8.0892    0.6015    2.4473 H   0  0  0  0  0  0  0  0  0  0  0  0
    8.6567    2.4243    3.6148 H   0  0  0  0  0  0  0  0  0  0  0  0
    8.0576    3.7717    6.1512 H   0  0  0  0  0  0  0  0  0  0  0  0
    9.6216    3.6179    5.3334 H   0  0  0  0  0  0  0  0  0  0  0  0
    8.1762    1.3990    6.8907 H   0  0  0  0  0  0  0  0  0  0  0  0
    9.5445    2.3378    7.4759 H   0  0  0  0  0  0  0  0  0  0  0  0
   10.9876    1.4200    5.6356 H   0  0  0  0  0  0  0  0  0  0  0  0
    9.6216    0.4736    5.0269 H   0  0  0  0  0  0  0  0  0  0  0  0
   12.1382   -1.5248    9.0118 H   0  0  0  0  0  0  0  0  0  0  0  0
    9.9191   -2.9524    8.1152 H   0  0  0  0  0  0  0  0  0  0  0  0
    4.0173    3.3095    3.6253 H   0  0  0  0  0  0  0  0  0  0  0  0
    3.0023    2.1602    2.7533 H   0  0  0  0  0  0  0  0  0  0  0  0
    3.6805    3.5752    1.9166 H   0  0  0  0  0  0  0  0  0  0  0  0
    2.6816   -1.2086   -0.2138 H   0  0  0  0  0  0  0  0  0  0  0  0
    1.5253   -2.9932   -0.7834 H   0  0  0  0  0  0  0  0  0  0  0  0
  1  2  1  0  0  0  0
  1 31  1  0  0  0  0
  1 32  1  0  0  0  0
  1 33  1  0  0  0  0
  2  3  1  0  0  0  0
  2 29  2  0  0  0  0
  3  4  2  0  0  0  0
  3 34  1  0  0  0  0
  4  5  1  0  0  0  0
  4 35  1  0  0  0  0
  5  6  1  0  0  0  0
  5 28  2  0  0  0  0
  6  7  1  0  0  0  0
  6 36  1  0  0  0  0
  7  8  2  0  0  0  0
  7 27  1  0  0  0  0
  8  9  1  0  0  0  0
  9 10  2  0  0  0  0
  9 37  1  0  0  0  0
 10 11  1  0  0  0  0
 11 12  1  0  0  0  0
 11 27  1  0  0  0  0
 12 13  2  0  0  0  0
 12 38  1  0  0  0  0
 13 14  1  0  0  0  0
 13 25  1  0  0  0  0
 14 15  2  0  0  0  0
 14 16  1  0  0  0  0
 16 17  1  0  0  0  0
 16 39  1  0  0  0  0
 17 18  1  0  0  0  0
 17 40  1  0  0  0  0
 17 41  1  0  0  0  0
 18 19  1  0  0  0  0
 18 42  1  0  0  0  0
 18 43  1  0  0  0  0
 19 20  1  0  0  0  0
 19 44  1  0  0  0  0
 19 45  1  0  0  0  0
 20 21  1  0  0  0  0
 20 24  1  0  0  0  0
 21 22  2  0  0  0  0
 22 23  1  0  0  0  0
 22 46  1  0  0  0  0
 23 24  2  0  0  0  0
 23 47  1  0  0  0  0
 25 26  1  0  0  0  0
 25 27  2  0  0  0  0
 26 48  1  0  0  0  0
 26 49  1  0  0  0  0
 26 50  1  0  0  0  0
 28 29  1  0  0  0  0
 28 51  1  0  0  0  0
 29 30  1  0  0  0  0
 30 52  1  0  0  0  0
M  END
$$$$
