CHEMBL3678948
 OpenBabel04072215373D

 65 69  0  0  0  0  0  0  0  0999 V2000
   -3.2264    1.4748   -1.9244 C   0  0  0  0  0  0  0  0  0  0  0  0
   -2.0482    1.6632   -2.0234 C   0  0  0  0  0  0  0  0  0  0  0  0
   -0.6430    1.8785   -2.1837 C   0  0  0  0  0  0  0  0  0  0  0  0
   -0.0990    1.8724   -3.4697 C   0  0  0  0  0  0  0  0  0  0  0  0
    1.2669    2.0594   -3.6353 C   0  0  0  0  0  0  0  0  0  0  0  0
    2.0786    2.2654   -2.5189 C   0  0  0  0  0  0  0  0  0  0  0  0
    1.5544    2.3012   -1.2163 C   0  0  0  0  0  0  0  0  0  0  0  0
    2.3576    2.5094   -0.0665 N   0  0  0  0  0  0  0  0  0  0  0  0
    3.7140    2.5069   -0.0435 C   0  0  0  0  0  0  0  0  0  0  0  0
    4.5125    1.9405   -0.9287 N   0  0  0  0  0  0  0  0  0  0  0  0
    5.7798    2.1946   -0.5158 C   0  0  0  0  0  0  0  0  0  0  0  0
    7.0189    1.8555   -1.0402 C   0  0  0  0  0  0  0  0  0  0  0  0
    8.1426    2.2392   -0.3924 N   0  0  0  0  0  0  0  0  0  0  0  0
    8.0270    2.9802    0.7306 C   0  0  0  0  0  0  0  0  0  0  0  0
    9.2302    3.3238    1.3382 N   0  0  0  0  0  0  0  0  0  0  0  0
    9.5336    4.4427    2.1174 C   0  0  0  0  0  0  0  0  0  0  0  0
   10.5667    4.3612    3.0478 C   0  0  0  0  0  0  0  0  0  0  0  0
   10.8315    5.4290    3.9104 C   0  0  0  0  0  0  0  0  0  0  0  0
   10.0950    6.6218    3.8664 C   0  0  0  0  0  0  0  0  0  0  0  0
   10.4235    7.6638    4.7115 N   0  0  0  0  0  0  0  0  0  0  0  0
   10.0760    9.0568    4.4000 C   0  0  0  0  0  0  0  0  0  0  0  0
   11.1453    9.9851    5.0265 C   0  0  0  0  0  0  0  0  0  0  0  0
   11.2811    9.7887    6.4900 N   0  0  0  0  0  0  0  0  0  0  0  0
   12.3243   10.6551    7.0301 C   0  0  0  0  0  0  0  0  0  0  0  0
   11.5952    8.3650    6.7601 C   0  0  0  0  0  0  0  0  0  0  0  0
   10.5438    7.4045    6.1583 C   0  0  0  0  0  0  0  0  0  0  0  0
    9.0869    6.7068    2.9028 C   0  0  0  0  0  0  0  0  0  0  0  0
    8.8011    5.6307    2.0531 C   0  0  0  0  0  0  0  0  0  0  0  0
    6.8671    3.3565    1.3067 N   0  0  0  0  0  0  0  0  0  0  0  0
    5.7819    2.9313    0.6490 C   0  0  0  0  0  0  0  0  0  0  0  0
    4.4536    3.1149    0.9656 N   0  0  0  0  0  0  0  0  0  0  0  0
    3.9253    3.8028    2.1408 C   0  0  0  0  0  0  0  0  0  0  0  0
    3.6715    2.8133    3.2808 C   0  0  0  0  0  0  0  0  0  0  0  0
    4.7566    4.9872    2.6511 C   0  0  0  0  0  0  0  0  0  0  0  0
    0.1760    2.0866   -1.0679 C   0  0  0  0  0  0  0  0  0  0  0  0
   -4.2764    1.3010   -1.8608 H   0  0  0  0  0  0  0  0  0  0  0  0
   -0.7279    1.7195   -4.3430 H   0  0  0  0  0  0  0  0  0  0  0  0
    1.7109    2.0472   -4.6271 H   0  0  0  0  0  0  0  0  0  0  0  0
    3.1392    2.4139   -2.6991 H   0  0  0  0  0  0  0  0  0  0  0  0
    1.8204    2.7216    0.7635 H   0  0  0  0  0  0  0  0  0  0  0  0
    7.1340    1.2883   -1.9538 H   0  0  0  0  0  0  0  0  0  0  0  0
   10.0066    2.8661    0.8838 H   0  0  0  0  0  0  0  0  0  0  0  0
   11.1608    3.4558    3.1331 H   0  0  0  0  0  0  0  0  0  0  0  0
   11.6563    5.3272    4.6105 H   0  0  0  0  0  0  0  0  0  0  0  0
    9.0807    9.3015    4.7934 H   0  0  0  0  0  0  0  0  0  0  0  0
   10.0691    9.2366    3.3187 H   0  0  0  0  0  0  0  0  0  0  0  0
   10.8726   11.0249    4.8139 H   0  0  0  0  0  0  0  0  0  0  0  0
   12.1071    9.7886    4.5313 H   0  0  0  0  0  0  0  0  0  0  0  0
   12.0756   11.7069    6.8523 H   0  0  0  0  0  0  0  0  0  0  0  0
   13.3066   10.4526    6.5885 H   0  0  0  0  0  0  0  0  0  0  0  0
   12.4006   10.5279    8.1154 H   0  0  0  0  0  0  0  0  0  0  0  0
   11.6421    8.1957    7.8420 H   0  0  0  0  0  0  0  0  0  0  0  0
   12.5792    8.1088    6.3428 H   0  0  0  0  0  0  0  0  0  0  0  0
    9.5711    7.5638    6.6430 H   0  0  0  0  0  0  0  0  0  0  0  0
   10.8446    6.3759    6.3840 H   0  0  0  0  0  0  0  0  0  0  0  0
    8.4805    7.6022    2.8070 H   0  0  0  0  0  0  0  0  0  0  0  0
    8.0024    5.7446    1.3244 H   0  0  0  0  0  0  0  0  0  0  0  0
    2.9609    4.2284    1.8346 H   0  0  0  0  0  0  0  0  0  0  0  0
    4.5967    2.3139    3.5879 H   0  0  0  0  0  0  0  0  0  0  0  0
    2.9582    2.0393    2.9796 H   0  0  0  0  0  0  0  0  0  0  0  0
    3.2558    3.3251    4.1554 H   0  0  0  0  0  0  0  0  0  0  0  0
    5.7147    4.6704    3.0740 H   0  0  0  0  0  0  0  0  0  0  0  0
    4.2210    5.5108    3.4514 H   0  0  0  0  0  0  0  0  0  0  0  0
    4.9521    5.7100    1.8517 H   0  0  0  0  0  0  0  0  0  0  0  0
   -0.2734    2.0779   -0.0779 H   0  0  0  0  0  0  0  0  0  0  0  0
  1  2  3  0  0  0  0
  1 36  1  0  0  0  0
  2  3  1  0  0  0  0
  3  4  1  0  0  0  0
  3 35  2  0  0  0  0
  4  5  2  0  0  0  0
  4 37  1  0  0  0  0
  5  6  1  0  0  0  0
  5 38  1  0  0  0  0
  6  7  2  0  0  0  0
  6 39  1  0  0  0  0
  7  8  1  0  0  0  0
  7 35  1  0  0  0  0
  8  9  1  0  0  0  0
  8 40  1  0  0  0  0
  9 10  2  0  0  0  0
  9 31  1  0  0  0  0
 10 11  1  0  0  0  0
 11 12  1  0  0  0  0
 11 30  2  0  0  0  0
 12 13  2  0  0  0  0
 12 41  1  0  0  0  0
 13 14  1  0  0  0  0
 14 15  1  0  0  0  0
 14 29  2  0  0  0  0
 15 16  1  0  0  0  0
 15 42  1  0  0  0  0
 16 17  1  0  0  0  0
 16 28  2  0  0  0  0
 17 18  2  0  0  0  0
 17 43  1  0  0  0  0
 18 19  1  0  0  0  0
 18 44  1  0  0  0  0
 19 20  1  0  0  0  0
 19 27  2  0  0  0  0
 20 21  1  0  0  0  0
 20 26  1  0  0  0  0
 21 22  1  0  0  0  0
 21 45  1  0  0  0  0
 21 46  1  0  0  0  0
 22 23  1  0  0  0  0
 22 47  1  0  0  0  0
 22 48  1  0  0  0  0
 23 24  1  0  0  0  0
 23 25  1  0  0  0  0
 24 49  1  0  0  0  0
 24 50  1  0  0  0  0
 24 51  1  0  0  0  0
 25 26  1  0  0  0  0
 25 52  1  0  0  0  0
 25 53  1  0  0  0  0
 26 54  1  0  0  0  0
 26 55  1  0  0  0  0
 27 28  1  0  0  0  0
 27 56  1  0  0  0  0
 28 57  1  0  0  0  0
 29 30  1  0  0  0  0
 30 31  1  0  0  0  0
 31 32  1  0  0  0  0
 32 33  1  0  0  0  0
 32 34  1  0  0  0  0
 32 58  1  0  0  0  0
 33 59  1  0  0  0  0
 33 60  1  0  0  0  0
 33 61  1  0  0  0  0
 34 62  1  0  0  0  0
 34 63  1  0  0  0  0
 34 64  1  0  0  0  0
 35 65  1  0  0  0  0
M  END
$$$$
