CHEMBL4648781
 OpenBabel04072215383D

 78 83  0  0  0  0  0  0  0  0999 V2000
    1.4038   -2.2197    1.4992 C   0  0  0  0  0  0  0  0  0  0  0  0
    2.7495   -1.8529    1.1058 N   0  0  0  0  0  0  0  0  0  0  0  0
    3.7072   -2.8228    0.9365 C   0  0  0  0  0  0  0  0  0  0  0  0
    3.4852   -4.0203    1.1088 O   0  0  0  0  0  0  0  0  0  0  0  0
    5.0666   -2.3640    0.5186 C   0  0  0  0  0  0  0  0  0  0  0  0
    5.5866   -1.1018    0.8784 C   0  0  0  0  0  0  0  0  0  0  0  0
    6.9180   -0.7497    0.5704 C   0  0  0  0  0  0  0  0  0  0  0  0
    7.7221   -1.6741   -0.0770 C   0  0  0  0  0  0  0  0  0  0  0  0
    7.1728   -2.9123   -0.4395 C   0  0  0  0  0  0  0  0  0  0  0  0
    5.8667   -3.2769   -0.1737 C   0  0  0  0  0  0  0  0  0  0  0  0
    8.1361   -3.7309   -1.0200 N   0  0  0  0  0  0  0  0  0  0  0  0
    9.3740   -3.1208   -1.0260 C   0  0  0  0  0  0  0  0  0  0  0  0
   10.4452   -3.6494   -1.2670 O   0  0  0  0  0  0  0  0  0  0  0  0
    9.1350   -1.7191   -0.5150 C   0  0  0  0  0  0  0  0  0  0  0  0
   10.1367   -0.8067   -0.5214 C   0  0  0  0  0  0  0  0  0  0  0  0
   11.4159   -0.9778   -1.0885 N   0  0  0  0  0  0  0  0  0  0  0  0
   11.6131   -0.7207   -2.4877 C   0  0  0  0  0  0  0  0  0  0  0  0
   11.0062    0.3495   -3.1440 C   0  0  0  0  0  0  0  0  0  0  0  0
   11.1109    0.5281   -4.5259 C   0  0  0  0  0  0  0  0  0  0  0  0
   11.9330   -0.2960   -5.2901 C   0  0  0  0  0  0  0  0  0  0  0  0
   11.9871   -0.1265   -6.7164 N   0  0  0  0  0  0  0  0  0  0  0  0
   11.8767    1.0883   -7.4175 C   0  0  0  0  0  0  0  0  0  0  0  0
   11.8255    2.4643   -6.8364 C   0  0  0  0  0  0  0  0  0  0  0  0
   11.8900    0.8178   -8.7728 C   0  0  0  0  0  0  0  0  0  0  0  0
   12.0369   -0.5624   -8.9372 C   0  0  0  0  0  0  0  0  0  0  0  0
   12.0695   -1.1448   -7.6816 C   0  0  0  0  0  0  0  0  0  0  0  0
   12.0488   -2.6269   -7.4272 C   0  0  0  0  0  0  0  0  0  0  0  0
   10.9302   -3.0408   -6.5843 N   0  0  0  0  0  0  0  0  0  0  0  0
    9.6129   -2.7562   -7.1736 C   0  0  0  0  0  0  0  0  0  0  0  0
    8.4797   -3.1462   -6.1964 C   0  0  0  0  0  0  0  0  0  0  0  0
    8.4993   -4.5540   -5.7491 N   0  0  0  0  0  0  0  0  0  0  0  0
    8.0576   -5.4547   -6.8106 C   0  0  0  0  0  0  0  0  0  0  0  0
    9.8599   -4.8920   -5.2781 C   0  0  0  0  0  0  0  0  0  0  0  0
   11.0183   -4.4616   -6.2138 C   0  0  0  0  0  0  0  0  0  0  0  0
   12.6516   -1.2973   -4.6252 C   0  0  0  0  0  0  0  0  0  0  0  0
   12.4897   -1.5093   -3.2409 C   0  0  0  0  0  0  0  0  0  0  0  0
   10.0022    0.4353    0.2720 C   0  0  0  0  0  0  0  0  0  0  0  0
   10.4687    0.4274    1.5959 C   0  0  0  0  0  0  0  0  0  0  0  0
   10.4108    1.5830    2.3738 C   0  0  0  0  0  0  0  0  0  0  0  0
    9.9103    2.7636    1.8262 C   0  0  0  0  0  0  0  0  0  0  0  0
    9.4408    2.7809    0.5152 C   0  0  0  0  0  0  0  0  0  0  0  0
    9.4582    1.6140   -0.2480 C   0  0  0  0  0  0  0  0  0  0  0  0
    0.7872   -1.3182    1.5295 H   0  0  0  0  0  0  0  0  0  0  0  0
    1.4339   -2.6831    2.4888 H   0  0  0  0  0  0  0  0  0  0  0  0
    0.9955   -2.9314    0.7796 H   0  0  0  0  0  0  0  0  0  0  0  0
    2.9310   -0.9063    0.7820 H   0  0  0  0  0  0  0  0  0  0  0  0
    4.9881   -0.3972    1.4488 H   0  0  0  0  0  0  0  0  0  0  0  0
    7.2947    0.2183    0.8824 H   0  0  0  0  0  0  0  0  0  0  0  0
    5.4826   -4.2523   -0.4533 H   0  0  0  0  0  0  0  0  0  0  0  0
    7.9958   -4.6978   -1.2789 H   0  0  0  0  0  0  0  0  0  0  0  0
   11.7098   -1.9511   -0.9473 H   0  0  0  0  0  0  0  0  0  0  0  0
   10.4109    1.0650   -2.6055 H   0  0  0  0  0  0  0  0  0  0  0  0
   10.4866    1.2938   -4.9741 H   0  0  0  0  0  0  0  0  0  0  0  0
   12.0277    2.5239   -5.7679 H   0  0  0  0  0  0  0  0  0  0  0  0
   10.8444    2.9121   -7.0348 H   0  0  0  0  0  0  0  0  0  0  0  0
   12.5803    3.0954   -7.3177 H   0  0  0  0  0  0  0  0  0  0  0  0
   11.8123    1.5587   -9.5587 H   0  0  0  0  0  0  0  0  0  0  0  0
   12.0649   -1.0990   -9.8772 H   0  0  0  0  0  0  0  0  0  0  0  0
   13.0088   -2.9155   -6.9843 H   0  0  0  0  0  0  0  0  0  0  0  0
   12.0054   -3.1587   -8.3881 H   0  0  0  0  0  0  0  0  0  0  0  0
    9.4916   -3.2822   -8.1287 H   0  0  0  0  0  0  0  0  0  0  0  0
    9.5013   -1.6864   -7.3812 H   0  0  0  0  0  0  0  0  0  0  0  0
    7.5093   -2.9043   -6.6461 H   0  0  0  0  0  0  0  0  0  0  0  0
    8.5576   -2.5080   -5.3055 H   0  0  0  0  0  0  0  0  0  0  0  0
    7.0365   -5.1976   -7.1244 H   0  0  0  0  0  0  0  0  0  0  0  0
    8.0102   -6.4831   -6.4345 H   0  0  0  0  0  0  0  0  0  0  0  0
    8.6991   -5.4419   -7.6892 H   0  0  0  0  0  0  0  0  0  0  0  0
    9.9336   -5.9688   -5.0807 H   0  0  0  0  0  0  0  0  0  0  0  0
   10.0056   -4.4045   -4.3051 H   0  0  0  0  0  0  0  0  0  0  0  0
   11.0205   -5.0934   -7.1114 H   0  0  0  0  0  0  0  0  0  0  0  0
   11.9623   -4.6461   -5.6864 H   0  0  0  0  0  0  0  0  0  0  0  0
   13.3489   -1.9376   -5.1522 H   0  0  0  0  0  0  0  0  0  0  0  0
   13.0321   -2.3271   -2.7724 H   0  0  0  0  0  0  0  0  0  0  0  0
   10.8923   -0.4810    2.0196 H   0  0  0  0  0  0  0  0  0  0  0  0
   10.7780    1.5676    3.3958 H   0  0  0  0  0  0  0  0  0  0  0  0
    9.8943    3.6712    2.4206 H   0  0  0  0  0  0  0  0  0  0  0  0
    9.0690    3.7045    0.0788 H   0  0  0  0  0  0  0  0  0  0  0  0
    9.0491    1.6428   -1.2517 H   0  0  0  0  0  0  0  0  0  0  0  0
  1  2  1  0  0  0  0
  1 43  1  0  0  0  0
  1 44  1  0  0  0  0
  1 45  1  0  0  0  0
  2  3  1  0  0  0  0
  2 46  1  0  0  0  0
  3  4  2  0  0  0  0
  3  5  1  0  0  0  0
  5  6  1  0  0  0  0
  5 10  2  0  0  0  0
  6  7  2  0  0  0  0
  6 47  1  0  0  0  0
  7  8  1  0  0  0  0
  7 48  1  0  0  0  0
  8  9  2  0  0  0  0
  8 14  1  0  0  0  0
  9 10  1  0  0  0  0
  9 11  1  0  0  0  0
 10 49  1  0  0  0  0
 11 12  1  0  0  0  0
 11 50  1  0  0  0  0
 12 13  2  0  0  0  0
 12 14  1  0  0  0  0
 14 15  2  0  0  0  0
 15 16  1  0  0  0  0
 15 37  1  0  0  0  0
 16 17  1  0  0  0  0
 16 51  1  0  0  0  0
 17 18  1  0  0  0  0
 17 36  2  0  0  0  0
 18 19  2  0  0  0  0
 18 52  1  0  0  0  0
 19 20  1  0  0  0  0
 19 53  1  0  0  0  0
 20 21  1  0  0  0  0
 20 35  2  0  0  0  0
 21 22  1  0  0  0  0
 21 26  1  0  0  0  0
 22 23  1  0  0  0  0
 22 24  2  0  0  0  0
 23 54  1  0  0  0  0
 23 55  1  0  0  0  0
 23 56  1  0  0  0  0
 24 25  1  0  0  0  0
 24 57  1  0  0  0  0
 25 26  2  0  0  0  0
 25 58  1  0  0  0  0
 26 27  1  0  0  0  0
 27 28  1  0  0  0  0
 27 59  1  0  0  0  0
 27 60  1  0  0  0  0
 28 29  1  0  0  0  0
 28 34  1  0  0  0  0
 29 30  1  0  0  0  0
 29 61  1  0  0  0  0
 29 62  1  0  0  0  0
 30 31  1  0  0  0  0
 30 63  1  0  0  0  0
 30 64  1  0  0  0  0
 31 32  1  0  0  0  0
 31 33  1  0  0  0  0
 32 65  1  0  0  0  0
 32 66  1  0  0  0  0
 32 67  1  0  0  0  0
 33 34  1  0  0  0  0
 33 68  1  0  0  0  0
 33 69  1  0  0  0  0
 34 70  1  0  0  0  0
 34 71  1  0  0  0  0
 35 36  1  0  0  0  0
 35 72  1  0  0  0  0
 36 73  1  0  0  0  0
 37 38  1  0  0  0  0
 37 42  2  0  0  0  0
 38 39  2  0  0  0  0
 38 74  1  0  0  0  0
 39 40  1  0  0  0  0
 39 75  1  0  0  0  0
 40 41  2  0  0  0  0
 40 76  1  0  0  0  0
 41 42  1  0  0  0  0
 41 77  1  0  0  0  0
 42 78  1  0  0  0  0
M  END
$$$$
