CHEMBL270058
 OpenBabel04072215363D

 60 64  0  0  0  0  0  0  0  0999 V2000
   10.7007   -0.7179    0.9992 C   0  0  0  0  0  0  0  0  0  0  0  0
    9.9950   -1.0538    2.2000 O   0  0  0  0  0  0  0  0  0  0  0  0
    9.1820   -2.1559    2.1132 C   0  0  0  0  0  0  0  0  0  0  0  0
    9.5253   -3.2381    1.2889 C   0  0  0  0  0  0  0  0  0  0  0  0
    8.6814   -4.3161    1.0772 C   0  0  0  0  0  0  0  0  0  0  0  0
    9.0744   -5.2502    0.2004 N   0  0  0  0  0  0  0  0  0  0  0  0
    8.2422   -6.2810   -0.0454 C   0  0  0  0  0  0  0  0  0  0  0  0
    7.0046   -6.4210    0.5415 C   0  0  0  0  0  0  0  0  0  0  0  0
    6.5740   -5.4170    1.4063 C   0  0  0  0  0  0  0  0  0  0  0  0
    5.3082   -5.4494    1.9626 O   0  0  0  0  0  0  0  0  0  0  0  0
    4.2472   -5.8514    1.1726 C   0  0  0  0  0  0  0  0  0  0  0  0
    3.2217   -6.5417    1.8113 C   0  0  0  0  0  0  0  0  0  0  0  0
    2.0889   -6.9651    1.0893 C   0  0  0  0  0  0  0  0  0  0  0  0
    1.9484   -6.6998   -0.2768 C   0  0  0  0  0  0  0  0  0  0  0  0
    3.0002   -6.0044   -0.9064 C   0  0  0  0  0  0  0  0  0  0  0  0
    4.1231   -5.5665   -0.1883 C   0  0  0  0  0  0  0  0  0  0  0  0
    3.0277   -5.7029   -2.2490 O   0  0  0  0  0  0  0  0  0  0  0  0
    1.7236   -5.6998   -2.8283 C   0  0  0  0  0  0  0  0  0  0  0  0
    0.9740   -6.9810   -2.5011 C   0  0  0  0  0  0  0  0  0  0  0  0
    0.8018   -7.1168   -1.0472 N   0  0  0  0  0  0  0  0  0  0  0  0
   -0.4133   -7.4821   -0.4522 C   0  0  0  0  0  0  0  0  0  0  0  0
   -0.6656   -7.3217    0.7408 O   0  0  0  0  0  0  0  0  0  0  0  0
   -1.3402   -8.0471   -1.3205 N   0  0  0  0  0  0  0  0  0  0  0  0
   -2.6676   -8.3568   -0.9172 C   0  0  0  0  0  0  0  0  0  0  0  0
   -3.4022   -7.4513   -0.1371 C   0  0  0  0  0  0  0  0  0  0  0  0
   -4.7051   -7.7467    0.2663 C   0  0  0  0  0  0  0  0  0  0  0  0
   -5.2912   -8.9486   -0.1129 C   0  0  0  0  0  0  0  0  0  0  0  0
   -4.5749   -9.8534   -0.8968 C   0  0  0  0  0  0  0  0  0  0  0  0
   -3.2586   -9.5730   -1.3056 C   0  0  0  0  0  0  0  0  0  0  0  0
   -2.5024  -10.6164   -2.0780 C   0  0  0  0  0  0  0  0  0  0  0  0
    7.4446   -4.3519    1.7437 C   0  0  0  0  0  0  0  0  0  0  0  0
    7.1554   -3.3271    2.6757 C   0  0  0  0  0  0  0  0  0  0  0  0
    8.0051   -2.2251    2.8665 C   0  0  0  0  0  0  0  0  0  0  0  0
    7.5186   -1.3459    3.7938 O   0  0  0  0  0  0  0  0  0  0  0  0
    8.1346   -0.0771    3.9553 C   0  0  0  0  0  0  0  0  0  0  0  0
   10.7461    0.3724    0.9213 H   0  0  0  0  0  0  0  0  0  0  0  0
   10.2118   -1.0790    0.0858 H   0  0  0  0  0  0  0  0  0  0  0  0
   11.7239   -1.1028    1.0567 H   0  0  0  0  0  0  0  0  0  0  0  0
   10.4797   -3.2523    0.7655 H   0  0  0  0  0  0  0  0  0  0  0  0
    8.6067   -7.0086   -0.7631 H   0  0  0  0  0  0  0  0  0  0  0  0
    6.3822   -7.2731    0.2946 H   0  0  0  0  0  0  0  0  0  0  0  0
    3.2895   -6.7626    2.8745 H   0  0  0  0  0  0  0  0  0  0  0  0
    1.3474   -7.5388    1.6429 H   0  0  0  0  0  0  0  0  0  0  0  0
    4.8882   -5.0003   -0.7115 H   0  0  0  0  0  0  0  0  0  0  0  0
    1.8485   -5.6086   -3.9123 H   0  0  0  0  0  0  0  0  0  0  0  0
    1.1792   -4.8122   -2.4817 H   0  0  0  0  0  0  0  0  0  0  0  0
    1.5376   -7.8599   -2.8381 H   0  0  0  0  0  0  0  0  0  0  0  0
    0.0119   -6.9688   -3.0205 H   0  0  0  0  0  0  0  0  0  0  0  0
   -0.9399   -8.6420   -2.0273 H   0  0  0  0  0  0  0  0  0  0  0  0
   -2.9671   -6.5017    0.1666 H   0  0  0  0  0  0  0  0  0  0  0  0
   -5.2545   -7.0407    0.8834 H   0  0  0  0  0  0  0  0  0  0  0  0
   -6.3007   -9.1881    0.2117 H   0  0  0  0  0  0  0  0  0  0  0  0
   -5.0455  -10.7966   -1.1670 H   0  0  0  0  0  0  0  0  0  0  0  0
   -3.0569  -11.5592   -2.1301 H   0  0  0  0  0  0  0  0  0  0  0  0
   -1.5503  -10.8353   -1.5820 H   0  0  0  0  0  0  0  0  0  0  0  0
   -2.3140  -10.2738   -3.0996 H   0  0  0  0  0  0  0  0  0  0  0  0
    6.2339   -3.3757    3.2593 H   0  0  0  0  0  0  0  0  0  0  0  0
    7.4462    0.5438    4.5399 H   0  0  0  0  0  0  0  0  0  0  0  0
    8.2824    0.4370    3.0019 H   0  0  0  0  0  0  0  0  0  0  0  0
    9.0652   -0.1594    4.5255 H   0  0  0  0  0  0  0  0  0  0  0  0
  1  2  1  0  0  0  0
  1 36  1  0  0  0  0
  1 37  1  0  0  0  0
  1 38  1  0  0  0  0
  2  3  1  0  0  0  0
  3  4  1  0  0  0  0
  3 33  2  0  0  0  0
  4  5  2  0  0  0  0
  4 39  1  0  0  0  0
  5  6  1  0  0  0  0
  5 31  1  0  0  0  0
  6  7  2  0  0  0  0
  7  8  1  0  0  0  0
  7 40  1  0  0  0  0
  8  9  2  0  0  0  0
  8 41  1  0  0  0  0
  9 10  1  0  0  0  0
  9 31  1  0  0  0  0
 10 11  1  0  0  0  0
 11 12  1  0  0  0  0
 11 16  2  0  0  0  0
 12 13  2  0  0  0  0
 12 42  1  0  0  0  0
 13 14  1  0  0  0  0
 13 43  1  0  0  0  0
 14 15  2  0  0  0  0
 14 20  1  0  0  0  0
 15 16  1  0  0  0  0
 15 17  1  0  0  0  0
 16 44  1  0  0  0  0
 17 18  1  0  0  0  0
 18 19  1  0  0  0  0
 18 45  1  0  0  0  0
 18 46  1  0  0  0  0
 19 20  1  0  0  0  0
 19 47  1  0  0  0  0
 19 48  1  0  0  0  0
 20 21  1  0  0  0  0
 21 22  2  0  0  0  0
 21 23  1  0  0  0  0
 23 24  1  0  0  0  0
 23 49  1  0  0  0  0
 24 25  1  0  0  0  0
 24 29  2  0  0  0  0
 25 26  2  0  0  0  0
 25 50  1  0  0  0  0
 26 27  1  0  0  0  0
 26 51  1  0  0  0  0
 27 28  2  0  0  0  0
 27 52  1  0  0  0  0
 28 29  1  0  0  0  0
 28 53  1  0  0  0  0
 29 30  1  0  0  0  0
 30 54  1  0  0  0  0
 30 55  1  0  0  0  0
 30 56  1  0  0  0  0
 31 32  2  0  0  0  0
 32 33  1  0  0  0  0
 32 57  1  0  0  0  0
 33 34  1  0  0  0  0
 34 35  1  0  0  0  0
 35 58  1  0  0  0  0
 35 59  1  0  0  0  0
 35 60  1  0  0  0  0
M  END
$$$$
