CHEMBL1255013
 OpenBabel04072215363D

 63 67  0  0  0  0  0  0  0  0999 V2000
    3.5608   -1.3890   -3.2271 C   0  0  0  0  0  0  0  0  0  0  0  0
    4.0916   -0.9533   -1.9558 N   0  0  0  0  0  0  0  0  0  0  0  0
    5.0201    0.0457   -1.8025 C   0  0  0  0  0  0  0  0  0  0  0  0
    5.2682    0.1940   -0.4535 C   0  0  0  0  0  0  0  0  0  0  0  0
    4.4602   -0.7493    0.2246 C   0  0  0  0  0  0  0  0  0  0  0  0
    4.3677   -0.9731    1.5527 N   0  0  0  0  0  0  0  0  0  0  0  0
    3.4954   -1.9358    1.8682 C   0  0  0  0  0  0  0  0  0  0  0  0
    2.7494   -2.6761    1.0326 N   0  0  0  0  0  0  0  0  0  0  0  0
    2.8898   -2.4789   -0.2987 C   0  0  0  0  0  0  0  0  0  0  0  0
    2.1693   -3.2587   -1.1912 O   0  0  0  0  0  0  0  0  0  0  0  0
    2.0056   -4.5960   -0.8867 C   0  0  0  0  0  0  0  0  0  0  0  0
    2.9493   -5.3501   -0.1901 C   0  0  0  0  0  0  0  0  0  0  0  0
    2.7258   -6.7061    0.0693 C   0  0  0  0  0  0  0  0  0  0  0  0
    1.5673   -7.3499   -0.3798 C   0  0  0  0  0  0  0  0  0  0  0  0
    1.3344   -8.7322   -0.1148 N   0  0  0  0  0  0  0  0  0  0  0  0
    1.8812   -9.4153    0.9590 C   0  0  0  0  0  0  0  0  0  0  0  0
    2.5074   -8.8807    1.8687 O   0  0  0  0  0  0  0  0  0  0  0  0
    1.6851  -10.7939    0.8690 N   0  0  0  0  0  0  0  0  0  0  0  0
    2.3550  -11.6211    1.8097 C   0  0  0  0  0  0  0  0  0  0  0  0
    3.2775  -12.5641    1.3485 C   0  0  0  0  0  0  0  0  0  0  0  0
    4.1927  -13.1479    2.2434 C   0  0  0  0  0  0  0  0  0  0  0  0
    5.4275  -13.8616    1.7101 C   0  0  0  0  0  0  0  0  0  0  0  0
    5.2650  -15.2993    1.4708 N   0  0  0  0  0  0  0  0  0  0  0  0
    5.2075  -16.0976    2.7145 C   0  0  0  0  0  0  0  0  0  0  0  0
    6.5572  -16.2311    3.4401 C   0  0  0  0  0  0  0  0  0  0  0  0
    7.5367  -16.8319    2.5876 O   0  0  0  0  0  0  0  0  0  0  0  0
    7.7082  -16.0779    1.3837 C   0  0  0  0  0  0  0  0  0  0  0  0
    6.3753  -15.8375    0.6444 C   0  0  0  0  0  0  0  0  0  0  0  0
    4.0265  -12.9296    3.6223 C   0  0  0  0  0  0  0  0  0  0  0  0
    3.0072  -12.0922    4.1068 C   0  0  0  0  0  0  0  0  0  0  0  0
    2.7852  -11.8828    5.5839 C   0  0  0  0  0  0  0  0  0  0  0  0
    3.5687  -12.6783    6.3668 F   0  0  0  0  0  0  0  0  0  0  0  0
    3.0312  -10.6067    5.9881 F   0  0  0  0  0  0  0  0  0  0  0  0
    1.5018  -12.1526    5.9581 F   0  0  0  0  0  0  0  0  0  0  0  0
    2.2091  -11.4032    3.1832 C   0  0  0  0  0  0  0  0  0  0  0  0
    0.6510   -6.5993   -1.1343 C   0  0  0  0  0  0  0  0  0  0  0  0
   -0.7889   -7.3299   -1.7584 Cl  0  0  0  0  0  0  0  0  0  0  0  0
    0.8642   -5.2320   -1.3818 C   0  0  0  0  0  0  0  0  0  0  0  0
    3.7359   -1.4643   -0.7254 C   0  0  0  0  0  0  0  0  0  0  0  0
    4.0344   -0.8209   -4.0323 H   0  0  0  0  0  0  0  0  0  0  0  0
    2.4825   -1.2068   -3.2343 H   0  0  0  0  0  0  0  0  0  0  0  0
    3.7793   -2.4520   -3.3527 H   0  0  0  0  0  0  0  0  0  0  0  0
    5.4233    0.5740   -2.6558 H   0  0  0  0  0  0  0  0  0  0  0  0
    5.9552    0.8955   -0.0043 H   0  0  0  0  0  0  0  0  0  0  0  0
    3.3851   -2.1532    2.9257 H   0  0  0  0  0  0  0  0  0  0  0  0
    3.8667   -4.9013    0.1820 H   0  0  0  0  0  0  0  0  0  0  0  0
    3.4930   -7.2379    0.6259 H   0  0  0  0  0  0  0  0  0  0  0  0
    0.5074   -9.1363   -0.5370 H   0  0  0  0  0  0  0  0  0  0  0  0
    1.6778  -11.1297   -0.0842 H   0  0  0  0  0  0  0  0  0  0  0  0
    3.3870  -12.7468    0.2829 H   0  0  0  0  0  0  0  0  0  0  0  0
    6.2841  -13.6345    2.3560 H   0  0  0  0  0  0  0  0  0  0  0  0
    5.6635  -13.3696    0.7552 H   0  0  0  0  0  0  0  0  0  0  0  0
    4.8748  -17.1055    2.4332 H   0  0  0  0  0  0  0  0  0  0  0  0
    4.4449  -15.7149    3.3977 H   0  0  0  0  0  0  0  0  0  0  0  0
    6.4411  -16.8831    4.3116 H   0  0  0  0  0  0  0  0  0  0  0  0
    6.9310  -15.2670    3.8033 H   0  0  0  0  0  0  0  0  0  0  0  0
    8.3756  -16.6604    0.7384 H   0  0  0  0  0  0  0  0  0  0  0  0
    8.2186  -15.1370    1.6173 H   0  0  0  0  0  0  0  0  0  0  0  0
    6.0349  -16.8023    0.2474 H   0  0  0  0  0  0  0  0  0  0  0  0
    6.5528  -15.2027   -0.2323 H   0  0  0  0  0  0  0  0  0  0  0  0
    4.7189  -13.3872    4.3286 H   0  0  0  0  0  0  0  0  0  0  0  0
    1.4904  -10.6662    3.5427 H   0  0  0  0  0  0  0  0  0  0  0  0
    0.1345   -4.6591   -1.9477 H   0  0  0  0  0  0  0  0  0  0  0  0
  1  2  1  0  0  0  0
  1 40  1  0  0  0  0
  1 41  1  0  0  0  0
  1 42  1  0  0  0  0
  2  3  1  0  0  0  0
  2 39  1  0  0  0  0
  3  4  2  0  0  0  0
  3 43  1  0  0  0  0
  4  5  1  0  0  0  0
  4 44  1  0  0  0  0
  5  6  1  0  0  0  0
  5 39  2  0  0  0  0
  6  7  2  0  0  0  0
  7  8  1  0  0  0  0
  7 45  1  0  0  0  0
  8  9  2  0  0  0  0
  9 10  1  0  0  0  0
  9 39  1  0  0  0  0
 10 11  1  0  0  0  0
 11 12  1  0  0  0  0
 11 38  2  0  0  0  0
 12 13  2  0  0  0  0
 12 46  1  0  0  0  0
 13 14  1  0  0  0  0
 13 47  1  0  0  0  0
 14 15  1  0  0  0  0
 14 36  2  0  0  0  0
 15 16  1  0  0  0  0
 15 48  1  0  0  0  0
 16 17  2  0  0  0  0
 16 18  1  0  0  0  0
 18 19  1  0  0  0  0
 18 49  1  0  0  0  0
 19 20  1  0  0  0  0
 19 35  2  0  0  0  0
 20 21  2  0  0  0  0
 20 50  1  0  0  0  0
 21 22  1  0  0  0  0
 21 29  1  0  0  0  0
 22 23  1  0  0  0  0
 22 51  1  0  0  0  0
 22 52  1  0  0  0  0
 23 24  1  0  0  0  0
 23 28  1  0  0  0  0
 24 25  1  0  0  0  0
 24 53  1  0  0  0  0
 24 54  1  0  0  0  0
 25 26  1  0  0  0  0
 25 55  1  0  0  0  0
 25 56  1  0  0  0  0
 26 27  1  0  0  0  0
 27 28  1  0  0  0  0
 27 57  1  0  0  0  0
 27 58  1  0  0  0  0
 28 59  1  0  0  0  0
 28 60  1  0  0  0  0
 29 30  2  0  0  0  0
 29 61  1  0  0  0  0
 30 31  1  0  0  0  0
 30 35  1  0  0  0  0
 31 32  1  0  0  0  0
 31 33  1  0  0  0  0
 31 34  1  0  0  0  0
 35 62  1  0  0  0  0
 36 37  1  0  0  0  0
 36 38  1  0  0  0  0
 38 63  1  0  0  0  0
M  END
$$$$
