CHEMBL402319
 OpenBabel04072215373D

 64 68  0  0  0  0  0  0  0  0999 V2000
    1.4363    1.0366    0.7589 C   0  0  0  0  0  0  0  0  0  0  0  0
    2.4209    0.1172    0.0381 C   0  0  0  0  0  0  0  0  0  0  0  0
    3.4812    0.8733   -0.7587 C   0  0  0  0  0  0  0  0  0  0  0  0
    2.9532   -1.0029    0.9179 C   0  0  0  0  0  0  0  0  0  0  0  0
    2.7302   -2.4071    0.6436 C   0  0  0  0  0  0  0  0  0  0  0  0
    2.0802   -3.0602   -0.5403 C   0  0  0  0  0  0  0  0  0  0  0  0
    1.7002   -2.4143   -1.6256 N   0  0  0  0  0  0  0  0  0  0  0  0
    1.1625   -3.3412   -2.4819 N   0  0  0  0  0  0  0  0  0  0  0  0
    1.2487   -4.5010   -1.8740 C   0  0  0  0  0  0  0  0  0  0  0  0
    0.8563   -5.7222   -2.2721 N   0  0  0  0  0  0  0  0  0  0  0  0
    0.6561   -5.9585   -3.6914 C   0  0  0  0  0  0  0  0  0  0  0  0
   -0.4833   -6.9498   -3.9236 C   0  0  0  0  0  0  0  0  0  0  0  0
   -1.8284   -6.3922   -3.4578 C   0  0  0  0  0  0  0  0  0  0  0  0
   -2.8976   -7.3508   -3.7248 N   0  0  0  0  0  0  0  0  0  0  0  0
    1.8276   -4.4113   -0.6426 O   0  0  0  0  0  0  0  0  0  0  0  0
    3.2121   -3.1285    1.7052 C   0  0  0  0  0  0  0  0  0  0  0  0
    3.7772   -2.2558    2.5891 N   0  0  0  0  0  0  0  0  0  0  0  0
    4.3396   -2.6425    3.7417 N   0  0  0  0  0  0  0  0  0  0  0  0
    4.8344   -1.6684    4.4279 C   0  0  0  0  0  0  0  0  0  0  0  0
    4.8482   -0.3505    4.0710 N   0  0  0  0  0  0  0  0  0  0  0  0
    4.3039    0.0421    2.9507 C   0  0  0  0  0  0  0  0  0  0  0  0
    4.3514    1.3808    2.6373 N   0  0  0  0  0  0  0  0  0  0  0  0
    5.3205    2.3210    3.0490 C   0  0  0  0  0  0  0  0  0  0  0  0
    6.6257    1.9571    3.4067 C   0  0  0  0  0  0  0  0  0  0  0  0
    7.5791    2.9196    3.7858 C   0  0  0  0  0  0  0  0  0  0  0  0
    8.9697    2.4559    4.0618 C   0  0  0  0  0  0  0  0  0  0  0  0
    9.2411    1.2629    3.9541 O   0  0  0  0  0  0  0  0  0  0  0  0
    9.9013    3.4084    4.4247 N   0  0  0  0  0  0  0  0  0  0  0  0
   11.2527    3.0720    4.7471 C   0  0  0  0  0  0  0  0  0  0  0  0
   12.2394    4.1556    5.0869 C   0  0  0  0  0  0  0  0  0  0  0  0
   12.3820    3.3875    3.8060 C   0  0  0  0  0  0  0  0  0  0  0  0
    7.1873    4.2577    3.8565 C   0  0  0  0  0  0  0  0  0  0  0  0
    8.0579    5.2154    4.2154 F   0  0  0  0  0  0  0  0  0  0  0  0
    5.8868    4.6423    3.5496 C   0  0  0  0  0  0  0  0  0  0  0  0
    4.9705    3.6756    3.1464 C   0  0  0  0  0  0  0  0  0  0  0  0
    3.7221    4.0594    2.8394 F   0  0  0  0  0  0  0  0  0  0  0  0
    3.6772   -0.9701    2.1227 C   0  0  0  0  0  0  0  0  0  0  0  0
    1.0371    1.7866    0.0667 H   0  0  0  0  0  0  0  0  0  0  0  0
    1.8685    1.5666    1.6059 H   0  0  0  0  0  0  0  0  0  0  0  0
    0.5902    0.4567    1.1436 H   0  0  0  0  0  0  0  0  0  0  0  0
    1.7960   -0.3420   -0.7313 H   0  0  0  0  0  0  0  0  0  0  0  0
    4.1256    1.4946   -0.1380 H   0  0  0  0  0  0  0  0  0  0  0  0
    2.9941    1.5317   -1.4904 H   0  0  0  0  0  0  0  0  0  0  0  0
    4.1175    0.1823   -1.3241 H   0  0  0  0  0  0  0  0  0  0  0  0
    1.1698   -6.5147   -1.7235 H   0  0  0  0  0  0  0  0  0  0  0  0
    1.5820   -6.3675   -4.1126 H   0  0  0  0  0  0  0  0  0  0  0  0
    0.4368   -5.0331   -4.2384 H   0  0  0  0  0  0  0  0  0  0  0  0
   -0.2680   -7.8937   -3.4078 H   0  0  0  0  0  0  0  0  0  0  0  0
   -0.5326   -7.1737   -4.9972 H   0  0  0  0  0  0  0  0  0  0  0  0
   -2.0503   -5.4500   -3.9715 H   0  0  0  0  0  0  0  0  0  0  0  0
   -1.8052   -6.1878   -2.3827 H   0  0  0  0  0  0  0  0  0  0  0  0
   -3.0052   -7.4769   -4.7306 H   0  0  0  0  0  0  0  0  0  0  0  0
   -3.7808   -6.9627   -3.3933 H   0  0  0  0  0  0  0  0  0  0  0  0
    3.2178   -4.1921    1.9119 H   0  0  0  0  0  0  0  0  0  0  0  0
    5.3061   -1.9025    5.3954 H   0  0  0  0  0  0  0  0  0  0  0  0
    3.7502    1.7308    1.9088 H   0  0  0  0  0  0  0  0  0  0  0  0
    6.9307    0.9128    3.3505 H   0  0  0  0  0  0  0  0  0  0  0  0
    9.6114    4.3754    4.5293 H   0  0  0  0  0  0  0  0  0  0  0  0
   11.3384    2.1418    5.3072 H   0  0  0  0  0  0  0  0  0  0  0  0
   12.9457    3.9563    5.8842 H   0  0  0  0  0  0  0  0  0  0  0  0
   11.9264    5.1902    5.0190 H   0  0  0  0  0  0  0  0  0  0  0  0
   13.1911    2.6689    3.7329 H   0  0  0  0  0  0  0  0  0  0  0  0
   12.1563    3.8938    2.8758 H   0  0  0  0  0  0  0  0  0  0  0  0
    5.5907    5.6832    3.6153 H   0  0  0  0  0  0  0  0  0  0  0  0
  1  2  1  0  0  0  0
  1 38  1  0  0  0  0
  1 39  1  0  0  0  0
  1 40  1  0  0  0  0
  2  3  1  0  0  0  0
  2  4  1  0  0  0  0
  2 41  1  0  0  0  0
  3 42  1  0  0  0  0
  3 43  1  0  0  0  0
  3 44  1  0  0  0  0
  4  5  1  0  0  0  0
  4 37  2  0  0  0  0
  5  6  1  0  0  0  0
  5 16  2  0  0  0  0
  6  7  2  0  0  0  0
  6 15  1  0  0  0  0
  7  8  1  0  0  0  0
  8  9  2  0  0  0  0
  9 10  1  0  0  0  0
  9 15  1  0  0  0  0
 10 11  1  0  0  0  0
 10 45  1  0  0  0  0
 11 12  1  0  0  0  0
 11 46  1  0  0  0  0
 11 47  1  0  0  0  0
 12 13  1  0  0  0  0
 12 48  1  0  0  0  0
 12 49  1  0  0  0  0
 13 14  1  0  0  0  0
 13 50  1  0  0  0  0
 13 51  1  0  0  0  0
 14 52  1  0  0  0  0
 14 53  1  0  0  0  0
 16 17  1  0  0  0  0
 16 54  1  0  0  0  0
 17 18  1  0  0  0  0
 17 37  1  0  0  0  0
 18 19  2  0  0  0  0
 19 20  1  0  0  0  0
 19 55  1  0  0  0  0
 20 21  2  0  0  0  0
 21 22  1  0  0  0  0
 21 37  1  0  0  0  0
 22 23  1  0  0  0  0
 22 56  1  0  0  0  0
 23 24  1  0  0  0  0
 23 35  2  0  0  0  0
 24 25  2  0  0  0  0
 24 57  1  0  0  0  0
 25 26  1  0  0  0  0
 25 32  1  0  0  0  0
 26 27  2  0  0  0  0
 26 28  1  0  0  0  0
 28 29  1  0  0  0  0
 28 58  1  0  0  0  0
 29 30  1  0  0  0  0
 29 31  1  0  0  0  0
 29 59  1  0  0  0  0
 30 31  1  0  0  0  0
 30 60  1  0  0  0  0
 30 61  1  0  0  0  0
 31 62  1  0  0  0  0
 31 63  1  0  0  0  0
 32 33  1  0  0  0  0
 32 34  2  0  0  0  0
 34 35  1  0  0  0  0
 34 64  1  0  0  0  0
 35 36  1  0  0  0  0
M  END
$$$$
