CHEMBL3937184
 OpenBabel04072215373D

 56 60  0  0  0  0  0  0  0  0999 V2000
    1.3096    0.7503    0.8539 O   0  0  0  0  0  0  0  0  0  0  0  0
    2.4041    0.4198    0.4166 C   0  0  0  0  0  0  0  0  0  0  0  0
    2.9735    0.9294   -0.7384 N   0  0  0  0  0  0  0  0  0  0  0  0
    2.3474    1.8384   -1.6250 C   0  0  0  0  0  0  0  0  0  0  0  0
    1.1867    2.5563   -1.3109 C   0  0  0  0  0  0  0  0  0  0  0  0
    0.5349    3.3349   -2.2743 C   0  0  0  0  0  0  0  0  0  0  0  0
    1.0479    3.4217   -3.5650 C   0  0  0  0  0  0  0  0  0  0  0  0
    0.3145    4.1660   -4.4605 O   0  0  0  0  0  0  0  0  0  0  0  0
    0.1846    3.7346   -5.7638 C   0  0  0  0  0  0  0  0  0  0  0  0
    0.2848    2.4087   -6.1704 C   0  0  0  0  0  0  0  0  0  0  0  0
    0.2165    2.1464   -7.5204 C   0  0  0  0  0  0  0  0  0  0  0  0
   -0.0074    3.0933   -8.4485 N   0  0  0  0  0  0  0  0  0  0  0  0
   -0.1819    4.3633   -8.0481 C   0  0  0  0  0  0  0  0  0  0  0  0
   -0.4500    5.3608   -9.0006 N   0  0  0  0  0  0  0  0  0  0  0  0
   -0.5017    5.1276  -10.3597 C   0  0  0  0  0  0  0  0  0  0  0  0
   -0.3133    4.0716  -10.9465 O   0  0  0  0  0  0  0  0  0  0  0  0
   -0.8472    6.3433  -11.1709 C   0  0  0  0  0  0  0  0  0  0  0  0
   -2.0191    6.2716  -12.1241 C   0  0  0  0  0  0  0  0  0  0  0  0
   -0.6205    6.3310  -12.6650 C   0  0  0  0  0  0  0  0  0  0  0  0
   -0.1000    4.7239   -6.7094 C   0  0  0  0  0  0  0  0  0  0  0  0
    2.2716    2.8071   -3.8404 C   0  0  0  0  0  0  0  0  0  0  0  0
    2.8557    2.9432   -5.0397 F   0  0  0  0  0  0  0  0  0  0  0  0
    2.9070    2.0020   -2.8931 C   0  0  0  0  0  0  0  0  0  0  0  0
    3.2018   -0.5521    0.9991 N   0  0  0  0  0  0  0  0  0  0  0  0
    2.7605   -1.4515    2.0011 C   0  0  0  0  0  0  0  0  0  0  0  0
    1.4072   -1.7224    2.2209 C   0  0  0  0  0  0  0  0  0  0  0  0
    0.9620   -2.6232    3.2052 C   0  0  0  0  0  0  0  0  0  0  0  0
   -0.5205   -2.8717    3.3418 C   0  0  0  0  0  0  0  0  0  0  0  0
   -1.3953   -1.6972    3.7346 C   0  0  0  0  0  0  0  0  0  0  0  0
   -1.2449   -2.8639    4.6616 C   0  0  0  0  0  0  0  0  0  0  0  0
    1.9365   -3.2774    3.9711 C   0  0  0  0  0  0  0  0  0  0  0  0
    3.2995   -3.0371    3.7558 C   0  0  0  0  0  0  0  0  0  0  0  0
    3.6988   -2.1357    2.7703 C   0  0  0  0  0  0  0  0  0  0  0  0
    5.0094   -1.9236    2.5693 F   0  0  0  0  0  0  0  0  0  0  0  0
    3.7810    0.4333   -1.0877 H   0  0  0  0  0  0  0  0  0  0  0  0
    0.7446    2.5244   -0.3190 H   0  0  0  0  0  0  0  0  0  0  0  0
   -0.3836    3.8531   -2.0095 H   0  0  0  0  0  0  0  0  0  0  0  0
    0.4486    1.5914   -5.4803 H   0  0  0  0  0  0  0  0  0  0  0  0
    0.3516    1.1429   -7.9123 H   0  0  0  0  0  0  0  0  0  0  0  0
   -0.6241    6.2941   -8.6605 H   0  0  0  0  0  0  0  0  0  0  0  0
   -0.6816    7.2937  -10.6755 H   0  0  0  0  0  0  0  0  0  0  0  0
   -2.6445    7.1472  -12.2406 H   0  0  0  0  0  0  0  0  0  0  0  0
   -2.5509    5.3288  -12.2150 H   0  0  0  0  0  0  0  0  0  0  0  0
   -0.2925    7.2451  -13.1422 H   0  0  0  0  0  0  0  0  0  0  0  0
   -0.2160    5.4295  -13.1173 H   0  0  0  0  0  0  0  0  0  0  0  0
   -0.2355    5.7500   -6.3885 H   0  0  0  0  0  0  0  0  0  0  0  0
    3.8202    1.4932   -3.1836 H   0  0  0  0  0  0  0  0  0  0  0  0
    4.2041   -0.4742    0.8834 H   0  0  0  0  0  0  0  0  0  0  0  0
    0.6415   -1.2493    1.6105 H   0  0  0  0  0  0  0  0  0  0  0  0
   -0.9360   -3.5326    2.5821 H   0  0  0  0  0  0  0  0  0  0  0  0
   -2.3262   -1.5670    3.1950 H   0  0  0  0  0  0  0  0  0  0  0  0
   -0.9245   -0.7630    4.0249 H   0  0  0  0  0  0  0  0  0  0  0  0
   -2.0998   -3.5231    4.7696 H   0  0  0  0  0  0  0  0  0  0  0  0
   -0.6840   -2.7126    5.5751 H   0  0  0  0  0  0  0  0  0  0  0  0
    1.6331   -3.9900    4.7351 H   0  0  0  0  0  0  0  0  0  0  0  0
    4.0491   -3.5526    4.3482 H   0  0  0  0  0  0  0  0  0  0  0  0
  1  2  2  0  0  0  0
  2  3  1  0  0  0  0
  2 24  1  0  0  0  0
  3  4  1  0  0  0  0
  3 35  1  0  0  0  0
  4  5  1  0  0  0  0
  4 23  2  0  0  0  0
  5  6  2  0  0  0  0
  5 36  1  0  0  0  0
  6  7  1  0  0  0  0
  6 37  1  0  0  0  0
  7  8  1  0  0  0  0
  7 21  2  0  0  0  0
  8  9  1  0  0  0  0
  9 10  1  0  0  0  0
  9 20  2  0  0  0  0
 10 11  2  0  0  0  0
 10 38  1  0  0  0  0
 11 12  1  0  0  0  0
 11 39  1  0  0  0  0
 12 13  2  0  0  0  0
 13 14  1  0  0  0  0
 13 20  1  0  0  0  0
 14 15  1  0  0  0  0
 14 40  1  0  0  0  0
 15 16  2  0  0  0  0
 15 17  1  0  0  0  0
 17 18  1  0  0  0  0
 17 19  1  0  0  0  0
 17 41  1  0  0  0  0
 18 19  1  0  0  0  0
 18 42  1  0  0  0  0
 18 43  1  0  0  0  0
 19 44  1  0  0  0  0
 19 45  1  0  0  0  0
 20 46  1  0  0  0  0
 21 22  1  0  0  0  0
 21 23  1  0  0  0  0
 23 47  1  0  0  0  0
 24 25  1  0  0  0  0
 24 48  1  0  0  0  0
 25 26  1  0  0  0  0
 25 33  2  0  0  0  0
 26 27  2  0  0  0  0
 26 49  1  0  0  0  0
 27 28  1  0  0  0  0
 27 31  1  0  0  0  0
 28 29  1  0  0  0  0
 28 30  1  0  0  0  0
 28 50  1  0  0  0  0
 29 30  1  0  0  0  0
 29 51  1  0  0  0  0
 29 52  1  0  0  0  0
 30 53  1  0  0  0  0
 30 54  1  0  0  0  0
 31 32  2  0  0  0  0
 31 55  1  0  0  0  0
 32 33  1  0  0  0  0
 32 56  1  0  0  0  0
 33 34  1  0  0  0  0
M  END
$$$$
