CHEMBL3644026
 OpenBabel04072215373D

 49 50  0  0  1  0  0  0  0  0999 V2000
    5.4521    1.0439    0.4897 C   0  0  0  0  0  0  0  0  0  0  0  0
    4.1421    0.3251    0.7831 C   0  0  1  0  0  0  0  0  0  0  0  0
    3.0908    1.0370    0.1222 O   0  0  0  0  0  0  0  0  0  0  0  0
    4.1621   -1.1656    0.3569 C   0  0  1  0  0  0  0  0  0  0  0  0
    2.8087   -1.8083    0.6750 C   0  0  0  0  0  0  0  0  0  0  0  0
    4.3846   -1.2257   -1.0647 O   0  0  0  0  0  0  0  0  0  0  0  0
    5.0559   -2.3280   -1.5565 C   0  0  0  0  0  0  0  0  0  0  0  0
    5.9086   -3.0047   -0.7466 N   0  0  0  0  0  0  0  0  0  0  0  0
    6.5886   -4.0274   -1.2969 C   0  0  0  0  0  0  0  0  0  0  0  0
    7.5781   -4.6730   -0.5504 N   0  0  0  0  0  0  0  0  0  0  0  0
    8.4953   -5.6568   -0.9681 C   0  0  0  0  0  0  0  0  0  0  0  0
    8.8800   -5.8039   -2.3141 C   0  0  0  0  0  0  0  0  0  0  0  0
    9.6064   -6.9096   -2.7636 C   0  0  0  0  0  0  0  0  0  0  0  0
    9.9914   -7.8837   -1.8493 C   0  0  0  0  0  0  0  0  0  0  0  0
   10.7425   -9.3797   -2.4457 S   0  0  0  0  0  0  0  0  0  0  0  0
   11.1013  -10.1706   -1.2870 O   0  0  0  0  0  0  0  0  0  0  0  0
    9.8578   -9.9116   -3.4604 O   0  0  0  0  0  0  0  0  0  0  0  0
   12.2456   -8.8717   -3.2362 C   0  0  0  0  0  0  0  0  0  0  0  0
   13.0079  -10.0855   -3.7310 C   0  0  0  0  0  0  0  0  0  0  0  0
   14.2080   -9.6711   -4.3793 O   0  0  0  0  0  0  0  0  0  0  0  0
    9.6840   -7.7362   -0.4937 C   0  0  0  0  0  0  0  0  0  0  0  0
    8.9391   -6.6280   -0.0607 C   0  0  0  0  0  0  0  0  0  0  0  0
    6.3648   -4.4466   -2.5489 N   0  0  0  0  0  0  0  0  0  0  0  0
    5.5346   -3.7426   -3.3204 C   0  0  0  0  0  0  0  0  0  0  0  0
    4.8799   -2.6211   -2.8877 C   0  0  0  0  0  0  0  0  0  0  0  0
    4.1124   -1.8346   -3.8794 C   0  0  0  0  0  0  0  0  0  0  0  0
    3.4805   -0.7282   -3.4104 F   0  0  0  0  0  0  0  0  0  0  0  0
    4.9199   -1.3937   -4.8900 F   0  0  0  0  0  0  0  0  0  0  0  0
    3.1525   -2.5820   -4.4953 F   0  0  0  0  0  0  0  0  0  0  0  0
    5.3662    2.1063    0.7444 H   0  0  0  0  0  0  0  0  0  0  0  0
    5.7047    0.9994   -0.5746 H   0  0  0  0  0  0  0  0  0  0  0  0
    6.2752    0.6121    1.0661 H   0  0  0  0  0  0  0  0  0  0  0  0
    3.9397    0.3906    1.8586 H   0  0  0  0  0  0  0  0  0  0  0  0
    3.2243    0.9189   -0.8362 H   0  0  0  0  0  0  0  0  0  0  0  0
    4.9538   -1.6660    0.9252 H   0  0  0  0  0  0  0  0  0  0  0  0
    2.0003   -1.3497    0.0935 H   0  0  0  0  0  0  0  0  0  0  0  0
    2.5668   -1.7081    1.7387 H   0  0  0  0  0  0  0  0  0  0  0  0
    2.8110   -2.8724    0.4208 H   0  0  0  0  0  0  0  0  0  0  0  0
    7.5619   -4.4098    0.4218 H   0  0  0  0  0  0  0  0  0  0  0  0
    8.5838   -5.0650   -3.0548 H   0  0  0  0  0  0  0  0  0  0  0  0
    9.8046   -7.0147   -3.8271 H   0  0  0  0  0  0  0  0  0  0  0  0
   12.8474   -8.3019   -2.5219 H   0  0  0  0  0  0  0  0  0  0  0  0
   11.9980   -8.2143   -4.0748 H   0  0  0  0  0  0  0  0  0  0  0  0
   12.4182  -10.6828   -4.4353 H   0  0  0  0  0  0  0  0  0  0  0  0
   13.2875  -10.7387   -2.8985 H   0  0  0  0  0  0  0  0  0  0  0  0
   13.9813   -9.4026   -5.2869 H   0  0  0  0  0  0  0  0  0  0  0  0
    9.9656   -8.5025    0.2260 H   0  0  0  0  0  0  0  0  0  0  0  0
    8.6574   -6.5670    0.9876 H   0  0  0  0  0  0  0  0  0  0  0  0
    5.4420   -4.1109   -4.3389 H   0  0  0  0  0  0  0  0  0  0  0  0
  1  2  1  0  0  0  0
  1 30  1  0  0  0  0
  1 31  1  0  0  0  0
  1 32  1  0  0  0  0
  2  3  1  0  0  0  0
  2  4  1  0  0  0  0
  2 33  1  1  0  0  0
  3 34  1  0  0  0  0
  4  5  1  0  0  0  0
  4  6  1  0  0  0  0
  4 35  1  1  0  0  0
  5 36  1  0  0  0  0
  5 37  1  0  0  0  0
  5 38  1  0  0  0  0
  6  7  1  0  0  0  0
  7  8  1  0  0  0  0
  7 25  2  0  0  0  0
  8  9  2  0  0  0  0
  9 10  1  0  0  0  0
  9 23  1  0  0  0  0
 10 11  1  0  0  0  0
 10 39  1  0  0  0  0
 11 12  1  0  0  0  0
 11 22  2  0  0  0  0
 12 13  2  0  0  0  0
 12 40  1  0  0  0  0
 13 14  1  0  0  0  0
 13 41  1  0  0  0  0
 14 15  1  0  0  0  0
 14 21  2  0  0  0  0
 15 16  2  0  0  0  0
 15 17  2  0  0  0  0
 15 18  1  0  0  0  0
 18 19  1  0  0  0  0
 18 42  1  0  0  0  0
 18 43  1  0  0  0  0
 19 20  1  0  0  0  0
 19 44  1  0  0  0  0
 19 45  1  0  0  0  0
 20 46  1  0  0  0  0
 21 22  1  0  0  0  0
 21 47  1  0  0  0  0
 22 48  1  0  0  0  0
 23 24  2  0  0  0  0
 24 25  1  0  0  0  0
 24 49  1  0  0  0  0
 25 26  1  0  0  0  0
 26 27  1  0  0  0  0
 26 28  1  0  0  0  0
 26 29  1  0  0  0  0
M  END
$$$$
