CHEMBL3920036
 OpenBabel04072215373D

 55 59  0  0  1  0  0  0  0  0999 V2000
    0.7958   -0.9228    1.5632 C   0  0  0  0  0  0  0  0  0  0  0  0
    1.1601   -1.3611    0.2572 O   0  0  0  0  0  0  0  0  0  0  0  0
    2.2697   -2.1339    0.0703 C   0  0  0  0  0  0  0  0  0  0  0  0
    3.2972   -2.3017    1.0106 C   0  0  0  0  0  0  0  0  0  0  0  0
    4.4819   -3.0234    0.7092 C   0  0  0  0  0  0  0  0  0  0  0  0
    5.6639   -3.0693    1.4760 C   0  0  0  0  0  0  0  0  0  0  0  0
    6.0167   -2.2069    2.5270 N   0  0  0  0  0  0  0  0  0  0  0  0
    5.9296   -0.8137    2.7430 C   0  0  0  0  0  0  0  0  0  0  0  0
    6.6054   -0.2788    3.8556 C   0  0  0  0  0  0  0  0  0  0  0  0
    6.4354    1.0546    4.2510 C   0  0  0  0  0  0  0  0  0  0  0  0
    5.5441    1.8755    3.5638 C   0  0  0  0  0  0  0  0  0  0  0  0
    5.2778    3.4706    4.1670 Cl  0  0  0  0  0  0  0  0  0  0  0  0
    4.8941    1.3789    2.4348 C   0  0  0  0  0  0  0  0  0  0  0  0
    3.7448    2.3129    1.5408 Cl  0  0  0  0  0  0  0  0  0  0  0  0
    5.1261    0.0618    2.0100 C   0  0  0  0  0  0  0  0  0  0  0  0
    6.6229   -3.9855    1.2417 N   0  0  0  0  0  0  0  0  0  0  0  0
    6.4592   -4.7639    0.1678 C   0  0  0  0  0  0  0  0  0  0  0  0
    5.4735   -4.6716   -0.7261 N   0  0  0  0  0  0  0  0  0  0  0  0
    4.5042   -3.7937   -0.4574 C   0  0  0  0  0  0  0  0  0  0  0  0
    3.4891   -3.6291   -1.3922 C   0  0  0  0  0  0  0  0  0  0  0  0
    2.4313   -2.7372   -1.1832 C   0  0  0  0  0  0  0  0  0  0  0  0
    1.5110   -2.5082   -2.1919 O   0  0  0  0  0  0  0  0  0  0  0  0
    2.1074   -2.0217   -3.4158 C   0  0  3  0  0  0  0  0  0  0  0  0
    1.3147   -0.8201   -3.9449 C   0  0  0  0  0  0  0  0  0  0  0  0
    0.3477   -1.3778   -4.9765 C   0  0  2  0  0  0  0  0  0  0  0  0
   -0.9117   -2.0114   -4.4075 C   0  0  0  0  0  0  0  0  0  0  0  0
   -1.3006   -3.0353   -5.3875 N   0  0  0  0  0  0  0  0  0  0  0  0
   -2.2814   -2.5154   -6.3388 C   0  0  0  0  0  0  0  0  0  0  0  0
   -0.0599   -3.4894   -6.0484 C   0  0  0  0  0  0  0  0  0  0  0  0
    1.0677   -2.5448   -5.6246 C   0  0  2  0  0  0  0  0  0  0  0  0
    2.0346   -3.0714   -4.5465 C   0  0  0  0  0  0  0  0  0  0  0  0
    0.4470    0.1110    1.4810 H   0  0  0  0  0  0  0  0  0  0  0  0
    1.5869   -0.9230    2.3138 H   0  0  0  0  0  0  0  0  0  0  0  0
   -0.0358   -1.5325    1.9302 H   0  0  0  0  0  0  0  0  0  0  0  0
    3.2368   -1.8579    1.9973 H   0  0  0  0  0  0  0  0  0  0  0  0
    6.9022   -2.5768    2.8761 H   0  0  0  0  0  0  0  0  0  0  0  0
    7.2805   -0.9035    4.4386 H   0  0  0  0  0  0  0  0  0  0  0  0
    6.9803    1.4337    5.1127 H   0  0  0  0  0  0  0  0  0  0  0  0
    4.6483   -0.2560    1.0928 H   0  0  0  0  0  0  0  0  0  0  0  0
    7.2074   -5.5309    0.0010 H   0  0  0  0  0  0  0  0  0  0  0  0
    3.5417   -4.2008   -2.3165 H   0  0  0  0  0  0  0  0  0  0  0  0
    3.1434   -1.7014   -3.2418 H   0  0  0  0  0  0  0  0  0  0  0  0
    2.0066   -0.1396   -4.4579 H   0  0  0  0  0  0  0  0  0  0  0  0
    0.7993   -0.2605   -3.1593 H   0  0  0  0  0  0  0  0  0  0  0  0
    0.0831   -0.6206   -5.7257 H   0  0  0  0  0  0  0  0  0  0  0  0
   -1.6911   -1.2641   -4.2212 H   0  0  0  0  0  0  0  0  0  0  0  0
   -0.7227   -2.5112   -3.4532 H   0  0  0  0  0  0  0  0  0  0  0  0
   -3.1860   -2.1903   -5.8104 H   0  0  0  0  0  0  0  0  0  0  0  0
   -2.5965   -3.3000   -7.0354 H   0  0  0  0  0  0  0  0  0  0  0  0
   -1.9030   -1.6666   -6.9194 H   0  0  0  0  0  0  0  0  0  0  0  0
   -0.1644   -3.4777   -7.1427 H   0  0  0  0  0  0  0  0  0  0  0  0
    0.1497   -4.5272   -5.7696 H   0  0  0  0  0  0  0  0  0  0  0  0
    1.6409   -2.2198   -6.5016 H   0  0  0  0  0  0  0  0  0  0  0  0
    3.0308   -3.1532   -5.0057 H   0  0  0  0  0  0  0  0  0  0  0  0
    1.7696   -4.0659   -4.1795 H   0  0  0  0  0  0  0  0  0  0  0  0
  1  2  1  0  0  0  0
  1 32  1  0  0  0  0
  1 33  1  0  0  0  0
  1 34  1  0  0  0  0
  2  3  1  0  0  0  0
  3  4  1  0  0  0  0
  3 21  2  0  0  0  0
  4  5  2  0  0  0  0
  4 35  1  0  0  0  0
  5  6  1  0  0  0  0
  5 19  1  0  0  0  0
  6  7  1  0  0  0  0
  6 16  2  0  0  0  0
  7  8  1  0  0  0  0
  7 36  1  0  0  0  0
  8  9  1  0  0  0  0
  8 15  2  0  0  0  0
  9 10  2  0  0  0  0
  9 37  1  0  0  0  0
 10 11  1  0  0  0  0
 10 38  1  0  0  0  0
 11 12  1  0  0  0  0
 11 13  2  0  0  0  0
 13 14  1  0  0  0  0
 13 15  1  0  0  0  0
 15 39  1  0  0  0  0
 16 17  1  0  0  0  0
 17 18  2  0  0  0  0
 17 40  1  0  0  0  0
 18 19  1  0  0  0  0
 19 20  2  0  0  0  0
 20 21  1  0  0  0  0
 20 41  1  0  0  0  0
 21 22  1  0  0  0  0
 22 23  1  0  0  0  0
 23 24  1  0  0  0  0
 23 31  1  0  0  0  0
 23 42  1  0  0  0  0
 24 25  1  0  0  0  0
 24 43  1  0  0  0  0
 24 44  1  0  0  0  0
 25 26  1  0  0  0  0
 25 30  1  0  0  0  0
 25 45  1  6  0  0  0
 26 27  1  0  0  0  0
 26 46  1  0  0  0  0
 26 47  1  0  0  0  0
 27 28  1  0  0  0  0
 27 29  1  0  0  0  0
 28 48  1  0  0  0  0
 28 49  1  0  0  0  0
 28 50  1  0  0  0  0
 29 30  1  0  0  0  0
 29 51  1  0  0  0  0
 29 52  1  0  0  0  0
 30 31  1  0  0  0  0
 30 53  1  6  0  0  0
 31 54  1  0  0  0  0
 31 55  1  0  0  0  0
M  END
$$$$
