CHEMBL3358992
 OpenBabel04072215363D

 47 49  0  0  0  0  0  0  0  0999 V2000
    0.6452    0.0641    0.8306 C   0  0  0  0  0  0  0  0  0  0  0  0
    1.9218    0.2400    1.4303 O   0  0  0  0  0  0  0  0  0  0  0  0
    2.8133   -0.7893    1.3011 C   0  0  0  0  0  0  0  0  0  0  0  0
    2.5475   -2.0425    0.7525 C   0  0  0  0  0  0  0  0  0  0  0  0
    3.5646   -2.9935    0.6627 C   0  0  0  0  0  0  0  0  0  0  0  0
    4.8481   -2.6931    1.1223 C   0  0  0  0  0  0  0  0  0  0  0  0
    5.1379   -1.4416    1.6872 C   0  0  0  0  0  0  0  0  0  0  0  0
    6.5300   -1.1204    2.0975 C   0  0  0  0  0  0  0  0  0  0  0  0
    6.7649   -0.3052    3.1425 C   0  0  0  0  0  0  0  0  0  0  0  0
    8.0442    0.0172    3.5000 N   0  0  0  0  0  0  0  0  0  0  0  0
    9.1348   -0.4781    2.8273 C   0  0  0  0  0  0  0  0  0  0  0  0
   10.2804   -0.2321    3.1663 O   0  0  0  0  0  0  0  0  0  0  0  0
    8.7812   -1.3911    1.6372 C   0  0  0  0  0  0  0  0  0  0  0  0
    9.8631   -1.9762    0.7939 C   0  0  0  0  0  0  0  0  0  0  0  0
    9.6401   -3.2144    0.1771 C   0  0  0  0  0  0  0  0  0  0  0  0
   10.6165   -3.8097   -0.6387 C   0  0  0  0  0  0  0  0  0  0  0  0
   10.4155   -5.0166   -1.2572 O   0  0  0  0  0  0  0  0  0  0  0  0
    9.1737   -5.6850   -1.0796 C   0  0  0  0  0  0  0  0  0  0  0  0
   11.8504   -3.1490   -0.8428 C   0  0  0  0  0  0  0  0  0  0  0  0
   12.9214   -3.6302   -1.5502 O   0  0  0  0  0  0  0  0  0  0  0  0
   12.8953   -4.9299   -2.1149 C   0  0  0  0  0  0  0  0  0  0  0  0
   12.0445   -1.8770   -0.2577 C   0  0  0  0  0  0  0  0  0  0  0  0
   13.1682   -1.0888   -0.3447 O   0  0  0  0  0  0  0  0  0  0  0  0
   13.8929   -1.1261   -1.5676 C   0  0  0  0  0  0  0  0  0  0  0  0
   11.0596   -1.3090    0.5607 C   0  0  0  0  0  0  0  0  0  0  0  0
    7.5413   -1.6860    1.3474 N   0  0  0  0  0  0  0  0  0  0  0  0
    4.1000   -0.5001    1.7693 C   0  0  0  0  0  0  0  0  0  0  0  0
    0.1130    1.0179    0.8955 H   0  0  0  0  0  0  0  0  0  0  0  0
    0.0623   -0.6853    1.3754 H   0  0  0  0  0  0  0  0  0  0  0  0
    0.7303   -0.1940   -0.2303 H   0  0  0  0  0  0  0  0  0  0  0  0
    1.5641   -2.3083    0.3793 H   0  0  0  0  0  0  0  0  0  0  0  0
    3.3640   -3.9662    0.2215 H   0  0  0  0  0  0  0  0  0  0  0  0
    5.6308   -3.4421    1.0258 H   0  0  0  0  0  0  0  0  0  0  0  0
    5.9823    0.1334    3.7503 H   0  0  0  0  0  0  0  0  0  0  0  0
    8.2311    0.6263    4.2861 H   0  0  0  0  0  0  0  0  0  0  0  0
    8.6880   -3.7042    0.3582 H   0  0  0  0  0  0  0  0  0  0  0  0
    9.1992   -6.5964   -1.6851 H   0  0  0  0  0  0  0  0  0  0  0  0
    8.3374   -5.0758   -1.4373 H   0  0  0  0  0  0  0  0  0  0  0  0
    9.0349   -5.9838   -0.0357 H   0  0  0  0  0  0  0  0  0  0  0  0
   13.8819   -5.1171   -2.5505 H   0  0  0  0  0  0  0  0  0  0  0  0
   12.1693   -4.9881   -2.9314 H   0  0  0  0  0  0  0  0  0  0  0  0
   12.7318   -5.6993   -1.3541 H   0  0  0  0  0  0  0  0  0  0  0  0
   14.4681   -0.1973   -1.6376 H   0  0  0  0  0  0  0  0  0  0  0  0
   13.2336   -1.1711   -2.4412 H   0  0  0  0  0  0  0  0  0  0  0  0
   14.6149   -1.9476   -1.5626 H   0  0  0  0  0  0  0  0  0  0  0  0
   11.2519   -0.3276    0.9874 H   0  0  0  0  0  0  0  0  0  0  0  0
    4.2843    0.4944    2.1682 H   0  0  0  0  0  0  0  0  0  0  0  0
  1  2  1  0  0  0  0
  1 28  1  0  0  0  0
  1 29  1  0  0  0  0
  1 30  1  0  0  0  0
  2  3  1  0  0  0  0
  3  4  1  0  0  0  0
  3 27  2  0  0  0  0
  4  5  2  0  0  0  0
  4 31  1  0  0  0  0
  5  6  1  0  0  0  0
  5 32  1  0  0  0  0
  6  7  2  0  0  0  0
  6 33  1  0  0  0  0
  7  8  1  0  0  0  0
  7 27  1  0  0  0  0
  8  9  2  0  0  0  0
  8 26  1  0  0  0  0
  9 10  1  0  0  0  0
  9 34  1  0  0  0  0
 10 11  1  0  0  0  0
 10 35  1  0  0  0  0
 11 12  2  0  0  0  0
 11 13  1  0  0  0  0
 13 14  1  0  0  0  0
 13 26  2  0  0  0  0
 14 15  1  0  0  0  0
 14 25  2  0  0  0  0
 15 16  2  0  0  0  0
 15 36  1  0  0  0  0
 16 17  1  0  0  0  0
 16 19  1  0  0  0  0
 17 18  1  0  0  0  0
 18 37  1  0  0  0  0
 18 38  1  0  0  0  0
 18 39  1  0  0  0  0
 19 20  1  0  0  0  0
 19 22  2  0  0  0  0
 20 21  1  0  0  0  0
 21 40  1  0  0  0  0
 21 41  1  0  0  0  0
 21 42  1  0  0  0  0
 22 23  1  0  0  0  0
 22 25  1  0  0  0  0
 23 24  1  0  0  0  0
 24 43  1  0  0  0  0
 24 44  1  0  0  0  0
 24 45  1  0  0  0  0
 25 46  1  0  0  0  0
 27 47  1  0  0  0  0
M  END
$$$$
