CHEMBL3949794
 OpenBabel04072215373D

 68 72  0  0  1  0  0  0  0  0999 V2000
    4.3449   -0.9960   -3.3808 C   0  0  0  0  0  0  0  0  0  0  0  0
    3.7673   -1.1390   -1.9732 C   0  0  3  0  0  0  0  0  0  0  0  0
    2.3155   -0.6168   -1.8573 C   0  0  0  0  0  0  0  0  0  0  0  0
    2.2790    0.8545   -1.8526 N   0  0  0  0  0  0  0  0  0  0  0  0
    1.6893    1.5634   -2.8839 C   0  0  0  0  0  0  0  0  0  0  0  0
    2.2377    2.7550   -3.3711 C   0  0  0  0  0  0  0  0  0  0  0  0
    1.6704    3.5142   -4.4072 C   0  0  0  0  0  0  0  0  0  0  0  0
    2.2602    4.7130   -4.8946 N   0  0  0  0  0  0  0  0  0  0  0  0
    3.5068    5.1893   -4.5263 C   0  0  0  0  0  0  0  0  0  0  0  0
    4.2838    4.6122   -3.7724 O   0  0  0  0  0  0  0  0  0  0  0  0
    3.8073    6.4316   -5.0767 N   0  0  0  0  0  0  0  0  0  0  0  0
    5.0742    7.0073   -4.7856 C   0  0  0  0  0  0  0  0  0  0  0  0
    6.2409    6.2322   -4.8545 C   0  0  0  0  0  0  0  0  0  0  0  0
    7.4649    6.7336   -4.4082 C   0  0  0  0  0  0  0  0  0  0  0  0
    7.5566    8.0510   -3.9565 C   0  0  0  0  0  0  0  0  0  0  0  0
    8.7313    8.6166   -3.4966 O   0  0  0  0  0  0  0  0  0  0  0  0
    9.9245    8.3065   -4.1245 C   0  0  0  0  0  0  0  0  0  0  0  0
   10.0140    7.9889   -5.4759 C   0  0  0  0  0  0  0  0  0  0  0  0
   11.2487    7.6427   -5.9736 C   0  0  0  0  0  0  0  0  0  0  0  0
   12.3713    7.6596   -5.2392 N   0  0  0  0  0  0  0  0  0  0  0  0
   12.3056    8.0393   -3.9515 C   0  0  0  0  0  0  0  0  0  0  0  0
   13.4968    8.1022   -3.1958 N   0  0  0  0  0  0  0  0  0  0  0  0
   14.7440    7.7641   -3.6991 C   0  0  0  0  0  0  0  0  0  0  0  0
   14.9929    7.3511   -4.8248 O   0  0  0  0  0  0  0  0  0  0  0  0
   15.9088    7.9010   -2.7785 C   0  0  0  0  0  0  0  0  0  0  0  0
   15.9645    7.0693   -1.5188 C   0  0  0  0  0  0  0  0  0  0  0  0
   15.9405    8.5689   -1.4316 C   0  0  0  0  0  0  0  0  0  0  0  0
   11.0930    8.3686   -3.3532 C   0  0  0  0  0  0  0  0  0  0  0  0
    6.3910    8.8232   -3.9038 C   0  0  0  0  0  0  0  0  0  0  0  0
    6.4339   10.0667   -3.4022 F   0  0  0  0  0  0  0  0  0  0  0  0
    5.1567    8.3225   -4.3354 C   0  0  0  0  0  0  0  0  0  0  0  0
    0.4772    3.0647   -4.9730 C   0  0  0  0  0  0  0  0  0  0  0  0
   -0.1102    1.8692   -4.5227 C   0  0  0  0  0  0  0  0  0  0  0  0
   -1.3872    1.3315   -5.1166 C   0  0  0  0  0  0  0  0  0  0  0  0
   -1.8972    2.1093   -6.1115 F   0  0  0  0  0  0  0  0  0  0  0  0
   -1.2239    0.0923   -5.6598 F   0  0  0  0  0  0  0  0  0  0  0  0
   -2.3821    1.2043   -4.1950 F   0  0  0  0  0  0  0  0  0  0  0  0
    0.5079    1.1385   -3.4880 C   0  0  0  0  0  0  0  0  0  0  0  0
    3.2130    1.4610   -0.8832 C   0  0  0  0  0  0  0  0  0  0  0  0
    4.6284    0.8904   -1.0442 C   0  0  0  0  0  0  0  0  0  0  0  0
    4.6375   -0.5455   -0.9912 O   0  0  0  0  0  0  0  0  0  0  0  0
    3.7523   -1.5627   -4.1053 H   0  0  0  0  0  0  0  0  0  0  0  0
    5.3752   -1.3674   -3.4055 H   0  0  0  0  0  0  0  0  0  0  0  0
    4.3767    0.0456   -3.7137 H   0  0  0  0  0  0  0  0  0  0  0  0
    3.7486   -2.2109   -1.7425 H   0  0  0  0  0  0  0  0  0  0  0  0
    1.8960   -0.9513   -0.9008 H   0  0  0  0  0  0  0  0  0  0  0  0
    1.7081   -1.0647   -2.6503 H   0  0  0  0  0  0  0  0  0  0  0  0
    3.1672    3.0759   -2.9210 H   0  0  0  0  0  0  0  0  0  0  0  0
    1.8052    5.1735   -5.6691 H   0  0  0  0  0  0  0  0  0  0  0  0
    3.0219    7.0636   -5.1423 H   0  0  0  0  0  0  0  0  0  0  0  0
    6.2011    5.2059   -5.2173 H   0  0  0  0  0  0  0  0  0  0  0  0
    8.3288    6.0744   -4.4147 H   0  0  0  0  0  0  0  0  0  0  0  0
    9.1542    7.9802   -6.1342 H   0  0  0  0  0  0  0  0  0  0  0  0
   11.3779    7.3288   -7.0043 H   0  0  0  0  0  0  0  0  0  0  0  0
   13.4266    8.4011   -2.2379 H   0  0  0  0  0  0  0  0  0  0  0  0
   16.8401    7.9699   -3.3405 H   0  0  0  0  0  0  0  0  0  0  0  0
   16.8943    6.5479   -1.3166 H   0  0  0  0  0  0  0  0  0  0  0  0
   15.0797    6.5218   -1.2167 H   0  0  0  0  0  0  0  0  0  0  0  0
   16.8659    9.0659   -1.1514 H   0  0  0  0  0  0  0  0  0  0  0  0
   15.0605    9.0528   -1.0344 H   0  0  0  0  0  0  0  0  0  0  0  0
   11.0365    8.6683   -2.3132 H   0  0  0  0  0  0  0  0  0  0  0  0
    4.2749    8.9455   -4.2338 H   0  0  0  0  0  0  0  0  0  0  0  0
   -0.0056    3.6280   -5.7686 H   0  0  0  0  0  0  0  0  0  0  0  0
    0.0137    0.2392   -3.1259 H   0  0  0  0  0  0  0  0  0  0  0  0
    2.8459    1.2061    0.1182 H   0  0  0  0  0  0  0  0  0  0  0  0
    3.2377    2.5548   -0.9208 H   0  0  0  0  0  0  0  0  0  0  0  0
    5.2586    1.2450   -0.2213 H   0  0  0  0  0  0  0  0  0  0  0  0
    5.0989    1.2270   -1.9737 H   0  0  0  0  0  0  0  0  0  0  0  0
  1  2  1  0  0  0  0
  1 42  1  0  0  0  0
  1 43  1  0  0  0  0
  1 44  1  0  0  0  0
  2  3  1  0  0  0  0
  2 41  1  0  0  0  0
  2 45  1  0  0  0  0
  3  4  1  0  0  0  0
  3 46  1  0  0  0  0
  3 47  1  0  0  0  0
  4  5  1  0  0  0  0
  4 39  1  0  0  0  0
  5  6  1  0  0  0  0
  5 38  2  0  0  0  0
  6  7  2  0  0  0  0
  6 48  1  0  0  0  0
  7  8  1  0  0  0  0
  7 32  1  0  0  0  0
  8  9  1  0  0  0  0
  8 49  1  0  0  0  0
  9 10  2  0  0  0  0
  9 11  1  0  0  0  0
 11 12  1  0  0  0  0
 11 50  1  0  0  0  0
 12 13  1  0  0  0  0
 12 31  2  0  0  0  0
 13 14  2  0  0  0  0
 13 51  1  0  0  0  0
 14 15  1  0  0  0  0
 14 52  1  0  0  0  0
 15 16  1  0  0  0  0
 15 29  2  0  0  0  0
 16 17  1  0  0  0  0
 17 18  1  0  0  0  0
 17 28  2  0  0  0  0
 18 19  2  0  0  0  0
 18 53  1  0  0  0  0
 19 20  1  0  0  0  0
 19 54  1  0  0  0  0
 20 21  2  0  0  0  0
 21 22  1  0  0  0  0
 21 28  1  0  0  0  0
 22 23  1  0  0  0  0
 22 55  1  0  0  0  0
 23 24  2  0  0  0  0
 23 25  1  0  0  0  0
 25 26  1  0  0  0  0
 25 27  1  0  0  0  0
 25 56  1  0  0  0  0
 26 27  1  0  0  0  0
 26 57  1  0  0  0  0
 26 58  1  0  0  0  0
 27 59  1  0  0  0  0
 27 60  1  0  0  0  0
 28 61  1  0  0  0  0
 29 30  1  0  0  0  0
 29 31  1  0  0  0  0
 31 62  1  0  0  0  0
 32 33  2  0  0  0  0
 32 63  1  0  0  0  0
 33 34  1  0  0  0  0
 33 38  1  0  0  0  0
 34 35  1  0  0  0  0
 34 36  1  0  0  0  0
 34 37  1  0  0  0  0
 38 64  1  0  0  0  0
 39 40  1  0  0  0  0
 39 65  1  0  0  0  0
 39 66  1  0  0  0  0
 40 41  1  0  0  0  0
 40 67  1  0  0  0  0
 40 68  1  0  0  0  0
M  END
$$$$
