CHEMBL2325101
 OpenBabel04072215363D

 47 51  0  0  1  0  0  0  0  0999 V2000
    1.2195    1.6596   -0.1585 Cl  0  0  0  0  0  0  0  0  0  0  0  0
   -0.2452    0.7493   -0.0501 C   0  0  0  0  0  0  0  0  0  0  0  0
   -1.1248    0.8045   -1.1339 C   0  0  0  0  0  0  0  0  0  0  0  0
   -2.3230    0.0886   -1.1082 C   0  0  0  0  0  0  0  0  0  0  0  0
   -2.6536   -0.6822    0.0163 C   0  0  0  0  0  0  0  0  0  0  0  0
   -3.9241   -1.4571    0.0805 C   0  0  0  0  0  0  0  0  0  0  0  0
   -4.2532   -2.1484    1.1207 N   0  0  0  0  0  0  0  0  0  0  0  0
   -5.4464   -2.7459    0.8348 N   0  0  0  0  0  0  0  0  0  0  0  0
   -6.0118   -3.6914    1.6942 C   0  0  0  0  0  0  0  0  0  0  0  0
   -5.7180   -3.6625    3.0668 C   0  0  0  0  0  0  0  0  0  0  0  0
   -6.3307   -4.5379    3.9649 C   0  0  0  0  0  0  0  0  0  0  0  0
   -7.2372   -5.4869    3.5047 C   0  0  0  0  0  0  0  0  0  0  0  0
   -7.5206   -5.5635    2.1456 C   0  0  0  0  0  0  0  0  0  0  0  0
   -6.9165   -4.6754    1.2535 C   0  0  0  0  0  0  0  0  0  0  0  0
   -5.9704   -2.4056   -0.4866 C   0  0  3  0  0  0  0  0  0  0  0  0
   -7.3088   -1.6909   -0.4619 C   0  0  0  0  0  0  0  0  0  0  0  0
   -8.0576   -1.6728   -1.6448 C   0  0  0  0  0  0  0  0  0  0  0  0
   -9.1999   -0.8852   -1.7422 C   0  0  0  0  0  0  0  0  0  0  0  0
   -9.6928   -0.2033   -0.6272 C   0  0  0  0  0  0  0  0  0  0  0  0
  -10.8525    0.5684   -0.7360 C   0  0  0  0  0  0  0  0  0  0  0  0
  -11.5472    0.9440    0.4077 C   0  0  0  0  0  0  0  0  0  0  0  0
  -11.0027    0.6821    1.6621 C   0  0  0  0  0  0  0  0  0  0  0  0
   -9.7241    0.1218    1.7690 C   0  0  0  0  0  0  0  0  0  0  0  0
   -9.0591   -0.3544    0.6226 C   0  0  0  0  0  0  0  0  0  0  0  0
   -7.8162   -1.0187    0.6691 C   0  0  0  0  0  0  0  0  0  0  0  0
   -4.8956   -1.4816   -1.0600 C   0  0  0  0  0  0  0  0  0  0  0  0
   -1.7664   -0.7337    1.1066 C   0  0  0  0  0  0  0  0  0  0  0  0
   -0.5662   -0.0177    1.0718 C   0  0  0  0  0  0  0  0  0  0  0  0
    0.4733   -0.1354    2.4476 Cl  0  0  0  0  0  0  0  0  0  0  0  0
   -0.8825    1.4086   -2.0052 H   0  0  0  0  0  0  0  0  0  0  0  0
   -2.9861    0.1494   -1.9675 H   0  0  0  0  0  0  0  0  0  0  0  0
   -5.0201   -2.9199    3.4441 H   0  0  0  0  0  0  0  0  0  0  0  0
   -6.1048   -4.4659    5.0266 H   0  0  0  0  0  0  0  0  0  0  0  0
   -7.7158   -6.1686    4.2012 H   0  0  0  0  0  0  0  0  0  0  0  0
   -8.2212   -6.3048    1.7750 H   0  0  0  0  0  0  0  0  0  0  0  0
   -7.1732   -4.7583    0.2012 H   0  0  0  0  0  0  0  0  0  0  0  0
   -6.0402   -3.3073   -1.1106 H   0  0  0  0  0  0  0  0  0  0  0  0
   -7.7514   -2.2669   -2.5038 H   0  0  0  0  0  0  0  0  0  0  0  0
   -9.7555   -0.8779   -2.6763 H   0  0  0  0  0  0  0  0  0  0  0  0
  -11.2402    0.8447   -1.7124 H   0  0  0  0  0  0  0  0  0  0  0  0
  -12.5257    1.4076    0.3150 H   0  0  0  0  0  0  0  0  0  0  0  0
  -11.5729    0.9188    2.5569 H   0  0  0  0  0  0  0  0  0  0  0  0
   -9.2860   -0.0078    2.7576 H   0  0  0  0  0  0  0  0  0  0  0  0
   -7.2610   -1.0414    1.6079 H   0  0  0  0  0  0  0  0  0  0  0  0
   -5.2427   -0.4711   -1.2844 H   0  0  0  0  0  0  0  0  0  0  0  0
   -4.4243   -1.9197   -1.9452 H   0  0  0  0  0  0  0  0  0  0  0  0
   -2.0198   -1.3375    1.9752 H   0  0  0  0  0  0  0  0  0  0  0  0
  1  2  1  0  0  0  0
  2  3  1  0  0  0  0
  2 28  2  0  0  0  0
  3  4  2  0  0  0  0
  3 30  1  0  0  0  0
  4  5  1  0  0  0  0
  4 31  1  0  0  0  0
  5  6  1  0  0  0  0
  5 27  2  0  0  0  0
  6  7  2  0  0  0  0
  6 26  1  0  0  0  0
  7  8  1  0  0  0  0
  8  9  1  0  0  0  0
  8 15  1  0  0  0  0
  9 10  1  0  0  0  0
  9 14  2  0  0  0  0
 10 11  2  0  0  0  0
 10 32  1  0  0  0  0
 11 12  1  0  0  0  0
 11 33  1  0  0  0  0
 12 13  2  0  0  0  0
 12 34  1  0  0  0  0
 13 14  1  0  0  0  0
 13 35  1  0  0  0  0
 14 36  1  0  0  0  0
 15 16  1  0  0  0  0
 15 26  1  0  0  0  0
 15 37  1  0  0  0  0
 16 17  1  0  0  0  0
 16 25  2  0  0  0  0
 17 18  2  0  0  0  0
 17 38  1  0  0  0  0
 18 19  1  0  0  0  0
 18 39  1  0  0  0  0
 19 20  1  0  0  0  0
 19 24  2  0  0  0  0
 20 21  2  0  0  0  0
 20 40  1  0  0  0  0
 21 22  1  0  0  0  0
 21 41  1  0  0  0  0
 22 23  2  0  0  0  0
 22 42  1  0  0  0  0
 23 24  1  0  0  0  0
 23 43  1  0  0  0  0
 24 25  1  0  0  0  0
 25 44  1  0  0  0  0
 26 45  1  0  0  0  0
 26 46  1  0  0  0  0
 27 28  1  0  0  0  0
 27 47  1  0  0  0  0
 28 29  1  0  0  0  0
M  END
$$$$
