CHEMBL3678947
 OpenBabel04072215373D

 63 67  0  0  0  0  0  0  0  0999 V2000
    3.5687   -0.7618    0.6245 C   0  0  0  0  0  0  0  0  0  0  0  0
    2.4262    0.0708    0.0325 C   0  0  0  0  0  0  0  0  0  0  0  0
    1.3947    0.2766    1.1601 C   0  0  0  0  0  0  0  0  0  0  0  0
    2.9074    1.2828   -0.6333 N   0  0  0  0  0  0  0  0  0  0  0  0
    3.6932    1.3736   -1.7908 C   0  0  0  0  0  0  0  0  0  0  0  0
    4.2278    0.3028   -2.4330 N   0  0  0  0  0  0  0  0  0  0  0  0
    4.5623    0.2960   -3.8112 C   0  0  0  0  0  0  0  0  0  0  0  0
    3.8791    1.0979   -4.7383 C   0  0  0  0  0  0  0  0  0  0  0  0
    4.2011    1.0793   -6.0964 C   0  0  0  0  0  0  0  0  0  0  0  0
    5.2378    0.2724   -6.5509 C   0  0  0  0  0  0  0  0  0  0  0  0
    5.9485   -0.5045   -5.6383 C   0  0  0  0  0  0  0  0  0  0  0  0
    7.3593   -1.6018   -6.2614 Br  0  0  0  0  0  0  0  0  0  0  0  0
    5.6228   -0.4932   -4.2767 C   0  0  0  0  0  0  0  0  0  0  0  0
    3.8362    2.6279   -2.1607 N   0  0  0  0  0  0  0  0  0  0  0  0
    3.1245    3.3809   -1.2786 C   0  0  0  0  0  0  0  0  0  0  0  0
    2.8766    4.7405   -1.1870 C   0  0  0  0  0  0  0  0  0  0  0  0
    2.0915    5.2152   -0.1869 N   0  0  0  0  0  0  0  0  0  0  0  0
    1.5496    4.3422    0.6850 C   0  0  0  0  0  0  0  0  0  0  0  0
    0.7428    4.8804    1.6863 N   0  0  0  0  0  0  0  0  0  0  0  0
   -0.3022    4.2554    2.3837 C   0  0  0  0  0  0  0  0  0  0  0  0
   -0.6081    4.6357    3.6872 C   0  0  0  0  0  0  0  0  0  0  0  0
   -1.5625    3.9236    4.4343 C   0  0  0  0  0  0  0  0  0  0  0  0
   -2.2551    2.8274    3.8967 C   0  0  0  0  0  0  0  0  0  0  0  0
   -3.2083    2.1744    4.6823 N   0  0  0  0  0  0  0  0  0  0  0  0
   -4.3242    1.5006    3.9943 C   0  0  0  0  0  0  0  0  0  0  0  0
   -5.4327    1.1655    5.0165 C   0  0  0  0  0  0  0  0  0  0  0  0
   -4.9363    0.3048    6.1154 N   0  0  0  0  0  0  0  0  0  0  0  0
   -6.0092    0.0160    7.0637 C   0  0  0  0  0  0  0  0  0  0  0  0
   -3.8031    0.9913    6.7817 C   0  0  0  0  0  0  0  0  0  0  0  0
   -2.6624    1.3590    5.7938 C   0  0  0  0  0  0  0  0  0  0  0  0
   -1.9748    2.4872    2.5749 C   0  0  0  0  0  0  0  0  0  0  0  0
   -1.0130    3.1836    1.8334 C   0  0  0  0  0  0  0  0  0  0  0  0
    1.7509    3.0105    0.6666 N   0  0  0  0  0  0  0  0  0  0  0  0
    2.5389    2.5796   -0.3243 C   0  0  0  0  0  0  0  0  0  0  0  0
    3.1739   -1.6285    1.1690 H   0  0  0  0  0  0  0  0  0  0  0  0
    4.1681   -0.1661    1.3172 H   0  0  0  0  0  0  0  0  0  0  0  0
    4.2352   -1.1584   -0.1414 H   0  0  0  0  0  0  0  0  0  0  0  0
    1.9248   -0.5088   -0.7538 H   0  0  0  0  0  0  0  0  0  0  0  0
    1.8205    0.8533    1.9916 H   0  0  0  0  0  0  0  0  0  0  0  0
    1.0669   -0.6820    1.5782 H   0  0  0  0  0  0  0  0  0  0  0  0
    0.4961    0.7848    0.7996 H   0  0  0  0  0  0  0  0  0  0  0  0
    4.2821   -0.6185   -2.0225 H   0  0  0  0  0  0  0  0  0  0  0  0
    3.0579    1.7317   -4.4106 H   0  0  0  0  0  0  0  0  0  0  0  0
    3.6344    1.6930   -6.7917 H   0  0  0  0  0  0  0  0  0  0  0  0
    5.4817    0.2594   -7.6097 H   0  0  0  0  0  0  0  0  0  0  0  0
    6.2081   -1.0888   -3.5816 H   0  0  0  0  0  0  0  0  0  0  0  0
    3.2728    5.4557   -1.8963 H   0  0  0  0  0  0  0  0  0  0  0  0
    0.7337    5.8893    1.6549 H   0  0  0  0  0  0  0  0  0  0  0  0
   -0.0844    5.4629    4.1588 H   0  0  0  0  0  0  0  0  0  0  0  0
   -1.7807    4.2432    5.4489 H   0  0  0  0  0  0  0  0  0  0  0  0
   -3.9837    0.5775    3.5062 H   0  0  0  0  0  0  0  0  0  0  0  0
   -4.7503    2.1601    3.2293 H   0  0  0  0  0  0  0  0  0  0  0  0
   -6.2482    0.6586    4.4878 H   0  0  0  0  0  0  0  0  0  0  0  0
   -5.8346    2.1036    5.4238 H   0  0  0  0  0  0  0  0  0  0  0  0
   -6.8265   -0.5131    6.5637 H   0  0  0  0  0  0  0  0  0  0  0  0
   -6.4174    0.9227    7.5241 H   0  0  0  0  0  0  0  0  0  0  0  0
   -5.6495   -0.6445    7.8603 H   0  0  0  0  0  0  0  0  0  0  0  0
   -3.3932    0.3438    7.5663 H   0  0  0  0  0  0  0  0  0  0  0  0
   -4.1543    1.9124    7.2670 H   0  0  0  0  0  0  0  0  0  0  0  0
   -2.2094    0.4376    5.4008 H   0  0  0  0  0  0  0  0  0  0  0  0
   -1.8855    1.8987    6.3482 H   0  0  0  0  0  0  0  0  0  0  0  0
   -2.4774    1.6496    2.0898 H   0  0  0  0  0  0  0  0  0  0  0  0
   -0.8282    2.8740    0.8108 H   0  0  0  0  0  0  0  0  0  0  0  0
  1  2  1  0  0  0  0
  1 35  1  0  0  0  0
  1 36  1  0  0  0  0
  1 37  1  0  0  0  0
  2  3  1  0  0  0  0
  2  4  1  0  0  0  0
  2 38  1  0  0  0  0
  3 39  1  0  0  0  0
  3 40  1  0  0  0  0
  3 41  1  0  0  0  0
  4  5  1  0  0  0  0
  4 34  1  0  0  0  0
  5  6  1  0  0  0  0
  5 14  2  0  0  0  0
  6  7  1  0  0  0  0
  6 42  1  0  0  0  0
  7  8  1  0  0  0  0
  7 13  2  0  0  0  0
  8  9  2  0  0  0  0
  8 43  1  0  0  0  0
  9 10  1  0  0  0  0
  9 44  1  0  0  0  0
 10 11  2  0  0  0  0
 10 45  1  0  0  0  0
 11 12  1  0  0  0  0
 11 13  1  0  0  0  0
 13 46  1  0  0  0  0
 14 15  1  0  0  0  0
 15 16  1  0  0  0  0
 15 34  2  0  0  0  0
 16 17  2  0  0  0  0
 16 47  1  0  0  0  0
 17 18  1  0  0  0  0
 18 19  1  0  0  0  0
 18 33  2  0  0  0  0
 19 20  1  0  0  0  0
 19 48  1  0  0  0  0
 20 21  1  0  0  0  0
 20 32  2  0  0  0  0
 21 22  2  0  0  0  0
 21 49  1  0  0  0  0
 22 23  1  0  0  0  0
 22 50  1  0  0  0  0
 23 24  1  0  0  0  0
 23 31  2  0  0  0  0
 24 25  1  0  0  0  0
 24 30  1  0  0  0  0
 25 26  1  0  0  0  0
 25 51  1  0  0  0  0
 25 52  1  0  0  0  0
 26 27  1  0  0  0  0
 26 53  1  0  0  0  0
 26 54  1  0  0  0  0
 27 28  1  0  0  0  0
 27 29  1  0  0  0  0
 28 55  1  0  0  0  0
 28 56  1  0  0  0  0
 28 57  1  0  0  0  0
 29 30  1  0  0  0  0
 29 58  1  0  0  0  0
 29 59  1  0  0  0  0
 30 60  1  0  0  0  0
 30 61  1  0  0  0  0
 31 32  1  0  0  0  0
 31 62  1  0  0  0  0
 32 63  1  0  0  0  0
 33 34  1  0  0  0  0
M  END
$$$$
