CHEMBL3740131
 OpenBabel04072215373D

 61 65  0  0  0  0  0  0  0  0999 V2000
    2.1681   -0.0876    0.6133 C   0  0  0  0  0  0  0  0  0  0  0  0
    3.0019   -0.3415   -0.6312 C   0  0  0  0  0  0  0  0  0  0  0  0
    3.7952   -1.5110   -0.3906 O   0  0  0  0  0  0  0  0  0  0  0  0
    5.0516   -1.2819    0.0946 C   0  0  0  0  0  0  0  0  0  0  0  0
    5.6555   -0.2212   -0.0218 O   0  0  0  0  0  0  0  0  0  0  0  0
    5.5613   -2.4234    0.8721 C   0  0  0  0  0  0  0  0  0  0  0  0
    5.3481   -3.7056    0.5245 N   0  0  0  0  0  0  0  0  0  0  0  0
    5.9296   -4.4439    1.5021 N   0  0  0  0  0  0  0  0  0  0  0  0
    5.9598   -5.8612    1.4437 C   0  0  0  0  0  0  0  0  0  0  0  0
    5.4008   -6.5187    0.3402 C   0  0  0  0  0  0  0  0  0  0  0  0
    5.4552   -7.9105    0.2620 C   0  0  0  0  0  0  0  0  0  0  0  0
    6.0609   -8.6484    1.2790 C   0  0  0  0  0  0  0  0  0  0  0  0
    6.6116   -8.0001    2.3816 C   0  0  0  0  0  0  0  0  0  0  0  0
    6.5631   -6.6091    2.4674 C   0  0  0  0  0  0  0  0  0  0  0  0
    6.4678   -3.6508    2.4827 C   0  0  0  0  0  0  0  0  0  0  0  0
    6.2976   -2.3422    2.0873 C   0  0  0  0  0  0  0  0  0  0  0  0
    6.6179   -1.1380    2.8184 C   0  0  0  0  0  0  0  0  0  0  0  0
    5.8215   -0.2138    2.7599 O   0  0  0  0  0  0  0  0  0  0  0  0
    7.8475   -1.1026    3.6468 C   0  0  0  0  0  0  0  0  0  0  0  0
    9.0489   -1.7870    3.4386 C   0  0  0  0  0  0  0  0  0  0  0  0
    9.5378   -2.7070    2.3686 C   0  0  0  0  0  0  0  0  0  0  0  0
    9.8958   -1.4756    4.4768 N   0  0  0  0  0  0  0  0  0  0  0  0
    9.3231   -0.5785    5.3468 C   0  0  0  0  0  0  0  0  0  0  0  0
   10.0257   -0.1164    6.5594 C   0  0  0  0  0  0  0  0  0  0  0  0
    9.8806    1.2071    6.9994 C   0  0  0  0  0  0  0  0  0  0  0  0
   10.2679    1.5825    8.2866 C   0  0  0  0  0  0  0  0  0  0  0  0
   10.8932    0.6608    9.1191 C   0  0  0  0  0  0  0  0  0  0  0  0
   11.1577   -0.6252    8.6518 C   0  0  0  0  0  0  0  0  0  0  0  0
   10.7223   -1.0158    7.3801 C   0  0  0  0  0  0  0  0  0  0  0  0
    8.0424   -0.3051    4.8521 C   0  0  0  0  0  0  0  0  0  0  0  0
    7.0818    0.5920    5.5215 C   0  0  0  0  0  0  0  0  0  0  0  0
    6.3565    1.5368    4.7865 C   0  0  0  0  0  0  0  0  0  0  0  0
    5.3858    2.3397    5.3883 C   0  0  0  0  0  0  0  0  0  0  0  0
    5.2233    2.3123    6.7673 C   0  0  0  0  0  0  0  0  0  0  0  0
    5.9964    1.4450    7.5325 C   0  0  0  0  0  0  0  0  0  0  0  0
    6.8743    0.5520    6.9085 C   0  0  0  0  0  0  0  0  0  0  0  0
    1.5056    0.7718    0.4830 H   0  0  0  0  0  0  0  0  0  0  0  0
    2.8123    0.0908    1.4813 H   0  0  0  0  0  0  0  0  0  0  0  0
    1.5621   -0.9694    0.8496 H   0  0  0  0  0  0  0  0  0  0  0  0
    3.6035    0.5381   -0.8868 H   0  0  0  0  0  0  0  0  0  0  0  0
    2.3480   -0.5498   -1.4837 H   0  0  0  0  0  0  0  0  0  0  0  0
    4.9238   -5.9628   -0.4661 H   0  0  0  0  0  0  0  0  0  0  0  0
    5.0232   -8.4201   -0.5952 H   0  0  0  0  0  0  0  0  0  0  0  0
    6.1017   -9.7324    1.2127 H   0  0  0  0  0  0  0  0  0  0  0  0
    7.0794   -8.5760    3.1766 H   0  0  0  0  0  0  0  0  0  0  0  0
    7.0038   -6.1477    3.3451 H   0  0  0  0  0  0  0  0  0  0  0  0
    6.9163   -4.0534    3.3792 H   0  0  0  0  0  0  0  0  0  0  0  0
    8.8816   -2.7310    1.4967 H   0  0  0  0  0  0  0  0  0  0  0  0
    9.6310   -3.7272    2.7587 H   0  0  0  0  0  0  0  0  0  0  0  0
   10.5230   -2.3923    2.0088 H   0  0  0  0  0  0  0  0  0  0  0  0
   10.8327   -1.8431    4.5806 H   0  0  0  0  0  0  0  0  0  0  0  0
    9.3730    1.9397    6.3746 H   0  0  0  0  0  0  0  0  0  0  0  0
   10.0388    2.5826    8.6451 H   0  0  0  0  0  0  0  0  0  0  0  0
   11.1642    0.9428   10.1330 H   0  0  0  0  0  0  0  0  0  0  0  0
   11.6632   -1.3390    9.2973 H   0  0  0  0  0  0  0  0  0  0  0  0
   10.8806   -2.0462    7.0741 H   0  0  0  0  0  0  0  0  0  0  0  0
    6.5165    1.6539    3.7180 H   0  0  0  0  0  0  0  0  0  0  0  0
    4.7698    2.9872    4.7703 H   0  0  0  0  0  0  0  0  0  0  0  0
    4.5016    2.9701    7.2420 H   0  0  0  0  0  0  0  0  0  0  0  0
    5.9161    1.4558    8.6157 H   0  0  0  0  0  0  0  0  0  0  0  0
    7.4310   -0.1424    7.5330 H   0  0  0  0  0  0  0  0  0  0  0  0
  1  2  1  0  0  0  0
  1 37  1  0  0  0  0
  1 38  1  0  0  0  0
  1 39  1  0  0  0  0
  2  3  1  0  0  0  0
  2 40  1  0  0  0  0
  2 41  1  0  0  0  0
  3  4  1  0  0  0  0
  4  5  2  0  0  0  0
  4  6  1  0  0  0  0
  6  7  2  0  0  0  0
  6 16  1  0  0  0  0
  7  8  1  0  0  0  0
  8  9  1  0  0  0  0
  8 15  1  0  0  0  0
  9 10  1  0  0  0  0
  9 14  2  0  0  0  0
 10 11  2  0  0  0  0
 10 42  1  0  0  0  0
 11 12  1  0  0  0  0
 11 43  1  0  0  0  0
 12 13  2  0  0  0  0
 12 44  1  0  0  0  0
 13 14  1  0  0  0  0
 13 45  1  0  0  0  0
 14 46  1  0  0  0  0
 15 16  2  0  0  0  0
 15 47  1  0  0  0  0
 16 17  1  0  0  0  0
 17 18  2  0  0  0  0
 17 19  1  0  0  0  0
 19 20  2  0  0  0  0
 19 30  1  0  0  0  0
 20 21  1  0  0  0  0
 20 22  1  0  0  0  0
 21 48  1  0  0  0  0
 21 49  1  0  0  0  0
 21 50  1  0  0  0  0
 22 23  1  0  0  0  0
 22 51  1  0  0  0  0
 23 24  1  0  0  0  0
 23 30  2  0  0  0  0
 24 25  1  0  0  0  0
 24 29  2  0  0  0  0
 25 26  2  0  0  0  0
 25 52  1  0  0  0  0
 26 27  1  0  0  0  0
 26 53  1  0  0  0  0
 27 28  2  0  0  0  0
 27 54  1  0  0  0  0
 28 29  1  0  0  0  0
 28 55  1  0  0  0  0
 29 56  1  0  0  0  0
 30 31  1  0  0  0  0
 31 32  1  0  0  0  0
 31 36  2  0  0  0  0
 32 33  2  0  0  0  0
 32 57  1  0  0  0  0
 33 34  1  0  0  0  0
 33 58  1  0  0  0  0
 34 35  2  0  0  0  0
 34 59  1  0  0  0  0
 35 36  1  0  0  0  0
 35 60  1  0  0  0  0
 36 61  1  0  0  0  0
M  END
$$$$
