CHEMBL424839
 OpenBabel04072215383D

 63 66  0  0  0  0  0  0  0  0999 V2000
    1.6852   -2.3588    0.6332 C   0  0  0  0  0  0  0  0  0  0  0  0
    2.2847   -3.1387    1.6614 O   0  0  0  0  0  0  0  0  0  0  0  0
    3.6061   -3.4486    1.4107 C   0  0  0  0  0  0  0  0  0  0  0  0
    4.2547   -4.1640    2.4044 C   0  0  0  0  0  0  0  0  0  0  0  0
    5.5986   -4.4663    2.2199 C   0  0  0  0  0  0  0  0  0  0  0  0
    6.2413   -4.0617    1.0515 C   0  0  0  0  0  0  0  0  0  0  0  0
    7.9476   -4.3216    0.9501 Cl  0  0  0  0  0  0  0  0  0  0  0  0
    5.5003   -3.3788    0.0739 C   0  0  0  0  0  0  0  0  0  0  0  0
    6.0521   -2.9278   -1.1297 N   0  0  0  0  0  0  0  0  0  0  0  0
    6.7153   -3.7178   -2.1017 C   0  0  0  0  0  0  0  0  0  0  0  0
    6.7401   -5.0541   -1.9254 N   0  0  0  0  0  0  0  0  0  0  0  0
    7.3625   -5.7730   -2.8599 C   0  0  0  0  0  0  0  0  0  0  0  0
    7.9247   -5.2950   -3.9711 N   0  0  0  0  0  0  0  0  0  0  0  0
    7.8945   -3.9707   -4.1392 C   0  0  0  0  0  0  0  0  0  0  0  0
    8.4656   -3.4672   -5.2952 C   0  0  0  0  0  0  0  0  0  0  0  0
    8.5432   -2.0995   -5.5472 C   0  0  0  0  0  0  0  0  0  0  0  0
    9.1206   -1.7623   -6.7361 O   0  0  0  0  0  0  0  0  0  0  0  0
    9.6874   -0.4543   -6.8203 C   0  0  0  0  0  0  0  0  0  0  0  0
   10.6966   -0.4824   -7.9608 C   0  0  0  0  0  0  0  0  0  0  0  0
   11.4644    0.8363   -8.0447 C   0  0  0  0  0  0  0  0  0  0  0  0
   12.4719    0.8708   -9.1195 N   0  0  0  0  0  0  0  0  0  0  0  0
   13.5309   -0.1434   -8.9756 C   0  0  0  0  0  0  0  0  0  0  0  0
   14.4944    0.4546   -7.9722 C   0  0  0  0  0  0  0  0  0  0  0  0
   14.5344    1.9116   -8.3920 C   0  0  0  0  0  0  0  0  0  0  0  0
   13.1979    2.1596   -9.0929 C   0  0  0  0  0  0  0  0  0  0  0  0
    8.0153   -1.2021   -4.6314 C   0  0  0  0  0  0  0  0  0  0  0  0
    7.3669   -1.6801   -3.4908 C   0  0  0  0  0  0  0  0  0  0  0  0
    6.7643   -0.8473   -2.5805 O   0  0  0  0  0  0  0  0  0  0  0  0
    6.3010    0.4429   -2.9961 C   0  0  0  0  0  0  0  0  0  0  0  0
    5.1708    0.3187   -4.0171 C   0  0  0  0  0  0  0  0  0  0  0  0
    5.7747    1.1372   -1.7407 C   0  0  0  0  0  0  0  0  0  0  0  0
    7.3147   -3.0854   -3.2197 C   0  0  0  0  0  0  0  0  0  0  0  0
    4.1962   -3.0439    0.2666 N   0  0  0  0  0  0  0  0  0  0  0  0
    0.6538   -2.1482    0.9335 H   0  0  0  0  0  0  0  0  0  0  0  0
    1.6510   -2.9100   -0.3125 H   0  0  0  0  0  0  0  0  0  0  0  0
    2.1975   -1.3980    0.5123 H   0  0  0  0  0  0  0  0  0  0  0  0
    3.7293   -4.4573    3.3072 H   0  0  0  0  0  0  0  0  0  0  0  0
    6.1464   -4.9937    2.9973 H   0  0  0  0  0  0  0  0  0  0  0  0
    5.3489   -2.3667   -1.6008 H   0  0  0  0  0  0  0  0  0  0  0  0
    7.4165   -6.8445   -2.7033 H   0  0  0  0  0  0  0  0  0  0  0  0
    8.8814   -4.1617   -6.0221 H   0  0  0  0  0  0  0  0  0  0  0  0
   10.2073   -0.1959   -5.8889 H   0  0  0  0  0  0  0  0  0  0  0  0
    8.8999    0.2810   -7.0225 H   0  0  0  0  0  0  0  0  0  0  0  0
   10.1844   -0.6974   -8.9068 H   0  0  0  0  0  0  0  0  0  0  0  0
   11.3672   -1.3285   -7.7792 H   0  0  0  0  0  0  0  0  0  0  0  0
   11.9137    1.0606   -7.0693 H   0  0  0  0  0  0  0  0  0  0  0  0
   10.7320    1.6313   -8.2402 H   0  0  0  0  0  0  0  0  0  0  0  0
   14.0313   -0.2615   -9.9456 H   0  0  0  0  0  0  0  0  0  0  0  0
   13.1881   -1.1395   -8.6897 H   0  0  0  0  0  0  0  0  0  0  0  0
   15.4801   -0.0173   -7.9997 H   0  0  0  0  0  0  0  0  0  0  0  0
   14.1044    0.3613   -6.9513 H   0  0  0  0  0  0  0  0  0  0  0  0
   15.3585    2.0715   -9.0971 H   0  0  0  0  0  0  0  0  0  0  0  0
   14.6857    2.5724   -7.5334 H   0  0  0  0  0  0  0  0  0  0  0  0
   13.3786    2.4875  -10.1233 H   0  0  0  0  0  0  0  0  0  0  0  0
   12.6333    2.9627   -8.6043 H   0  0  0  0  0  0  0  0  0  0  0  0
    8.0852   -0.1396   -4.8213 H   0  0  0  0  0  0  0  0  0  0  0  0
    7.1289    1.0478   -3.3818 H   0  0  0  0  0  0  0  0  0  0  0  0
    4.3526   -0.2897   -3.6163 H   0  0  0  0  0  0  0  0  0  0  0  0
    5.5038   -0.1776   -4.9335 H   0  0  0  0  0  0  0  0  0  0  0  0
    4.7801    1.3020   -4.2935 H   0  0  0  0  0  0  0  0  0  0  0  0
    4.9528    0.5665   -1.2933 H   0  0  0  0  0  0  0  0  0  0  0  0
    5.4178    2.1468   -1.9664 H   0  0  0  0  0  0  0  0  0  0  0  0
    6.5597    1.2054   -0.9798 H   0  0  0  0  0  0  0  0  0  0  0  0
  1  2  1  0  0  0  0
  1 34  1  0  0  0  0
  1 35  1  0  0  0  0
  1 36  1  0  0  0  0
  2  3  1  0  0  0  0
  3  4  1  0  0  0  0
  3 33  2  0  0  0  0
  4  5  2  0  0  0  0
  4 37  1  0  0  0  0
  5  6  1  0  0  0  0
  5 38  1  0  0  0  0
  6  7  1  0  0  0  0
  6  8  2  0  0  0  0
  8  9  1  0  0  0  0
  8 33  1  0  0  0  0
  9 10  1  0  0  0  0
  9 39  1  0  0  0  0
 10 11  1  0  0  0  0
 10 32  2  0  0  0  0
 11 12  2  0  0  0  0
 12 13  1  0  0  0  0
 12 40  1  0  0  0  0
 13 14  2  0  0  0  0
 14 15  1  0  0  0  0
 14 32  1  0  0  0  0
 15 16  2  0  0  0  0
 15 41  1  0  0  0  0
 16 17  1  0  0  0  0
 16 26  1  0  0  0  0
 17 18  1  0  0  0  0
 18 19  1  0  0  0  0
 18 42  1  0  0  0  0
 18 43  1  0  0  0  0
 19 20  1  0  0  0  0
 19 44  1  0  0  0  0
 19 45  1  0  0  0  0
 20 21  1  0  0  0  0
 20 46  1  0  0  0  0
 20 47  1  0  0  0  0
 21 22  1  0  0  0  0
 21 25  1  0  0  0  0
 22 23  1  0  0  0  0
 22 48  1  0  0  0  0
 22 49  1  0  0  0  0
 23 24  1  0  0  0  0
 23 50  1  0  0  0  0
 23 51  1  0  0  0  0
 24 25  1  0  0  0  0
 24 52  1  0  0  0  0
 24 53  1  0  0  0  0
 25 54  1  0  0  0  0
 25 55  1  0  0  0  0
 26 27  2  0  0  0  0
 26 56  1  0  0  0  0
 27 28  1  0  0  0  0
 27 32  1  0  0  0  0
 28 29  1  0  0  0  0
 29 30  1  0  0  0  0
 29 31  1  0  0  0  0
 29 57  1  0  0  0  0
 30 58  1  0  0  0  0
 30 59  1  0  0  0  0
 30 60  1  0  0  0  0
 31 61  1  0  0  0  0
 31 62  1  0  0  0  0
 31 63  1  0  0  0  0
M  END
$$$$
