CHEMBL3694716
 OpenBabel04072215373D

 49 52  0  0  0  0  0  0  0  0999 V2000
    1.0751    0.0215   -0.0729 C   0  0  0  0  0  0  0  0  0  0  0  0
    2.5151   -0.0267   -0.0715 N   0  0  0  0  0  0  0  0  0  0  0  0
    3.3520    1.0510   -0.0641 C   0  0  0  0  0  0  0  0  0  0  0  0
    4.6129    0.6833   -0.0540 N   0  0  0  0  0  0  0  0  0  0  0  0
    4.5863   -0.6907   -0.0565 C   0  0  0  0  0  0  0  0  0  0  0  0
    3.2902   -1.1554   -0.0707 C   0  0  0  0  0  0  0  0  0  0  0  0
    2.8325   -2.4968   -0.0804 C   0  0  0  0  0  0  0  0  0  0  0  0
    2.4186   -3.7332   -0.0901 C   0  0  0  0  0  0  0  0  0  0  0  0
    1.9361   -5.1745   -0.1012 C   0  0  0  0  0  0  0  0  0  0  0  0
    2.9218   -6.2298   -0.1234 C   0  0  0  0  0  0  0  0  0  0  0  0
    2.4939   -7.4998   -0.1586 C   0  0  0  0  0  0  0  0  0  0  0  0
    1.1200   -7.7883   -0.1270 N   0  0  0  0  0  0  0  0  0  0  0  0
    0.4241   -9.0011   -0.1047 C   0  0  0  0  0  0  0  0  0  0  0  0
    1.0236  -10.3420   -0.0865 C   0  0  0  0  0  0  0  0  0  0  0  0
    2.2427  -10.5458    0.5670 C   0  0  0  0  0  0  0  0  0  0  0  0
    2.9991  -11.7112    0.4369 C   0  0  0  0  0  0  0  0  0  0  0  0
    4.3373  -11.7895    0.9188 N   0  0  0  0  0  0  0  0  0  0  0  0
    5.0434  -10.7324    1.4531 C   0  0  0  0  0  0  0  0  0  0  0  0
    4.6549   -9.5747    1.5762 O   0  0  0  0  0  0  0  0  0  0  0  0
    6.2885  -11.0604    1.9306 N   0  0  0  0  0  0  0  0  0  0  0  0
    7.1012   -9.9843    2.5216 C   0  0  0  0  0  0  0  0  0  0  0  0
    7.8594   -9.0680    1.5464 C   0  0  0  0  0  0  0  0  0  0  0  0
    7.7318   -9.4625    0.2588 F   0  0  0  0  0  0  0  0  0  0  0  0
    7.4552   -7.7810    1.6302 F   0  0  0  0  0  0  0  0  0  0  0  0
    9.1860   -9.0888    1.8341 F   0  0  0  0  0  0  0  0  0  0  0  0
    2.4024  -12.8001   -0.2025 C   0  0  0  0  0  0  0  0  0  0  0  0
    1.1064  -12.6780   -0.7283 C   0  0  0  0  0  0  0  0  0  0  0  0
    0.4432  -11.4482   -0.7011 C   0  0  0  0  0  0  0  0  0  0  0  0
   -0.7677  -11.3608   -1.2755 F   0  0  0  0  0  0  0  0  0  0  0  0
   -0.9069   -8.6221   -0.1334 C   0  0  0  0  0  0  0  0  0  0  0  0
   -1.0673   -7.2638   -0.1276 N   0  0  0  0  0  0  0  0  0  0  0  0
    0.1458   -6.7809   -0.1153 C   0  0  0  0  0  0  0  0  0  0  0  0
    0.6131   -5.4323   -0.1050 C   0  0  0  0  0  0  0  0  0  0  0  0
    0.7434    1.0632   -0.0715 H   0  0  0  0  0  0  0  0  0  0  0  0
    0.7094   -0.4827    0.8244 H   0  0  0  0  0  0  0  0  0  0  0  0
    0.7098   -0.4807   -0.9727 H   0  0  0  0  0  0  0  0  0  0  0  0
    2.9985    2.0755   -0.0649 H   0  0  0  0  0  0  0  0  0  0  0  0
    5.5004   -1.2698   -0.0494 H   0  0  0  0  0  0  0  0  0  0  0  0
    3.9784   -5.9839   -0.1158 H   0  0  0  0  0  0  0  0  0  0  0  0
    3.2093   -8.3078   -0.1997 H   0  0  0  0  0  0  0  0  0  0  0  0
    2.6007   -9.7406    1.1937 H   0  0  0  0  0  0  0  0  0  0  0  0
    4.8331  -12.6514    0.7513 H   0  0  0  0  0  0  0  0  0  0  0  0
    6.7415  -11.9088    1.6231 H   0  0  0  0  0  0  0  0  0  0  0  0
    7.8018  -10.4618    3.2104 H   0  0  0  0  0  0  0  0  0  0  0  0
    6.4417   -9.3542    3.1339 H   0  0  0  0  0  0  0  0  0  0  0  0
    2.9157  -13.7533   -0.2906 H   0  0  0  0  0  0  0  0  0  0  0  0
    0.6074  -13.5297   -1.1812 H   0  0  0  0  0  0  0  0  0  0  0  0
   -1.7672   -9.2780   -0.1467 H   0  0  0  0  0  0  0  0  0  0  0  0
   -0.1294   -4.6434   -0.1036 H   0  0  0  0  0  0  0  0  0  0  0  0
  1  2  1  0  0  0  0
  1 34  1  0  0  0  0
  1 35  1  0  0  0  0
  1 36  1  0  0  0  0
  2  3  1  0  0  0  0
  2  6  1  0  0  0  0
  3  4  2  0  0  0  0
  3 37  1  0  0  0  0
  4  5  1  0  0  0  0
  5  6  2  0  0  0  0
  5 38  1  0  0  0  0
  6  7  1  0  0  0  0
  7  8  3  0  0  0  0
  8  9  1  0  0  0  0
  9 10  1  0  0  0  0
  9 33  2  0  0  0  0
 10 11  2  0  0  0  0
 10 39  1  0  0  0  0
 11 12  1  0  0  0  0
 11 40  1  0  0  0  0
 12 13  1  0  0  0  0
 12 32  1  0  0  0  0
 13 14  1  0  0  0  0
 13 30  2  0  0  0  0
 14 15  1  0  0  0  0
 14 28  2  0  0  0  0
 15 16  2  0  0  0  0
 15 41  1  0  0  0  0
 16 17  1  0  0  0  0
 16 26  1  0  0  0  0
 17 18  1  0  0  0  0
 17 42  1  0  0  0  0
 18 19  2  0  0  0  0
 18 20  1  0  0  0  0
 20 21  1  0  0  0  0
 20 43  1  0  0  0  0
 21 22  1  0  0  0  0
 21 44  1  0  0  0  0
 21 45  1  0  0  0  0
 22 23  1  0  0  0  0
 22 24  1  0  0  0  0
 22 25  1  0  0  0  0
 26 27  2  0  0  0  0
 26 46  1  0  0  0  0
 27 28  1  0  0  0  0
 27 47  1  0  0  0  0
 28 29  1  0  0  0  0
 30 31  1  0  0  0  0
 30 48  1  0  0  0  0
 31 32  2  0  0  0  0
 32 33  1  0  0  0  0
 33 49  1  0  0  0  0
M  END
$$$$
