CHEMBL3889711
 OpenBabel04072215373D

 67 71  0  0  0  0  0  0  0  0999 V2000
    0.2910   -2.5086   -4.4978 C   0  0  0  0  0  0  0  0  0  0  0  0
    1.6186   -2.1511   -4.9122 O   0  0  0  0  0  0  0  0  0  0  0  0
    2.4088   -1.4706   -4.0081 C   0  0  0  0  0  0  0  0  0  0  0  0
    1.9285   -1.0084   -2.7810 C   0  0  0  0  0  0  0  0  0  0  0  0
    2.8051   -0.4004   -1.8947 C   0  0  0  0  0  0  0  0  0  0  0  0
    2.4953   -0.0202   -0.6130 O   0  0  0  0  0  0  0  0  0  0  0  0
    1.1225    0.0296   -0.2377 C   0  0  0  0  0  0  0  0  0  0  0  0
    4.1598   -0.2411   -2.2514 C   0  0  0  0  0  0  0  0  0  0  0  0
    4.7224   -0.7384   -3.4549 C   0  0  0  0  0  0  0  0  0  0  0  0
    6.1468   -1.0295   -3.5401 N   0  0  0  0  0  0  0  0  0  0  0  0
    6.6019   -1.6846   -2.1868 C   0  0  0  0  0  0  0  0  0  0  0  0
    7.3629   -0.7748   -1.2102 C   0  0  0  0  0  0  0  0  0  0  0  0
    7.1689    0.5365   -1.1129 N   0  0  0  0  0  0  0  0  0  0  0  0
    8.1335    1.0223   -0.2765 C   0  0  0  0  0  0  0  0  0  0  0  0
    8.9331    0.0062    0.1817 C   0  0  0  0  0  0  0  0  0  0  0  0
    8.3879   -1.1294   -0.3475 N   0  0  0  0  0  0  0  0  0  0  0  0
    8.9182   -2.6988    0.0008 S   0  0  0  0  0  0  0  0  0  0  0  0
    7.7380   -3.3508    0.5312 O   0  0  0  0  0  0  0  0  0  0  0  0
    9.5089   -3.1477   -1.2427 O   0  0  0  0  0  0  0  0  0  0  0  0
   10.1561   -2.8001    1.2222 N   0  0  0  0  0  0  0  0  0  0  0  0
    9.8654   -2.2361    2.5663 C   0  0  0  0  0  0  0  0  0  0  0  0
   10.6533   -4.2016    1.3981 C   0  0  0  0  0  0  0  0  0  0  0  0
    7.3111   -0.4601   -4.2049 C   0  0  0  0  0  0  0  0  0  0  0  0
    8.4770   -1.2091   -4.0744 C   0  0  0  0  0  0  0  0  0  0  0  0
    9.6514   -0.5478   -3.8072 C   0  0  0  0  0  0  0  0  0  0  0  0
    9.7702    0.7814   -4.0401 C   0  0  0  0  0  0  0  0  0  0  0  0
   10.8131    1.3830   -3.4528 N   0  0  0  0  0  0  0  0  0  0  0  0
   11.2347    2.5019   -4.0201 C   0  0  0  0  0  0  0  0  0  0  0  0
   10.7881    2.8807   -5.2613 C   0  0  0  0  0  0  0  0  0  0  0  0
   11.9014    3.2811   -6.1657 C   0  0  0  0  0  0  0  0  0  0  0  0
   12.0614    4.1014   -7.3043 C   0  0  0  0  0  0  0  0  0  0  0  0
   13.3196    4.1156   -7.7852 N   0  0  0  0  0  0  0  0  0  0  0  0
   13.9804    3.2606   -6.9873 N   0  0  0  0  0  0  0  0  0  0  0  0
   15.3237    2.8112   -7.2888 C   0  0  0  0  0  0  0  0  0  0  0  0
   13.2033    2.8128   -5.9612 C   0  0  0  0  0  0  0  0  0  0  0  0
    9.5358    2.4478   -5.6849 N   0  0  0  0  0  0  0  0  0  0  0  0
    8.8976    1.4026   -4.9389 C   0  0  0  0  0  0  0  0  0  0  0  0
    7.5397    0.7861   -4.8614 C   0  0  0  0  0  0  0  0  0  0  0  0
    3.7919   -1.3226   -4.3469 C   0  0  0  0  0  0  0  0  0  0  0  0
   -0.1429   -3.1739   -5.2565 H   0  0  0  0  0  0  0  0  0  0  0  0
   -0.3595   -1.6272   -4.4320 H   0  0  0  0  0  0  0  0  0  0  0  0
    0.2868   -3.0634   -3.5536 H   0  0  0  0  0  0  0  0  0  0  0  0
    0.8938   -1.1573   -2.5027 H   0  0  0  0  0  0  0  0  0  0  0  0
    1.0767    0.2535    0.8337 H   0  0  0  0  0  0  0  0  0  0  0  0
    0.6059   -0.9259   -0.3806 H   0  0  0  0  0  0  0  0  0  0  0  0
    0.6126    0.8368   -0.7721 H   0  0  0  0  0  0  0  0  0  0  0  0
    4.8041    0.2069   -1.4994 H   0  0  0  0  0  0  0  0  0  0  0  0
    7.1856   -2.5820   -2.4190 H   0  0  0  0  0  0  0  0  0  0  0  0
    5.7398   -2.1112   -1.6578 H   0  0  0  0  0  0  0  0  0  0  0  0
    8.2071    2.0814   -0.0669 H   0  0  0  0  0  0  0  0  0  0  0  0
    9.8056    0.0159    0.8138 H   0  0  0  0  0  0  0  0  0  0  0  0
    9.8084   -1.1491    2.5498 H   0  0  0  0  0  0  0  0  0  0  0  0
   10.6934   -2.4752    3.2489 H   0  0  0  0  0  0  0  0  0  0  0  0
    8.9526   -2.6566    2.9936 H   0  0  0  0  0  0  0  0  0  0  0  0
   10.7928   -4.7103    0.4423 H   0  0  0  0  0  0  0  0  0  0  0  0
    9.9590   -4.7808    2.0182 H   0  0  0  0  0  0  0  0  0  0  0  0
   11.6271   -4.1856    1.9024 H   0  0  0  0  0  0  0  0  0  0  0  0
    8.4665   -2.2877   -3.9102 H   0  0  0  0  0  0  0  0  0  0  0  0
   10.4935   -1.0916   -3.3889 H   0  0  0  0  0  0  0  0  0  0  0  0
   12.1106    2.9590   -3.5502 H   0  0  0  0  0  0  0  0  0  0  0  0
   11.3261    4.7105   -7.8119 H   0  0  0  0  0  0  0  0  0  0  0  0
   15.5612    3.0228   -8.3338 H   0  0  0  0  0  0  0  0  0  0  0  0
   15.3709    1.7285   -7.1235 H   0  0  0  0  0  0  0  0  0  0  0  0
   16.0349    3.3122   -6.6256 H   0  0  0  0  0  0  0  0  0  0  0  0
   13.6330    2.1621   -5.2091 H   0  0  0  0  0  0  0  0  0  0  0  0
    6.7069    1.3253   -5.3077 H   0  0  0  0  0  0  0  0  0  0  0  0
    4.1377   -1.7613   -5.2796 H   0  0  0  0  0  0  0  0  0  0  0  0
  1  2  1  0  0  0  0
  1 40  1  0  0  0  0
  1 41  1  0  0  0  0
  1 42  1  0  0  0  0
  2  3  1  0  0  0  0
  3  4  1  0  0  0  0
  3 39  2  0  0  0  0
  4  5  2  0  0  0  0
  4 43  1  0  0  0  0
  5  6  1  0  0  0  0
  5  8  1  0  0  0  0
  6  7  1  0  0  0  0
  7 44  1  0  0  0  0
  7 45  1  0  0  0  0
  7 46  1  0  0  0  0
  8  9  2  0  0  0  0
  8 47  1  0  0  0  0
  9 10  1  0  0  0  0
  9 39  1  0  0  0  0
 10 11  1  0  0  0  0
 10 23  1  0  0  0  0
 11 12  1  0  0  0  0
 11 48  1  0  0  0  0
 11 49  1  0  0  0  0
 12 13  2  0  0  0  0
 12 16  1  0  0  0  0
 13 14  1  0  0  0  0
 14 15  2  0  0  0  0
 14 50  1  0  0  0  0
 15 16  1  0  0  0  0
 15 51  1  0  0  0  0
 16 17  1  0  0  0  0
 17 18  2  0  0  0  0
 17 19  2  0  0  0  0
 17 20  1  0  0  0  0
 20 21  1  0  0  0  0
 20 22  1  0  0  0  0
 21 52  1  0  0  0  0
 21 53  1  0  0  0  0
 21 54  1  0  0  0  0
 22 55  1  0  0  0  0
 22 56  1  0  0  0  0
 22 57  1  0  0  0  0
 23 24  1  0  0  0  0
 23 38  2  0  0  0  0
 24 25  2  0  0  0  0
 24 58  1  0  0  0  0
 25 26  1  0  0  0  0
 25 59  1  0  0  0  0
 26 27  1  0  0  0  0
 26 37  2  0  0  0  0
 27 28  2  0  0  0  0
 28 29  1  0  0  0  0
 28 60  1  0  0  0  0
 29 30  1  0  0  0  0
 29 36  2  0  0  0  0
 30 31  1  0  0  0  0
 30 35  2  0  0  0  0
 31 32  2  0  0  0  0
 31 61  1  0  0  0  0
 32 33  1  0  0  0  0
 33 34  1  0  0  0  0
 33 35  1  0  0  0  0
 34 62  1  0  0  0  0
 34 63  1  0  0  0  0
 34 64  1  0  0  0  0
 35 65  1  0  0  0  0
 36 37  1  0  0  0  0
 37 38  1  0  0  0  0
 38 66  1  0  0  0  0
 39 67  1  0  0  0  0
M  END
$$$$
