CHEMBL3918704
 OpenBabel04072215373D

 55 59  0  0  0  0  0  0  0  0999 V2000
    0.9010   -0.2766    1.9722 C   0  0  0  0  0  0  0  0  0  0  0  0
    2.2732    0.1539    1.9066 N   0  0  0  0  0  0  0  0  0  0  0  0
    2.9899    0.1073    0.7288 C   0  0  0  0  0  0  0  0  0  0  0  0
    2.5272   -0.2762   -0.3373 O   0  0  0  0  0  0  0  0  0  0  0  0
    4.4036    0.5802    0.8118 C   0  0  0  0  0  0  0  0  0  0  0  0
    4.9915    1.1407   -0.3109 C   0  0  0  0  0  0  0  0  0  0  0  0
    6.2864    1.6114   -0.1971 C   0  0  0  0  0  0  0  0  0  0  0  0
    6.8585    2.2149   -1.2480 F   0  0  0  0  0  0  0  0  0  0  0  0
    7.0246    1.4637    0.9851 C   0  0  0  0  0  0  0  0  0  0  0  0
    6.5136    0.7900    2.1076 C   0  0  0  0  0  0  0  0  0  0  0  0
    7.3012    0.5142    3.2693 N   0  0  0  0  0  0  0  0  0  0  0  0
    8.7866    0.6788    3.1782 C   0  0  0  0  0  0  0  0  0  0  0  0
    9.5793   -0.4373    2.5263 C   0  0  0  0  0  0  0  0  0  0  0  0
    9.5261   -0.7450    1.0490 C   0  0  0  0  0  0  0  0  0  0  0  0
    9.0000   -1.7438    2.0438 C   0  0  0  0  0  0  0  0  0  0  0  0
    6.8417    0.2148    4.5929 C   0  0  0  0  0  0  0  0  0  0  0  0
    7.3996    0.8418    5.7206 C   0  0  0  0  0  0  0  0  0  0  0  0
    7.0123    0.5020    7.0211 C   0  0  0  0  0  0  0  0  0  0  0  0
    5.9880   -0.3961    7.2480 C   0  0  0  0  0  0  0  0  0  0  0  0
    5.6367   -0.6932    8.5107 N   0  0  0  0  0  0  0  0  0  0  0  0
    4.5986   -1.5504    8.6530 C   0  0  0  0  0  0  0  0  0  0  0  0
    3.9018   -2.0806    7.5771 C   0  0  0  0  0  0  0  0  0  0  0  0
    2.7498   -2.9435    7.7710 C   0  0  0  0  0  0  0  0  0  0  0  0
    2.1449   -3.4239    8.9547 C   0  0  0  0  0  0  0  0  0  0  0  0
    1.0807   -4.1945    8.7208 N   0  0  0  0  0  0  0  0  0  0  0  0
    0.9988   -4.2150    7.3787 N   0  0  0  0  0  0  0  0  0  0  0  0
   -0.0517   -4.9690    6.7367 C   0  0  0  0  0  0  0  0  0  0  0  0
    1.9669   -3.4751    6.7640 C   0  0  0  0  0  0  0  0  0  0  0  0
    4.2783   -1.8051    6.3035 N   0  0  0  0  0  0  0  0  0  0  0  0
    5.3366   -0.9796    6.1405 C   0  0  0  0  0  0  0  0  0  0  0  0
    5.8188   -0.7095    4.8588 C   0  0  0  0  0  0  0  0  0  0  0  0
    5.1573    0.4267    1.9967 C   0  0  0  0  0  0  0  0  0  0  0  0
    0.5448   -0.1440    2.9983 H   0  0  0  0  0  0  0  0  0  0  0  0
    0.8375   -1.3315    1.6916 H   0  0  0  0  0  0  0  0  0  0  0  0
    0.2990    0.3238    1.2867 H   0  0  0  0  0  0  0  0  0  0  0  0
    2.6481    0.6517    2.7022 H   0  0  0  0  0  0  0  0  0  0  0  0
    4.4514    1.2345   -1.2470 H   0  0  0  0  0  0  0  0  0  0  0  0
    8.0242    1.8837    0.9707 H   0  0  0  0  0  0  0  0  0  0  0  0
    9.2387    0.7123    4.1771 H   0  0  0  0  0  0  0  0  0  0  0  0
    9.0610    1.6495    2.7547 H   0  0  0  0  0  0  0  0  0  0  0  0
   10.5704   -0.4767    2.9643 H   0  0  0  0  0  0  0  0  0  0  0  0
   10.4660   -0.9629    0.5509 H   0  0  0  0  0  0  0  0  0  0  0  0
    8.8147   -0.2567    0.4034 H   0  0  0  0  0  0  0  0  0  0  0  0
    9.5872   -2.6468    2.1808 H   0  0  0  0  0  0  0  0  0  0  0  0
    7.9323   -1.8969    2.1092 H   0  0  0  0  0  0  0  0  0  0  0  0
    8.1583    1.6146    5.6229 H   0  0  0  0  0  0  0  0  0  0  0  0
    7.5163    0.9578    7.8701 H   0  0  0  0  0  0  0  0  0  0  0  0
    4.3518   -1.7913    9.6803 H   0  0  0  0  0  0  0  0  0  0  0  0
    2.4252   -3.2456    9.9862 H   0  0  0  0  0  0  0  0  0  0  0  0
   -0.5806   -5.5662    7.4849 H   0  0  0  0  0  0  0  0  0  0  0  0
    0.3988   -5.6265    5.9893 H   0  0  0  0  0  0  0  0  0  0  0  0
   -0.7403   -4.2637    6.2667 H   0  0  0  0  0  0  0  0  0  0  0  0
    2.0215   -3.3879    5.6863 H   0  0  0  0  0  0  0  0  0  0  0  0
    5.3844   -1.3028    4.0617 H   0  0  0  0  0  0  0  0  0  0  0  0
    4.6402   -0.0321    2.8225 H   0  0  0  0  0  0  0  0  0  0  0  0
  1  2  1  0  0  0  0
  1 33  1  0  0  0  0
  1 34  1  0  0  0  0
  1 35  1  0  0  0  0
  2  3  1  0  0  0  0
  2 36  1  0  0  0  0
  3  4  2  0  0  0  0
  3  5  1  0  0  0  0
  5  6  1  0  0  0  0
  5 32  2  0  0  0  0
  6  7  2  0  0  0  0
  6 37  1  0  0  0  0
  7  8  1  0  0  0  0
  7  9  1  0  0  0  0
  9 10  2  0  0  0  0
  9 38  1  0  0  0  0
 10 11  1  0  0  0  0
 10 32  1  0  0  0  0
 11 12  1  0  0  0  0
 11 16  1  0  0  0  0
 12 13  1  0  0  0  0
 12 39  1  0  0  0  0
 12 40  1  0  0  0  0
 13 14  1  0  0  0  0
 13 15  1  0  0  0  0
 13 41  1  0  0  0  0
 14 15  1  0  0  0  0
 14 42  1  0  0  0  0
 14 43  1  0  0  0  0
 15 44  1  0  0  0  0
 15 45  1  0  0  0  0
 16 17  1  0  0  0  0
 16 31  2  0  0  0  0
 17 18  2  0  0  0  0
 17 46  1  0  0  0  0
 18 19  1  0  0  0  0
 18 47  1  0  0  0  0
 19 20  1  0  0  0  0
 19 30  2  0  0  0  0
 20 21  2  0  0  0  0
 21 22  1  0  0  0  0
 21 48  1  0  0  0  0
 22 23  1  0  0  0  0
 22 29  2  0  0  0  0
 23 24  1  0  0  0  0
 23 28  2  0  0  0  0
 24 25  2  0  0  0  0
 24 49  1  0  0  0  0
 25 26  1  0  0  0  0
 26 27  1  0  0  0  0
 26 28  1  0  0  0  0
 27 50  1  0  0  0  0
 27 51  1  0  0  0  0
 27 52  1  0  0  0  0
 28 53  1  0  0  0  0
 29 30  1  0  0  0  0
 30 31  1  0  0  0  0
 31 54  1  0  0  0  0
 32 55  1  0  0  0  0
M  END
$$$$
