CHEMBL4790511
 OpenBabel04072215383D

 56 59  0  0  0  0  0  0  0  0999 V2000
    1.5363    0.6063    1.1447 C   0  0  0  0  0  0  0  0  0  0  0  0
    2.9702    0.4595    0.6532 C   0  0  0  0  0  0  0  0  0  0  0  0
    3.2898    1.3951   -0.4865 C   0  0  0  0  0  0  0  0  0  0  0  0
    3.7761    2.6911   -0.2434 C   0  0  0  0  0  0  0  0  0  0  0  0
    4.0114    3.5875   -1.2956 C   0  0  0  0  0  0  0  0  0  0  0  0
    3.7615    3.1830   -2.6037 C   0  0  0  0  0  0  0  0  0  0  0  0
    3.9629    4.0553   -3.7971 C   0  0  0  0  0  0  0  0  0  0  0  0
    4.3130    3.4734   -4.8106 O   0  0  0  0  0  0  0  0  0  0  0  0
    3.7318    5.4238   -3.6725 N   0  0  0  0  0  0  0  0  0  0  0  0
    3.8033    6.3164   -4.7854 C   0  0  0  0  0  0  0  0  0  0  0  0
    3.7481    5.8517   -6.1013 C   0  0  0  0  0  0  0  0  0  0  0  0
    3.9584    6.6932   -7.2012 C   0  0  0  0  0  0  0  0  0  0  0  0
    4.1763    8.0540   -7.0344 C   0  0  0  0  0  0  0  0  0  0  0  0
    4.5303    8.9328   -8.0798 N   0  0  0  0  0  0  0  0  0  0  0  0
    4.7448    8.7465   -9.4760 C   0  0  0  0  0  0  0  0  0  0  0  0
    4.5965    7.5196  -10.0235 N   0  0  0  0  0  0  0  0  0  0  0  0
    4.9134    7.3776  -11.3226 C   0  0  0  0  0  0  0  0  0  0  0  0
    5.3435    8.3337  -12.1329 N   0  0  0  0  0  0  0  0  0  0  0  0
    5.5542    9.5152  -11.5695 C   0  0  0  0  0  0  0  0  0  0  0  0
    6.1893   10.4256  -12.3725 C   0  0  0  0  0  0  0  0  0  0  0  0
    6.6188   11.6728  -11.9128 C   0  0  0  0  0  0  0  0  0  0  0  0
    7.3740   12.5003  -12.7017 O   0  0  0  0  0  0  0  0  0  0  0  0
    7.7459   12.0136  -13.9900 C   0  0  0  0  0  0  0  0  0  0  0  0
    6.2813   12.0501  -10.6054 C   0  0  0  0  0  0  0  0  0  0  0  0
    6.5747   13.2226   -9.9593 O   0  0  0  0  0  0  0  0  0  0  0  0
    7.3314   14.1975  -10.6695 C   0  0  0  0  0  0  0  0  0  0  0  0
    5.5924   11.1337   -9.7870 C   0  0  0  0  0  0  0  0  0  0  0  0
    5.2692    9.8220  -10.2360 C   0  0  0  0  0  0  0  0  0  0  0  0
    4.1667    8.5348   -5.7082 C   0  0  0  0  0  0  0  0  0  0  0  0
    3.9623    7.6864   -4.5934 C   0  0  0  0  0  0  0  0  0  0  0  0
    3.3320    1.8709   -2.8570 C   0  0  0  0  0  0  0  0  0  0  0  0
    3.0822    0.9893   -1.8075 C   0  0  0  0  0  0  0  0  0  0  0  0
    1.3497   -0.0888    1.9696 H   0  0  0  0  0  0  0  0  0  0  0  0
    0.8170    0.3852    0.3492 H   0  0  0  0  0  0  0  0  0  0  0  0
    1.3371    1.6202    1.5067 H   0  0  0  0  0  0  0  0  0  0  0  0
    3.1391   -0.5777    0.3378 H   0  0  0  0  0  0  0  0  0  0  0  0
    3.6656    0.6424    1.4806 H   0  0  0  0  0  0  0  0  0  0  0  0
    3.9737    3.0103    0.7777 H   0  0  0  0  0  0  0  0  0  0  0  0
    4.4032    4.5747   -1.0695 H   0  0  0  0  0  0  0  0  0  0  0  0
    3.5962    5.8290   -2.7546 H   0  0  0  0  0  0  0  0  0  0  0  0
    3.5527    4.8108   -6.3290 H   0  0  0  0  0  0  0  0  0  0  0  0
    3.9475    6.2326   -8.1841 H   0  0  0  0  0  0  0  0  0  0  0  0
    4.2512    9.8804   -7.8721 H   0  0  0  0  0  0  0  0  0  0  0  0
    4.8531    6.3810  -11.7535 H   0  0  0  0  0  0  0  0  0  0  0  0
    6.4150   10.0862  -13.3789 H   0  0  0  0  0  0  0  0  0  0  0  0
    8.3170   12.7924  -14.5015 H   0  0  0  0  0  0  0  0  0  0  0  0
    6.8564   11.8096  -14.5963 H   0  0  0  0  0  0  0  0  0  0  0  0
    8.3853   11.1256  -13.9130 H   0  0  0  0  0  0  0  0  0  0  0  0
    7.5218   15.0378   -9.9957 H   0  0  0  0  0  0  0  0  0  0  0  0
    6.7636   14.5842  -11.5228 H   0  0  0  0  0  0  0  0  0  0  0  0
    8.3087   13.8047  -10.9662 H   0  0  0  0  0  0  0  0  0  0  0  0
    5.3652   11.4390   -8.7674 H   0  0  0  0  0  0  0  0  0  0  0  0
    4.3628    9.5882   -5.5221 H   0  0  0  0  0  0  0  0  0  0  0  0
    3.9943    8.1200   -3.5993 H   0  0  0  0  0  0  0  0  0  0  0  0
    3.1727    1.5358   -3.8785 H   0  0  0  0  0  0  0  0  0  0  0  0
    2.7177   -0.0115   -2.0335 H   0  0  0  0  0  0  0  0  0  0  0  0
  1  2  1  0  0  0  0
  1 33  1  0  0  0  0
  1 34  1  0  0  0  0
  1 35  1  0  0  0  0
  2  3  1  0  0  0  0
  2 36  1  0  0  0  0
  2 37  1  0  0  0  0
  3  4  1  0  0  0  0
  3 32  2  0  0  0  0
  4  5  2  0  0  0  0
  4 38  1  0  0  0  0
  5  6  1  0  0  0  0
  5 39  1  0  0  0  0
  6  7  1  0  0  0  0
  6 31  2  0  0  0  0
  7  8  2  0  0  0  0
  7  9  1  0  0  0  0
  9 10  1  0  0  0  0
  9 40  1  0  0  0  0
 10 11  1  0  0  0  0
 10 30  2  0  0  0  0
 11 12  2  0  0  0  0
 11 41  1  0  0  0  0
 12 13  1  0  0  0  0
 12 42  1  0  0  0  0
 13 14  1  0  0  0  0
 13 29  2  0  0  0  0
 14 15  1  0  0  0  0
 14 43  1  0  0  0  0
 15 16  1  0  0  0  0
 15 28  2  0  0  0  0
 16 17  2  0  0  0  0
 17 18  1  0  0  0  0
 17 44  1  0  0  0  0
 18 19  2  0  0  0  0
 19 20  1  0  0  0  0
 19 28  1  0  0  0  0
 20 21  2  0  0  0  0
 20 45  1  0  0  0  0
 21 22  1  0  0  0  0
 21 24  1  0  0  0  0
 22 23  1  0  0  0  0
 23 46  1  0  0  0  0
 23 47  1  0  0  0  0
 23 48  1  0  0  0  0
 24 25  1  0  0  0  0
 24 27  2  0  0  0  0
 25 26  1  0  0  0  0
 26 49  1  0  0  0  0
 26 50  1  0  0  0  0
 26 51  1  0  0  0  0
 27 28  1  0  0  0  0
 27 52  1  0  0  0  0
 29 30  1  0  0  0  0
 29 53  1  0  0  0  0
 30 54  1  0  0  0  0
 31 32  1  0  0  0  0
 31 55  1  0  0  0  0
 32 56  1  0  0  0  0
M  END
$$$$
