CHEMBL1744347
 OpenBabel04072215363D

 61 63  0  0  0  0  0  0  0  0999 V2000
    2.6041   -0.2196    0.6162 C   0  0  0  0  0  0  0  0  0  0  0  0
    2.6231    0.6224   -0.4770 O   0  0  0  0  0  0  0  0  0  0  0  0
    3.3191    0.4482   -1.6290 C   0  0  0  0  0  0  0  0  0  0  0  0
    4.4324   -0.4128   -1.7067 C   0  0  0  0  0  0  0  0  0  0  0  0
    5.1130   -0.6131   -2.9160 C   0  0  0  0  0  0  0  0  0  0  0  0
    6.1738   -1.5532   -3.0737 C   0  0  0  0  0  0  0  0  0  0  0  0
    6.5931   -2.4277   -2.0060 N   0  0  0  0  0  0  0  0  0  0  0  0
    7.1921   -3.7291   -2.1706 C   0  0  0  0  0  0  0  0  0  0  0  0
    7.2992   -4.3754   -3.4239 C   0  0  0  0  0  0  0  0  0  0  0  0
    7.8508   -5.6514   -3.5309 C   0  0  0  0  0  0  0  0  0  0  0  0
    8.2966   -6.3246   -2.3971 C   0  0  0  0  0  0  0  0  0  0  0  0
    8.9845   -7.9299   -2.5482 Cl  0  0  0  0  0  0  0  0  0  0  0  0
    8.1771   -5.7218   -1.1424 C   0  0  0  0  0  0  0  0  0  0  0  0
    7.6263   -4.4385   -1.0226 C   0  0  0  0  0  0  0  0  0  0  0  0
    7.5173   -3.8900    0.2137 F   0  0  0  0  0  0  0  0  0  0  0  0
    6.7606   -1.6516   -4.2924 N   0  0  0  0  0  0  0  0  0  0  0  0
    6.3712   -0.9071   -5.3552 C   0  0  0  0  0  0  0  0  0  0  0  0
    5.3339   -0.0423   -5.2355 N   0  0  0  0  0  0  0  0  0  0  0  0
    4.6908    0.1174   -4.0536 C   0  0  0  0  0  0  0  0  0  0  0  0
    3.5843    0.9831   -3.9776 C   0  0  0  0  0  0  0  0  0  0  0  0
    2.8778    1.1391   -2.7671 C   0  0  0  0  0  0  0  0  0  0  0  0
    1.7655    1.9256   -2.6433 O   0  0  0  0  0  0  0  0  0  0  0  0
    0.9765    2.4691   -3.6474 C   0  0  0  0  0  0  0  0  0  0  0  0
    0.1223    1.4089   -4.3713 C   0  0  0  0  0  0  0  0  0  0  0  0
   -0.9297    0.6745   -3.4939 C   0  0  0  0  0  0  0  0  0  0  0  0
   -1.9999    1.5264   -2.9003 N   0  0  0  0  0  0  0  0  0  0  0  0
   -2.7772    2.2613   -3.9231 C   0  0  0  0  0  0  0  0  0  0  0  0
   -3.8868    3.1007   -3.2624 C   0  0  0  0  0  0  0  0  0  0  0  0
   -4.8094    2.2752   -2.4615 N   0  0  0  0  0  0  0  0  0  0  0  0
   -5.7419    1.4831   -3.2836 C   0  0  0  0  0  0  0  0  0  0  0  0
   -4.0609    1.4687   -1.4783 C   0  0  0  0  0  0  0  0  0  0  0  0
   -2.9270    0.6544   -2.1344 C   0  0  0  0  0  0  0  0  0  0  0  0
    1.4207   -1.9115    3.2737 Cl  0  0  0  0  0  0  0  0  0  0  0  0
    3.0308    0.3028    1.4956 H   0  0  0  0  0  0  0  0  0  0  0  0
    3.1398   -1.1753    0.4586 H   0  0  0  0  0  0  0  0  0  0  0  0
    1.5511   -0.4948    0.8139 H   0  0  0  0  0  0  0  0  0  0  0  0
    4.7527   -0.9251   -0.8241 H   0  0  0  0  0  0  0  0  0  0  0  0
    6.3881   -2.1549   -1.0386 H   0  0  0  0  0  0  0  0  0  0  0  0
    6.9521   -3.9401   -4.3419 H   0  0  0  0  0  0  0  0  0  0  0  0
    7.9239   -6.1194   -4.5029 H   0  0  0  0  0  0  0  0  0  0  0  0
    8.5112   -6.2507   -0.2562 H   0  0  0  0  0  0  0  0  0  0  0  0
    6.8748   -1.0243   -6.3034 H   0  0  0  0  0  0  0  0  0  0  0  0
    3.2755    1.5103   -4.8700 H   0  0  0  0  0  0  0  0  0  0  0  0
    1.6187    3.0063   -4.3780 H   0  0  0  0  0  0  0  0  0  0  0  0
    0.2935    3.2211   -3.2011 H   0  0  0  0  0  0  0  0  0  0  0  0
    0.8064    0.6462   -4.8001 H   0  0  0  0  0  0  0  0  0  0  0  0
   -0.3875    1.8852   -5.2327 H   0  0  0  0  0  0  0  0  0  0  0  0
   -0.3831    0.1532   -2.6772 H   0  0  0  0  0  0  0  0  0  0  0  0
   -1.3968   -0.1081   -4.1349 H   0  0  0  0  0  0  0  0  0  0  0  0
   -3.2207    1.5568   -4.6638 H   0  0  0  0  0  0  0  0  0  0  0  0
   -2.1267    2.9754   -4.4656 H   0  0  0  0  0  0  0  0  0  0  0  0
   -4.4501    3.6717   -4.0329 H   0  0  0  0  0  0  0  0  0  0  0  0
   -3.4107    3.8482   -2.5902 H   0  0  0  0  0  0  0  0  0  0  0  0
   -6.2832    2.1453   -3.9941 H   0  0  0  0  0  0  0  0  0  0  0  0
   -6.5113    1.0127   -2.6340 H   0  0  0  0  0  0  0  0  0  0  0  0
   -5.2275    0.6896   -3.8620 H   0  0  0  0  0  0  0  0  0  0  0  0
   -4.7514    0.7914   -0.9281 H   0  0  0  0  0  0  0  0  0  0  0  0
   -3.6142    2.1558   -0.7276 H   0  0  0  0  0  0  0  0  0  0  0  0
   -3.3721   -0.1198   -2.7993 H   0  0  0  0  0  0  0  0  0  0  0  0
   -2.3764    0.1242   -1.3267 H   0  0  0  0  0  0  0  0  0  0  0  0
    2.6886   -1.3788    3.2090 H   0  0  0  0  0  0  0  0  0  0  0  0
  1  2  1  0  0  0  0
  1 34  1  0  0  0  0
  1 35  1  0  0  0  0
  1 36  1  0  0  0  0
  2  3  1  0  0  0  0
  3  4  1  0  0  0  0
  3 21  2  0  0  0  0
  4  5  2  0  0  0  0
  4 37  1  0  0  0  0
  5  6  1  0  0  0  0
  5 19  1  0  0  0  0
  6  7  1  0  0  0  0
  6 16  2  0  0  0  0
  7  8  1  0  0  0  0
  7 38  1  0  0  0  0
  8  9  1  0  0  0  0
  8 14  2  0  0  0  0
  9 10  2  0  0  0  0
  9 39  1  0  0  0  0
 10 11  1  0  0  0  0
 10 40  1  0  0  0  0
 11 12  1  0  0  0  0
 11 13  2  0  0  0  0
 13 14  1  0  0  0  0
 13 41  1  0  0  0  0
 14 15  1  0  0  0  0
 16 17  1  0  0  0  0
 17 18  2  0  0  0  0
 17 42  1  0  0  0  0
 18 19  1  0  0  0  0
 19 20  2  0  0  0  0
 20 21  1  0  0  0  0
 20 43  1  0  0  0  0
 21 22  1  0  0  0  0
 22 23  1  0  0  0  0
 23 24  1  0  0  0  0
 23 44  1  0  0  0  0
 23 45  1  0  0  0  0
 24 25  1  0  0  0  0
 24 46  1  0  0  0  0
 24 47  1  0  0  0  0
 25 26  1  0  0  0  0
 25 48  1  0  0  0  0
 25 49  1  0  0  0  0
 26 27  1  0  0  0  0
 26 32  1  0  0  0  0
 27 28  1  0  0  0  0
 27 50  1  0  0  0  0
 27 51  1  0  0  0  0
 28 29  1  0  0  0  0
 28 52  1  0  0  0  0
 28 53  1  0  0  0  0
 29 30  1  0  0  0  0
 29 31  1  0  0  0  0
 30 54  1  0  0  0  0
 30 55  1  0  0  0  0
 30 56  1  0  0  0  0
 31 32  1  0  0  0  0
 31 57  1  0  0  0  0
 31 58  1  0  0  0  0
 32 59  1  0  0  0  0
 32 60  1  0  0  0  0
 33 61  1  0  0  0  0
M  END
$$$$
