CHEMBL2031906
 OpenBabel04072215363D

 72 77  0  0  0  0  0  0  0  0999 V2000
    5.1262   -6.8198  -12.0425 C   0  0  0  0  0  0  0  0  0  0  0  0
    6.3052   -6.5711  -11.2803 O   0  0  0  0  0  0  0  0  0  0  0  0
    6.7366   -5.2739  -11.3336 C   0  0  0  0  0  0  0  0  0  0  0  0
    5.9089   -4.1930  -11.6009 C   0  0  0  0  0  0  0  0  0  0  0  0
    6.4470   -2.9158  -11.6330 C   0  0  0  0  0  0  0  0  0  0  0  0
    7.7835   -2.6703  -11.2856 C   0  0  0  0  0  0  0  0  0  0  0  0
    8.3223   -1.3818  -11.1258 C   0  0  0  0  0  0  0  0  0  0  0  0
    7.6041   -0.1965  -11.1763 O   0  0  0  0  0  0  0  0  0  0  0  0
    6.3798   -0.0289  -10.5485 C   0  0  0  0  0  0  0  0  0  0  0  0
    5.8721   -0.7672   -9.4697 C   0  0  0  0  0  0  0  0  0  0  0  0
    4.5405   -0.5628   -8.9875 C   0  0  0  0  0  0  0  0  0  0  0  0
    3.7214    0.4284   -9.5280 C   0  0  0  0  0  0  0  0  0  0  0  0
    2.3660    0.7111   -9.1858 N   0  0  0  0  0  0  0  0  0  0  0  0
    1.4214    0.0898   -8.3580 C   0  0  0  0  0  0  0  0  0  0  0  0
    1.6503   -0.8381   -7.5922 O   0  0  0  0  0  0  0  0  0  0  0  0
    0.0131    0.6740   -8.5040 C   0  0  0  0  0  0  0  0  0  0  0  0
   -1.2311    0.3695   -8.0190 C   0  0  0  0  0  0  0  0  0  0  0  0
   -1.6003   -0.6817   -6.9473 C   0  0  0  0  0  0  0  0  0  0  0  0
   -2.1316   -2.0016   -7.3540 N   0  0  0  0  0  0  0  0  0  0  0  0
   -2.6497   -2.7708   -6.1948 C   0  0  0  0  0  0  0  0  0  0  0  0
   -1.5795   -3.7557   -5.7466 C   0  0  0  0  0  0  0  0  0  0  0  0
   -0.6685   -3.9181   -6.9418 C   0  0  0  0  0  0  0  0  0  0  0  0
   -1.1279   -2.8855   -7.9670 C   0  0  0  0  0  0  0  0  0  0  0  0
   -2.1839    1.3375   -8.4456 N   0  0  0  0  0  0  0  0  0  0  0  0
   -3.6374    1.3448   -8.3782 C   0  0  0  0  0  0  0  0  0  0  0  0
   -1.5170    2.3489   -9.1651 N   0  0  0  0  0  0  0  0  0  0  0  0
   -2.1813    3.1814  -10.1042 C   0  0  0  0  0  0  0  0  0  0  0  0
   -2.0962    2.9308  -11.4800 C   0  0  0  0  0  0  0  0  0  0  0  0
   -2.6709    3.8113  -12.4040 C   0  0  0  0  0  0  0  0  0  0  0  0
   -3.3119    4.9672  -11.9635 C   0  0  0  0  0  0  0  0  0  0  0  0
   -3.3846    5.2407  -10.5985 C   0  0  0  0  0  0  0  0  0  0  0  0
   -2.8291    4.3470   -9.6704 C   0  0  0  0  0  0  0  0  0  0  0  0
   -0.2240    1.8883   -9.3645 C   0  0  0  0  0  0  0  0  0  0  0  0
    0.6380    2.3722  -10.0906 O   0  0  0  0  0  0  0  0  0  0  0  0
    4.2773    1.2241  -10.5471 C   0  0  0  0  0  0  0  0  0  0  0  0
    5.5716    0.9913  -11.0464 C   0  0  0  0  0  0  0  0  0  0  0  0
    6.0028    1.7529  -12.0659 F   0  0  0  0  0  0  0  0  0  0  0  0
    9.7008   -1.2404  -10.9762 C   0  0  0  0  0  0  0  0  0  0  0  0
   10.4734   -2.3834  -10.8614 C   0  0  0  0  0  0  0  0  0  0  0  0
    9.9578   -3.6295  -10.8666 N   0  0  0  0  0  0  0  0  0  0  0  0
    8.6436   -3.7789  -11.0784 C   0  0  0  0  0  0  0  0  0  0  0  0
    8.0963   -5.0590  -11.0877 C   0  0  0  0  0  0  0  0  0  0  0  0
    4.9575   -7.8976  -12.0742 H   0  0  0  0  0  0  0  0  0  0  0  0
    5.2507   -6.4642  -13.0725 H   0  0  0  0  0  0  0  0  0  0  0  0
    4.2462   -6.3616  -11.5768 H   0  0  0  0  0  0  0  0  0  0  0  0
    4.8465   -4.2963  -11.7450 H   0  0  0  0  0  0  0  0  0  0  0  0
    5.7849   -2.1028  -11.9136 H   0  0  0  0  0  0  0  0  0  0  0  0
    6.4723   -1.5515   -9.0214 H   0  0  0  0  0  0  0  0  0  0  0  0
    4.1776   -1.2058   -8.1883 H   0  0  0  0  0  0  0  0  0  0  0  0
    1.9997    1.5069   -9.7124 H   0  0  0  0  0  0  0  0  0  0  0  0
   -2.4102   -0.2107   -6.3671 H   0  0  0  0  0  0  0  0  0  0  0  0
   -0.7799   -0.7945   -6.2321 H   0  0  0  0  0  0  0  0  0  0  0  0
   -3.5331   -3.3392   -6.5138 H   0  0  0  0  0  0  0  0  0  0  0  0
   -2.9748   -2.1462   -5.3543 H   0  0  0  0  0  0  0  0  0  0  0  0
   -2.0106   -4.7175   -5.4395 H   0  0  0  0  0  0  0  0  0  0  0  0
   -1.0136   -3.3682   -4.8917 H   0  0  0  0  0  0  0  0  0  0  0  0
   -0.7430   -4.9346   -7.3487 H   0  0  0  0  0  0  0  0  0  0  0  0
    0.3745   -3.7609   -6.6464 H   0  0  0  0  0  0  0  0  0  0  0  0
   -1.6078   -3.4193   -8.7963 H   0  0  0  0  0  0  0  0  0  0  0  0
   -0.2784   -2.3546   -8.3991 H   0  0  0  0  0  0  0  0  0  0  0  0
   -4.0401    0.5840   -7.7059 H   0  0  0  0  0  0  0  0  0  0  0  0
   -4.0761    1.1776   -9.3699 H   0  0  0  0  0  0  0  0  0  0  0  0
   -3.9993    2.3147   -8.0132 H   0  0  0  0  0  0  0  0  0  0  0  0
   -1.5797    2.0489  -11.8463 H   0  0  0  0  0  0  0  0  0  0  0  0
   -2.6009    3.6015  -13.4684 H   0  0  0  0  0  0  0  0  0  0  0  0
   -3.7390    5.6618  -12.6850 H   0  0  0  0  0  0  0  0  0  0  0  0
   -3.8560    6.1613  -10.2604 H   0  0  0  0  0  0  0  0  0  0  0  0
   -2.8598    4.6016   -8.6141 H   0  0  0  0  0  0  0  0  0  0  0  0
    3.7059    2.0315  -11.0007 H   0  0  0  0  0  0  0  0  0  0  0  0
   10.1712   -0.2638  -10.9494 H   0  0  0  0  0  0  0  0  0  0  0  0
   11.5529   -2.3277  -10.7413 H   0  0  0  0  0  0  0  0  0  0  0  0
    8.7543   -5.9126  -10.9036 H   0  0  0  0  0  0  0  0  0  0  0  0
  1  2  1  0  0  0  0
  1 43  1  0  0  0  0
  1 44  1  0  0  0  0
  1 45  1  0  0  0  0
  2  3  1  0  0  0  0
  3  4  1  0  0  0  0
  3 42  2  0  0  0  0
  4  5  2  0  0  0  0
  4 46  1  0  0  0  0
  5  6  1  0  0  0  0
  5 47  1  0  0  0  0
  6  7  1  0  0  0  0
  6 41  2  0  0  0  0
  7  8  1  0  0  0  0
  7 38  2  0  0  0  0
  8  9  1  0  0  0  0
  9 10  1  0  0  0  0
  9 36  2  0  0  0  0
 10 11  2  0  0  0  0
 10 48  1  0  0  0  0
 11 12  1  0  0  0  0
 11 49  1  0  0  0  0
 12 13  1  0  0  0  0
 12 35  2  0  0  0  0
 13 14  1  0  0  0  0
 13 50  1  0  0  0  0
 14 15  2  0  0  0  0
 14 16  1  0  0  0  0
 16 17  2  0  0  0  0
 16 33  1  0  0  0  0
 17 18  1  0  0  0  0
 17 24  1  0  0  0  0
 18 19  1  0  0  0  0
 18 51  1  0  0  0  0
 18 52  1  0  0  0  0
 19 20  1  0  0  0  0
 19 23  1  0  0  0  0
 20 21  1  0  0  0  0
 20 53  1  0  0  0  0
 20 54  1  0  0  0  0
 21 22  1  0  0  0  0
 21 55  1  0  0  0  0
 21 56  1  0  0  0  0
 22 23  1  0  0  0  0
 22 57  1  0  0  0  0
 22 58  1  0  0  0  0
 23 59  1  0  0  0  0
 23 60  1  0  0  0  0
 24 25  1  0  0  0  0
 24 26  1  0  0  0  0
 25 61  1  0  0  0  0
 25 62  1  0  0  0  0
 25 63  1  0  0  0  0
 26 27  1  0  0  0  0
 26 33  1  0  0  0  0
 27 28  1  0  0  0  0
 27 32  2  0  0  0  0
 28 29  2  0  0  0  0
 28 64  1  0  0  0  0
 29 30  1  0  0  0  0
 29 65  1  0  0  0  0
 30 31  2  0  0  0  0
 30 66  1  0  0  0  0
 31 32  1  0  0  0  0
 31 67  1  0  0  0  0
 32 68  1  0  0  0  0
 33 34  2  0  0  0  0
 35 36  1  0  0  0  0
 35 69  1  0  0  0  0
 36 37  1  0  0  0  0
 38 39  1  0  0  0  0
 38 70  1  0  0  0  0
 39 40  2  0  0  0  0
 39 71  1  0  0  0  0
 40 41  1  0  0  0  0
 41 42  1  0  0  0  0
 42 72  1  0  0  0  0
M  END
$$$$
