CHEMBL4438194
 OpenBabel04072215383D

 54 58  0  0  0  0  0  0  0  0999 V2000
    0.8047   -0.0663   -0.0340 C   0  0  0  0  0  0  0  0  0  0  0  0
    2.3133   -0.0206    0.0065 C   0  0  0  0  0  0  0  0  0  0  0  0
    2.9885   -1.1803   -0.0155 C   0  0  0  0  0  0  0  0  0  0  0  0
    4.4409   -1.1999   -0.1064 C   0  0  0  0  0  0  0  0  0  0  0  0
    5.1115   -2.4187   -0.1842 C   0  0  0  0  0  0  0  0  0  0  0  0
    6.4840   -2.3948   -0.2742 C   0  0  0  0  0  0  0  0  0  0  0  0
    7.2030   -1.2597   -0.2400 N   0  0  0  0  0  0  0  0  0  0  0  0
    6.5635   -0.0629   -0.1371 C   0  0  0  0  0  0  0  0  0  0  0  0
    7.3711    1.0657    0.0786 N   0  0  0  0  0  0  0  0  0  0  0  0
    8.5165    1.1480    0.8983 C   0  0  0  0  0  0  0  0  0  0  0  0
    8.8324    0.1394    1.8222 C   0  0  0  0  0  0  0  0  0  0  0  0
    9.9750    0.2052    2.6183 C   0  0  0  0  0  0  0  0  0  0  0  0
   10.8063    1.3212    2.5431 C   0  0  0  0  0  0  0  0  0  0  0  0
   11.8769    1.5201    3.3897 O   0  0  0  0  0  0  0  0  0  0  0  0
   11.7599    1.1019    4.7033 C   0  0  0  0  0  0  0  0  0  0  0  0
   10.5590    1.1983    5.4123 C   0  0  0  0  0  0  0  0  0  0  0  0
   10.5046    0.6688    6.6851 C   0  0  0  0  0  0  0  0  0  0  0  0
   11.5632    0.1170    7.3120 N   0  0  0  0  0  0  0  0  0  0  0  0
   12.7416    0.1050    6.6544 C   0  0  0  0  0  0  0  0  0  0  0  0
   13.7905   -0.4896    7.3586 N   0  0  0  0  0  0  0  0  0  0  0  0
   12.8885    0.5884    5.3479 C   0  0  0  0  0  0  0  0  0  0  0  0
   14.4301    0.5663    4.5632 Cl  0  0  0  0  0  0  0  0  0  0  0  0
   10.5531    2.2828    1.5666 C   0  0  0  0  0  0  0  0  0  0  0  0
   11.3910    3.3194    1.4104 F   0  0  0  0  0  0  0  0  0  0  0  0
    9.4201    2.2024    0.7478 C   0  0  0  0  0  0  0  0  0  0  0  0
    5.1640   -0.0017   -0.1186 C   0  0  0  0  0  0  0  0  0  0  0  0
    4.4109    1.2777   -0.1100 C   0  0  0  0  0  0  0  0  0  0  0  0
    5.0600    2.3245   -0.1643 O   0  0  0  0  0  0  0  0  0  0  0  0
    2.9906    1.2090   -0.0442 N   0  0  0  0  0  0  0  0  0  0  0  0
    2.2965    2.4635   -0.0618 C   0  0  0  0  0  0  0  0  0  0  0  0
    2.4748    3.3417   -1.1387 C   0  0  0  0  0  0  0  0  0  0  0  0
    1.8314    4.5800   -1.1577 C   0  0  0  0  0  0  0  0  0  0  0  0
    1.0163    4.9572   -0.0926 C   0  0  0  0  0  0  0  0  0  0  0  0
    0.8308    4.0906    0.9842 C   0  0  0  0  0  0  0  0  0  0  0  0
    1.4631    2.8438    0.9977 C   0  0  0  0  0  0  0  0  0  0  0  0
    0.4345   -1.0918   -0.1534 H   0  0  0  0  0  0  0  0  0  0  0  0
    0.4198    0.5026   -0.8872 H   0  0  0  0  0  0  0  0  0  0  0  0
    0.3641    0.3158    0.8901 H   0  0  0  0  0  0  0  0  0  0  0  0
    2.4696   -2.1348    0.0027 H   0  0  0  0  0  0  0  0  0  0  0  0
    4.5863   -3.3674   -0.1863 H   0  0  0  0  0  0  0  0  0  0  0  0
    7.0665   -3.3077   -0.3615 H   0  0  0  0  0  0  0  0  0  0  0  0
    6.9286    1.9486   -0.1712 H   0  0  0  0  0  0  0  0  0  0  0  0
    8.1666   -0.7082    1.9643 H   0  0  0  0  0  0  0  0  0  0  0  0
   10.1724   -0.6069    3.3119 H   0  0  0  0  0  0  0  0  0  0  0  0
    9.6681    1.6382    4.9761 H   0  0  0  0  0  0  0  0  0  0  0  0
    9.5747    0.6618    7.2474 H   0  0  0  0  0  0  0  0  0  0  0  0
   13.4584   -0.6859    8.2987 H   0  0  0  0  0  0  0  0  0  0  0  0
   14.6274    0.0825    7.3415 H   0  0  0  0  0  0  0  0  0  0  0  0
    9.2621    2.9704   -0.0010 H   0  0  0  0  0  0  0  0  0  0  0  0
    3.1125    3.0615   -1.9733 H   0  0  0  0  0  0  0  0  0  0  0  0
    1.9791    5.2528   -1.9982 H   0  0  0  0  0  0  0  0  0  0  0  0
    0.5361    5.9325   -0.0967 H   0  0  0  0  0  0  0  0  0  0  0  0
    0.2085    4.3945    1.8220 H   0  0  0  0  0  0  0  0  0  0  0  0
    1.3378    2.1986    1.8626 H   0  0  0  0  0  0  0  0  0  0  0  0
  1  2  1  0  0  0  0
  1 36  1  0  0  0  0
  1 37  1  0  0  0  0
  1 38  1  0  0  0  0
  2  3  2  0  0  0  0
  2 29  1  0  0  0  0
  3  4  1  0  0  0  0
  3 39  1  0  0  0  0
  4  5  1  0  0  0  0
  4 26  2  0  0  0  0
  5  6  2  0  0  0  0
  5 40  1  0  0  0  0
  6  7  1  0  0  0  0
  6 41  1  0  0  0  0
  7  8  2  0  0  0  0
  8  9  1  0  0  0  0
  8 26  1  0  0  0  0
  9 10  1  0  0  0  0
  9 42  1  0  0  0  0
 10 11  1  0  0  0  0
 10 25  2  0  0  0  0
 11 12  2  0  0  0  0
 11 43  1  0  0  0  0
 12 13  1  0  0  0  0
 12 44  1  0  0  0  0
 13 14  1  0  0  0  0
 13 23  2  0  0  0  0
 14 15  1  0  0  0  0
 15 16  1  0  0  0  0
 15 21  2  0  0  0  0
 16 17  2  0  0  0  0
 16 45  1  0  0  0  0
 17 18  1  0  0  0  0
 17 46  1  0  0  0  0
 18 19  2  0  0  0  0
 19 20  1  0  0  0  0
 19 21  1  0  0  0  0
 20 47  1  0  0  0  0
 20 48  1  0  0  0  0
 21 22  1  0  0  0  0
 23 24  1  0  0  0  0
 23 25  1  0  0  0  0
 25 49  1  0  0  0  0
 26 27  1  0  0  0  0
 27 28  2  0  0  0  0
 27 29  1  0  0  0  0
 29 30  1  0  0  0  0
 30 31  1  0  0  0  0
 30 35  2  0  0  0  0
 31 32  2  0  0  0  0
 31 50  1  0  0  0  0
 32 33  1  0  0  0  0
 32 51  1  0  0  0  0
 33 34  2  0  0  0  0
 33 52  1  0  0  0  0
 34 35  1  0  0  0  0
 34 53  1  0  0  0  0
 35 54  1  0  0  0  0
M  END
$$$$
