CHEMBL434180
 OpenBabel04072215383D

 66 71  0  0  0  0  0  0  0  0999 V2000
   -3.3656    4.4120    2.8382 C   0  0  0  0  0  0  0  0  0  0  0  0
   -2.4219    3.3283    3.0869 N   0  0  0  0  0  0  0  0  0  0  0  0
   -3.1079    2.1240    3.5820 C   0  0  0  0  0  0  0  0  0  0  0  0
   -2.0954    0.9876    3.8526 C   0  0  0  0  0  0  0  0  0  0  0  0
   -1.3135    0.5726    2.6669 N   0  0  0  0  0  0  0  0  0  0  0  0
   -2.1155   -0.1049    1.6330 C   0  0  0  0  0  0  0  0  0  0  0  0
   -2.7869   -1.3966    2.0733 C   0  0  0  0  0  0  0  0  0  0  0  0
   -2.1284   -2.6430    1.9227 C   0  0  0  0  0  0  0  0  0  0  0  0
   -2.7527   -3.8557    2.2624 C   0  0  0  0  0  0  0  0  0  0  0  0
   -4.0266   -3.7919    2.7819 C   0  0  0  0  0  0  0  0  0  0  0  0
   -4.6887   -2.5531    2.9868 C   0  0  0  0  0  0  0  0  0  0  0  0
   -4.0840   -1.3642    2.6160 C   0  0  0  0  0  0  0  0  0  0  0  0
   -6.0722   -2.7008    3.6416 C   0  0  0  0  0  0  0  0  0  0  0  0
   -6.0958   -4.1863    3.7128 C   0  0  0  0  0  0  0  0  0  0  0  0
   -6.9079   -5.2418    4.1816 C   0  0  0  0  0  0  0  0  0  0  0  0
   -8.2037   -5.1301    4.8663 C   0  0  0  0  0  0  0  0  0  0  0  0
   -9.0562   -4.0466    4.6095 C   0  0  0  0  0  0  0  0  0  0  0  0
  -10.2162   -3.8407    5.3689 C   0  0  0  0  0  0  0  0  0  0  0  0
  -10.5548   -4.7243    6.3913 C   0  0  0  0  0  0  0  0  0  0  0  0
  -11.6877   -4.4455    7.2310 C   0  0  0  0  0  0  0  0  0  0  0  0
  -12.6917   -4.1872    8.0218 C   0  0  0  0  0  0  0  0  0  0  0  0
  -13.8621   -3.8860    8.9436 C   0  0  0  0  0  0  0  0  0  0  0  0
  -14.8054   -4.9517    8.9077 O   0  0  0  0  0  0  0  0  0  0  0  0
  -15.8914   -4.8124    9.7336 C   0  0  0  0  0  0  0  0  0  0  0  0
  -16.1481   -3.7243   10.5729 C   0  0  0  0  0  0  0  0  0  0  0  0
  -17.2828   -3.7143   11.3892 C   0  0  0  0  0  0  0  0  0  0  0  0
  -18.1729   -4.7850   11.3643 C   0  0  0  0  0  0  0  0  0  0  0  0
  -17.9333   -5.8648   10.5175 C   0  0  0  0  0  0  0  0  0  0  0  0
  -16.7951   -5.8777    9.7073 C   0  0  0  0  0  0  0  0  0  0  0  0
   -9.7567   -5.8533    6.6050 C   0  0  0  0  0  0  0  0  0  0  0  0
   -8.5893   -6.0562    5.8455 C   0  0  0  0  0  0  0  0  0  0  0  0
   -6.2789   -6.4234    3.9689 N   0  0  0  0  0  0  0  0  0  0  0  0
   -5.0958   -6.1016    3.3765 N   0  0  0  0  0  0  0  0  0  0  0  0
   -4.9542   -4.7714    3.2365 C   0  0  0  0  0  0  0  0  0  0  0  0
   -0.6772    1.7963    2.1113 C   0  0  0  0  0  0  0  0  0  0  0  0
   -1.6352    2.9998    1.8839 C   0  0  0  0  0  0  0  0  0  0  0  0
   -3.9248    4.6494    3.7505 H   0  0  0  0  0  0  0  0  0  0  0  0
   -4.0850    4.1678    2.0488 H   0  0  0  0  0  0  0  0  0  0  0  0
   -2.8320    5.3248    2.5523 H   0  0  0  0  0  0  0  0  0  0  0  0
   -3.8697    1.7952    2.8650 H   0  0  0  0  0  0  0  0  0  0  0  0
   -3.6297    2.3512    4.5192 H   0  0  0  0  0  0  0  0  0  0  0  0
   -2.5989    0.1332    4.3156 H   0  0  0  0  0  0  0  0  0  0  0  0
   -1.3880    1.3325    4.6202 H   0  0  0  0  0  0  0  0  0  0  0  0
   -1.4534   -0.3588    0.7937 H   0  0  0  0  0  0  0  0  0  0  0  0
   -2.8807    0.5526    1.2031 H   0  0  0  0  0  0  0  0  0  0  0  0
   -1.1151   -2.6660    1.5236 H   0  0  0  0  0  0  0  0  0  0  0  0
   -2.2382   -4.7980    2.1221 H   0  0  0  0  0  0  0  0  0  0  0  0
   -4.6127   -0.4237    2.7459 H   0  0  0  0  0  0  0  0  0  0  0  0
   -6.8520   -2.2989    2.9897 H   0  0  0  0  0  0  0  0  0  0  0  0
   -6.0817   -2.2440    4.6348 H   0  0  0  0  0  0  0  0  0  0  0  0
   -8.8270   -3.3371    3.8187 H   0  0  0  0  0  0  0  0  0  0  0  0
  -10.8389   -2.9729    5.1656 H   0  0  0  0  0  0  0  0  0  0  0  0
  -14.3280   -2.9558    8.5964 H   0  0  0  0  0  0  0  0  0  0  0  0
  -13.4619   -3.7556    9.9564 H   0  0  0  0  0  0  0  0  0  0  0  0
  -15.4882   -2.8650   10.6234 H   0  0  0  0  0  0  0  0  0  0  0  0
  -17.4681   -2.8684   12.0463 H   0  0  0  0  0  0  0  0  0  0  0  0
  -19.0520   -4.7766   12.0034 H   0  0  0  0  0  0  0  0  0  0  0  0
  -18.6296   -6.6988   10.4892 H   0  0  0  0  0  0  0  0  0  0  0  0
  -16.6104   -6.7262    9.0530 H   0  0  0  0  0  0  0  0  0  0  0  0
  -10.0196   -6.5737    7.3761 H   0  0  0  0  0  0  0  0  0  0  0  0
   -7.9646   -6.9237    6.0499 H   0  0  0  0  0  0  0  0  0  0  0  0
   -4.4598   -6.8481    3.1212 H   0  0  0  0  0  0  0  0  0  0  0  0
   -0.1552    1.5617    1.1753 H   0  0  0  0  0  0  0  0  0  0  0  0
    0.1084    2.1125    2.8114 H   0  0  0  0  0  0  0  0  0  0  0  0
   -2.2998    2.7793    1.0386 H   0  0  0  0  0  0  0  0  0  0  0  0
   -1.0311    3.8696    1.5985 H   0  0  0  0  0  0  0  0  0  0  0  0
  1  2  1  0  0  0  0
  1 37  1  0  0  0  0
  1 38  1  0  0  0  0
  1 39  1  0  0  0  0
  2  3  1  0  0  0  0
  2 36  1  0  0  0  0
  3  4  1  0  0  0  0
  3 40  1  0  0  0  0
  3 41  1  0  0  0  0
  4  5  1  0  0  0  0
  4 42  1  0  0  0  0
  4 43  1  0  0  0  0
  5  6  1  0  0  0  0
  5 35  1  0  0  0  0
  6  7  1  0  0  0  0
  6 44  1  0  0  0  0
  6 45  1  0  0  0  0
  7  8  1  0  0  0  0
  7 12  2  0  0  0  0
  8  9  2  0  0  0  0
  8 46  1  0  0  0  0
  9 10  1  0  0  0  0
  9 47  1  0  0  0  0
 10 11  2  0  0  0  0
 10 34  1  0  0  0  0
 11 12  1  0  0  0  0
 11 13  1  0  0  0  0
 12 48  1  0  0  0  0
 13 14  1  0  0  0  0
 13 49  1  0  0  0  0
 13 50  1  0  0  0  0
 14 15  1  0  0  0  0
 14 34  2  0  0  0  0
 15 16  1  0  0  0  0
 15 32  2  0  0  0  0
 16 17  1  0  0  0  0
 16 31  2  0  0  0  0
 17 18  2  0  0  0  0
 17 51  1  0  0  0  0
 18 19  1  0  0  0  0
 18 52  1  0  0  0  0
 19 20  1  0  0  0  0
 19 30  2  0  0  0  0
 20 21  3  0  0  0  0
 21 22  1  0  0  0  0
 22 23  1  0  0  0  0
 22 53  1  0  0  0  0
 22 54  1  0  0  0  0
 23 24  1  0  0  0  0
 24 25  1  0  0  0  0
 24 29  2  0  0  0  0
 25 26  2  0  0  0  0
 25 55  1  0  0  0  0
 26 27  1  0  0  0  0
 26 56  1  0  0  0  0
 27 28  2  0  0  0  0
 27 57  1  0  0  0  0
 28 29  1  0  0  0  0
 28 58  1  0  0  0  0
 29 59  1  0  0  0  0
 30 31  1  0  0  0  0
 30 60  1  0  0  0  0
 31 61  1  0  0  0  0
 32 33  1  0  0  0  0
 33 34  1  0  0  0  0
 33 62  1  0  0  0  0
 35 36  1  0  0  0  0
 35 63  1  0  0  0  0
 35 64  1  0  0  0  0
 36 65  1  0  0  0  0
 36 66  1  0  0  0  0
M  END
$$$$
