CHEMBL3590221
 OpenBabel04072215363D

 58 62  0  0  0  0  0  0  0  0999 V2000
    1.6664    2.0255   -0.2432 C   0  0  0  0  0  0  0  0  0  0  0  0
    2.3664    2.2933    1.0183 N   0  0  0  0  0  0  0  0  0  0  0  0
    1.4179    2.2940    2.1304 C   0  0  0  0  0  0  0  0  0  0  0  0
    3.4386    1.2991    1.2622 C   0  0  0  0  0  0  0  0  0  0  0  0
    4.5343    1.3777    0.1826 C   0  0  0  0  0  0  0  0  0  0  0  0
    4.7410    0.4013   -0.5498 O   0  0  0  0  0  0  0  0  0  0  0  0
    5.2804    2.5443    0.0834 N   0  0  0  0  0  0  0  0  0  0  0  0
    6.0937    2.7611   -1.1180 C   0  0  0  0  0  0  0  0  0  0  0  0
    7.4390    3.3838   -0.7575 C   0  0  0  0  0  0  0  0  0  0  0  0
    7.2908    4.6385    0.0896 C   0  0  0  0  0  0  0  0  0  0  0  0
    6.9268    5.7841   -0.7424 N   0  0  0  0  0  0  0  0  0  0  0  0
    7.8794    6.6158   -1.2364 N   0  0  0  0  0  0  0  0  0  0  0  0
    7.1355    7.5727   -1.7959 C   0  0  0  0  0  0  0  0  0  0  0  0
    5.7592    7.2857   -1.6161 C   0  0  0  0  0  0  0  0  0  0  0  0
    4.5948    8.0939   -2.0324 C   0  0  0  0  0  0  0  0  0  0  0  0
    3.3073    7.5887   -1.9492 C   0  0  0  0  0  0  0  0  0  0  0  0
    2.2149    8.3297   -2.3041 N   0  0  0  0  0  0  0  0  0  0  0  0
    2.4289    9.6064   -2.7028 C   0  0  0  0  0  0  0  0  0  0  0  0
    1.2493   10.3016   -2.9127 N   0  0  0  0  0  0  0  0  0  0  0  0
    3.7300   10.1133   -2.8067 C   0  0  0  0  0  0  0  0  0  0  0  0
    3.9935   11.4849   -3.0208 N   0  0  0  0  0  0  0  0  0  0  0  0
    5.0956   12.0176   -2.4138 N   0  0  0  0  0  0  0  0  0  0  0  0
    4.8439   13.2857   -2.1749 N   0  0  0  0  0  0  0  0  0  0  0  0
    3.7764   13.6268   -2.9464 C   0  0  0  0  0  0  0  0  0  0  0  0
    3.1311   14.8523   -3.1167 C   0  0  0  0  0  0  0  0  0  0  0  0
    2.5118   15.0693   -4.3393 C   0  0  0  0  0  0  0  0  0  0  0  0
    2.0422   13.9688   -5.0441 C   0  0  0  0  0  0  0  0  0  0  0  0
    2.2914   12.6542   -4.6037 C   0  0  0  0  0  0  0  0  0  0  0  0
    3.2805   12.5220   -3.6298 C   0  0  0  0  0  0  0  0  0  0  0  0
    4.8261    9.3376   -2.4886 N   0  0  0  0  0  0  0  0  0  0  0  0
    5.6332    6.1189   -0.9583 N   0  0  0  0  0  0  0  0  0  0  0  0
    6.3295    4.4127    1.2825 C   0  0  0  0  0  0  0  0  0  0  0  0
    5.0167    3.7318    0.8903 C   0  0  0  0  0  0  0  0  0  0  0  0
    0.9045    2.7853   -0.4223 H   0  0  0  0  0  0  0  0  0  0  0  0
    1.1949    1.0386   -0.2516 H   0  0  0  0  0  0  0  0  0  0  0  0
    2.3596    2.0848   -1.0946 H   0  0  0  0  0  0  0  0  0  0  0  0
    0.6456    3.0556    1.9740 H   0  0  0  0  0  0  0  0  0  0  0  0
    1.9246    2.5534    3.0668 H   0  0  0  0  0  0  0  0  0  0  0  0
    0.9267    1.3233    2.2591 H   0  0  0  0  0  0  0  0  0  0  0  0
    3.0348    0.2796    1.2709 H   0  0  0  0  0  0  0  0  0  0  0  0
    3.9188    1.4578    2.2361 H   0  0  0  0  0  0  0  0  0  0  0  0
    5.5336    3.4137   -1.7958 H   0  0  0  0  0  0  0  0  0  0  0  0
    6.2487    1.8136   -1.6523 H   0  0  0  0  0  0  0  0  0  0  0  0
    8.0195    3.5500   -1.6689 H   0  0  0  0  0  0  0  0  0  0  0  0
    8.0001    2.6238   -0.1763 H   0  0  0  0  0  0  0  0  0  0  0  0
    8.2833    4.8809    0.4927 H   0  0  0  0  0  0  0  0  0  0  0  0
    7.6044    8.4107   -2.2817 H   0  0  0  0  0  0  0  0  0  0  0  0
    3.1117    6.5978   -1.5774 H   0  0  0  0  0  0  0  0  0  0  0  0
    0.4929    9.6450   -2.6895 H   0  0  0  0  0  0  0  0  0  0  0  0
    1.1779   11.1222   -2.3182 H   0  0  0  0  0  0  0  0  0  0  0  0
    2.9175   15.4785   -2.2630 H   0  0  0  0  0  0  0  0  0  0  0  0
    2.3401   16.0845   -4.6852 H   0  0  0  0  0  0  0  0  0  0  0  0
    1.4358   14.1414   -5.9302 H   0  0  0  0  0  0  0  0  0  0  0  0
    1.8334   11.8070   -5.1018 H   0  0  0  0  0  0  0  0  0  0  0  0
    6.1427    5.3651    1.8005 H   0  0  0  0  0  0  0  0  0  0  0  0
    6.8585    3.7563    1.9822 H   0  0  0  0  0  0  0  0  0  0  0  0
    4.3606    4.3915    0.3442 H   0  0  0  0  0  0  0  0  0  0  0  0
    4.5212    3.4852    1.8309 H   0  0  0  0  0  0  0  0  0  0  0  0
  1  2  1  0  0  0  0
  1 34  1  0  0  0  0
  1 35  1  0  0  0  0
  1 36  1  0  0  0  0
  2  3  1  0  0  0  0
  2  4  1  0  0  0  0
  3 37  1  0  0  0  0
  3 38  1  0  0  0  0
  3 39  1  0  0  0  0
  4  5  1  0  0  0  0
  4 40  1  0  0  0  0
  4 41  1  0  0  0  0
  5  6  2  0  0  0  0
  5  7  1  0  0  0  0
  7  8  1  0  0  0  0
  7 33  1  0  0  0  0
  8  9  1  0  0  0  0
  8 42  1  0  0  0  0
  8 43  1  0  0  0  0
  9 10  1  0  0  0  0
  9 44  1  0  0  0  0
  9 45  1  0  0  0  0
 10 11  1  0  0  0  0
 10 32  1  0  0  0  0
 10 46  1  0  0  0  0
 11 12  1  0  0  0  0
 11 31  1  0  0  0  0
 12 13  2  0  0  0  0
 13 14  1  0  0  0  0
 13 47  1  0  0  0  0
 14 15  1  0  0  0  0
 14 31  2  0  0  0  0
 15 16  1  0  0  0  0
 15 30  2  0  0  0  0
 16 17  2  0  0  0  0
 16 48  1  0  0  0  0
 17 18  1  0  0  0  0
 18 19  1  0  0  0  0
 18 20  2  0  0  0  0
 19 49  1  0  0  0  0
 19 50  1  0  0  0  0
 20 21  1  0  0  0  0
 20 30  1  0  0  0  0
 21 22  1  0  0  0  0
 21 29  1  0  0  0  0
 22 23  2  0  0  0  0
 23 24  1  0  0  0  0
 24 25  1  0  0  0  0
 24 29  2  0  0  0  0
 25 26  2  0  0  0  0
 25 51  1  0  0  0  0
 26 27  1  0  0  0  0
 26 52  1  0  0  0  0
 27 28  2  0  0  0  0
 27 53  1  0  0  0  0
 28 29  1  0  0  0  0
 28 54  1  0  0  0  0
 32 33  1  0  0  0  0
 32 55  1  0  0  0  0
 32 56  1  0  0  0  0
 33 57  1  0  0  0  0
 33 58  1  0  0  0  0
M  END
$$$$
