CHEMBL215411
 OpenBabel04072215363D

 86 90  0  0  0  0  0  0  0  0999 V2000
    0.7961    1.4691   -0.3765 C   0  0  0  0  0  0  0  0  0  0  0  0
    2.1824    1.1607   -0.2809 O   0  0  0  0  0  0  0  0  0  0  0  0
    2.8692    1.6349    0.8042 C   0  0  0  0  0  0  0  0  0  0  0  0
    2.3505    2.4215    1.8328 C   0  0  0  0  0  0  0  0  0  0  0  0
    3.1708    2.8458    2.8866 C   0  0  0  0  0  0  0  0  0  0  0  0
    4.5341    2.5007    2.9378 C   0  0  0  0  0  0  0  0  0  0  0  0
    5.3775    3.0020    3.9741 N   0  0  0  0  0  0  0  0  0  0  0  0
    6.5159    3.7762    3.7294 C   0  0  0  0  0  0  0  0  0  0  0  0
    7.4710    3.8465    4.5059 O   0  0  0  0  0  0  0  0  0  0  0  0
    6.4351    4.5097    2.5440 O   0  0  0  0  0  0  0  0  0  0  0  0
    7.0481    5.7851    2.3363 C   0  0  0  0  0  0  0  0  0  0  0  0
    6.9953    6.8375    3.2738 C   0  0  0  0  0  0  0  0  0  0  0  0
    6.5835    6.7617    4.7148 C   0  0  0  0  0  0  0  0  0  0  0  0
    7.3408    8.1334    2.8370 C   0  0  0  0  0  0  0  0  0  0  0  0
    7.7612    8.3798    1.5352 C   0  0  0  0  0  0  0  0  0  0  0  0
    7.8698    7.3257    0.6383 C   0  0  0  0  0  0  0  0  0  0  0  0
    7.5095    6.0189    1.0216 C   0  0  0  0  0  0  0  0  0  0  0  0
    7.6688    4.9115    0.0186 C   0  0  0  0  0  0  0  0  0  0  0  0
    4.8970    2.9311    5.3070 C   0  0  0  0  0  0  0  0  0  0  0  0
    4.7174    1.6918    5.8877 C   0  0  0  0  0  0  0  0  0  0  0  0
    4.2632    1.6858    7.1763 C   0  0  0  0  0  0  0  0  0  0  0  0
    3.9215    2.8011    7.8246 N   0  0  0  0  0  0  0  0  0  0  0  0
    4.1275    3.9702    7.2006 C   0  0  0  0  0  0  0  0  0  0  0  0
    3.8035    5.1413    7.8753 N   0  0  0  0  0  0  0  0  0  0  0  0
    2.7165    5.3802    8.7192 C   0  0  0  0  0  0  0  0  0  0  0  0
    1.5915    4.5407    8.7607 C   0  0  0  0  0  0  0  0  0  0  0  0
    0.5277    4.7819    9.6404 C   0  0  0  0  0  0  0  0  0  0  0  0
    0.5722    5.8630   10.5083 C   0  0  0  0  0  0  0  0  0  0  0  0
   -0.4013    6.2275   11.3911 O   0  0  0  0  0  0  0  0  0  0  0  0
   -1.5935    5.4372   11.3741 C   0  0  0  0  0  0  0  0  0  0  0  0
   -2.5578    6.0605   12.3761 C   0  0  0  0  0  0  0  0  0  0  0  0
   -3.8737    5.2854   12.4804 C   0  0  0  0  0  0  0  0  0  0  0  0
   -3.7122    3.8699   12.8580 N   0  0  0  0  0  0  0  0  0  0  0  0
   -3.1145    3.7224   14.1963 C   0  0  0  0  0  0  0  0  0  0  0  0
   -2.9186    2.2512   14.5603 C   0  0  0  0  0  0  0  0  0  0  0  0
   -4.2321    1.4874   14.4844 C   0  0  0  0  0  0  0  0  0  0  0  0
   -4.8814    1.6934   13.1218 C   0  0  0  0  0  0  0  0  0  0  0  0
   -5.0122    3.1802   12.7870 C   0  0  0  0  0  0  0  0  0  0  0  0
    1.7037    6.6757   10.4922 C   0  0  0  0  0  0  0  0  0  0  0  0
    1.8025    7.7279   11.3267 F   0  0  0  0  0  0  0  0  0  0  0  0
    2.7733    6.4423    9.6101 C   0  0  0  0  0  0  0  0  0  0  0  0
    4.6491    4.0782    5.9718 N   0  0  0  0  0  0  0  0  0  0  0  0
    5.0353    1.6575    1.9283 C   0  0  0  0  0  0  0  0  0  0  0  0
    6.3047    1.1270    1.9162 O   0  0  0  0  0  0  0  0  0  0  0  0
    6.6539    0.4686    3.1360 C   0  0  0  0  0  0  0  0  0  0  0  0
    4.2143    1.2593    0.8624 C   0  0  0  0  0  0  0  0  0  0  0  0
    0.3984    0.9600   -1.2626 H   0  0  0  0  0  0  0  0  0  0  0  0
    0.6381    2.5438   -0.5143 H   0  0  0  0  0  0  0  0  0  0  0  0
    0.2420    1.0955    0.4905 H   0  0  0  0  0  0  0  0  0  0  0  0
    1.3081    2.7372    1.8284 H   0  0  0  0  0  0  0  0  0  0  0  0
    2.7390    3.4995    3.6448 H   0  0  0  0  0  0  0  0  0  0  0  0
    6.4715    5.7645    5.1160 H   0  0  0  0  0  0  0  0  0  0  0  0
    5.6353    7.2849    4.8696 H   0  0  0  0  0  0  0  0  0  0  0  0
    7.3549    7.2406    5.3313 H   0  0  0  0  0  0  0  0  0  0  0  0
    7.2670    8.9720    3.5280 H   0  0  0  0  0  0  0  0  0  0  0  0
    8.0104    9.3922    1.2281 H   0  0  0  0  0  0  0  0  0  0  0  0
    8.2203    7.5309   -0.3705 H   0  0  0  0  0  0  0  0  0  0  0  0
    7.9368    5.3040   -0.9696 H   0  0  0  0  0  0  0  0  0  0  0  0
    6.7397    4.3472   -0.0967 H   0  0  0  0  0  0  0  0  0  0  0  0
    8.4750    4.2411    0.3336 H   0  0  0  0  0  0  0  0  0  0  0  0
    4.9760    0.7652    5.4074 H   0  0  0  0  0  0  0  0  0  0  0  0
    4.1666    0.7673    7.7456 H   0  0  0  0  0  0  0  0  0  0  0  0
    4.3364    5.9322    7.5470 H   0  0  0  0  0  0  0  0  0  0  0  0
    1.5157    3.6863    8.0923 H   0  0  0  0  0  0  0  0  0  0  0  0
   -0.3129    4.0995    9.6139 H   0  0  0  0  0  0  0  0  0  0  0  0
   -1.3570    4.4086   11.6614 H   0  0  0  0  0  0  0  0  0  0  0  0
   -2.0495    5.4563   10.3774 H   0  0  0  0  0  0  0  0  0  0  0  0
   -2.7709    7.0922   12.0717 H   0  0  0  0  0  0  0  0  0  0  0  0
   -2.0702    6.1528   13.3534 H   0  0  0  0  0  0  0  0  0  0  0  0
   -4.3615    5.3378   11.4983 H   0  0  0  0  0  0  0  0  0  0  0  0
   -4.5357    5.8010   13.1890 H   0  0  0  0  0  0  0  0  0  0  0  0
   -3.7352    4.2156   14.9555 H   0  0  0  0  0  0  0  0  0  0  0  0
   -2.1242    4.1884   14.2313 H   0  0  0  0  0  0  0  0  0  0  0  0
   -2.5004    2.1740   15.5701 H   0  0  0  0  0  0  0  0  0  0  0  0
   -2.1887    1.7984   13.8766 H   0  0  0  0  0  0  0  0  0  0  0  0
   -4.9077    1.8438   15.2716 H   0  0  0  0  0  0  0  0  0  0  0  0
   -4.0584    0.4211   14.6641 H   0  0  0  0  0  0  0  0  0  0  0  0
   -5.8710    1.2228   13.1098 H   0  0  0  0  0  0  0  0  0  0  0  0
   -4.2806    1.1946   12.3508 H   0  0  0  0  0  0  0  0  0  0  0  0
   -5.7360    3.6474   13.4676 H   0  0  0  0  0  0  0  0  0  0  0  0
   -5.4201    3.2624   11.7720 H   0  0  0  0  0  0  0  0  0  0  0  0
    3.6285    7.1005    9.6561 H   0  0  0  0  0  0  0  0  0  0  0  0
    7.3296   -0.3629    2.9168 H   0  0  0  0  0  0  0  0  0  0  0  0
    5.7836    0.0431    3.6433 H   0  0  0  0  0  0  0  0  0  0  0  0
    7.1932    1.1569    3.7905 H   0  0  0  0  0  0  0  0  0  0  0  0
    4.6217    0.6191    0.0812 H   0  0  0  0  0  0  0  0  0  0  0  0
  1  2  1  0  0  0  0
  1 47  1  0  0  0  0
  1 48  1  0  0  0  0
  1 49  1  0  0  0  0
  2  3  1  0  0  0  0
  3  4  1  0  0  0  0
  3 46  2  0  0  0  0
  4  5  2  0  0  0  0
  4 50  1  0  0  0  0
  5  6  1  0  0  0  0
  5 51  1  0  0  0  0
  6  7  1  0  0  0  0
  6 43  2  0  0  0  0
  7  8  1  0  0  0  0
  7 19  1  0  0  0  0
  8  9  2  0  0  0  0
  8 10  1  0  0  0  0
 10 11  1  0  0  0  0
 11 12  1  0  0  0  0
 11 17  2  0  0  0  0
 12 13  1  0  0  0  0
 12 14  2  0  0  0  0
 13 52  1  0  0  0  0
 13 53  1  0  0  0  0
 13 54  1  0  0  0  0
 14 15  1  0  0  0  0
 14 55  1  0  0  0  0
 15 16  2  0  0  0  0
 15 56  1  0  0  0  0
 16 17  1  0  0  0  0
 16 57  1  0  0  0  0
 17 18  1  0  0  0  0
 18 58  1  0  0  0  0
 18 59  1  0  0  0  0
 18 60  1  0  0  0  0
 19 20  1  0  0  0  0
 19 42  2  0  0  0  0
 20 21  2  0  0  0  0
 20 61  1  0  0  0  0
 21 22  1  0  0  0  0
 21 62  1  0  0  0  0
 22 23  2  0  0  0  0
 23 24  1  0  0  0  0
 23 42  1  0  0  0  0
 24 25  1  0  0  0  0
 24 63  1  0  0  0  0
 25 26  1  0  0  0  0
 25 41  2  0  0  0  0
 26 27  2  0  0  0  0
 26 64  1  0  0  0  0
 27 28  1  0  0  0  0
 27 65  1  0  0  0  0
 28 29  1  0  0  0  0
 28 39  2  0  0  0  0
 29 30  1  0  0  0  0
 30 31  1  0  0  0  0
 30 66  1  0  0  0  0
 30 67  1  0  0  0  0
 31 32  1  0  0  0  0
 31 68  1  0  0  0  0
 31 69  1  0  0  0  0
 32 33  1  0  0  0  0
 32 70  1  0  0  0  0
 32 71  1  0  0  0  0
 33 34  1  0  0  0  0
 33 38  1  0  0  0  0
 34 35  1  0  0  0  0
 34 72  1  0  0  0  0
 34 73  1  0  0  0  0
 35 36  1  0  0  0  0
 35 74  1  0  0  0  0
 35 75  1  0  0  0  0
 36 37  1  0  0  0  0
 36 76  1  0  0  0  0
 36 77  1  0  0  0  0
 37 38  1  0  0  0  0
 37 78  1  0  0  0  0
 37 79  1  0  0  0  0
 38 80  1  0  0  0  0
 38 81  1  0  0  0  0
 39 40  1  0  0  0  0
 39 41  1  0  0  0  0
 41 82  1  0  0  0  0
 43 44  1  0  0  0  0
 43 46  1  0  0  0  0
 44 45  1  0  0  0  0
 45 83  1  0  0  0  0
 45 84  1  0  0  0  0
 45 85  1  0  0  0  0
 46 86  1  0  0  0  0
M  END
$$$$
