CHEMBL117697
 OpenBabel04072215363D

 32 34  0  0  0  0  0  0  0  0999 V2000
    1.7767   -0.8674   -0.2867 C   0  0  0  0  0  0  0  0  0  0  0  0
    3.0144   -0.2184   -0.0272 O   0  0  0  0  0  0  0  0  0  0  0  0
    3.4287   -0.1633    1.2758 C   0  0  0  0  0  0  0  0  0  0  0  0
    2.7315   -0.6377    2.3831 C   0  0  0  0  0  0  0  0  0  0  0  0
    3.2888   -0.5066    3.6576 C   0  0  0  0  0  0  0  0  0  0  0  0
    4.5471    0.0841    3.8281 C   0  0  0  0  0  0  0  0  0  0  0  0
    5.2803    0.5309    2.7277 C   0  0  0  0  0  0  0  0  0  0  0  0
    6.5274    1.1910    2.8275 N   0  0  0  0  0  0  0  0  0  0  0  0
    7.5281    1.1143    3.8354 C   0  0  0  0  0  0  0  0  0  0  0  0
    7.4286    0.1952    4.8108 N   0  0  0  0  0  0  0  0  0  0  0  0
    8.4216    0.1560    5.7045 C   0  0  0  0  0  0  0  0  0  0  0  0
    9.5021    0.9436    5.7264 N   0  0  0  0  0  0  0  0  0  0  0  0
    9.5857    1.8705    4.7696 C   0  0  0  0  0  0  0  0  0  0  0  0
   10.6813    2.7255    4.7674 C   0  0  0  0  0  0  0  0  0  0  0  0
   10.8344    3.7336    3.8114 C   0  0  0  0  0  0  0  0  0  0  0  0
    9.8748    3.8932    2.8223 C   0  0  0  0  0  0  0  0  0  0  0  0
    8.7720    3.0431    2.7984 C   0  0  0  0  0  0  0  0  0  0  0  0
    8.6121    2.0196    3.7718 C   0  0  0  0  0  0  0  0  0  0  0  0
    4.6810    0.4325    1.4602 C   0  0  0  0  0  0  0  0  0  0  0  0
    1.6582   -0.9340   -1.3729 H   0  0  0  0  0  0  0  0  0  0  0  0
    0.9416   -0.2798    0.1075 H   0  0  0  0  0  0  0  0  0  0  0  0
    1.7645   -1.8887    0.1076 H   0  0  0  0  0  0  0  0  0  0  0  0
    1.7547   -1.0992    2.2939 H   0  0  0  0  0  0  0  0  0  0  0  0
    2.7412   -0.8624    4.5266 H   0  0  0  0  0  0  0  0  0  0  0  0
    4.9404    0.1891    4.8351 H   0  0  0  0  0  0  0  0  0  0  0  0
    6.9842    1.2165    1.9229 H   0  0  0  0  0  0  0  0  0  0  0  0
    8.3435   -0.5876    6.4899 H   0  0  0  0  0  0  0  0  0  0  0  0
   11.4390    2.6092    5.5400 H   0  0  0  0  0  0  0  0  0  0  0  0
   11.6971    4.3933    3.8508 H   0  0  0  0  0  0  0  0  0  0  0  0
    9.9780    4.6793    2.0790 H   0  0  0  0  0  0  0  0  0  0  0  0
    8.0219    3.1945    2.0255 H   0  0  0  0  0  0  0  0  0  0  0  0
    5.1968    0.8164    0.5838 H   0  0  0  0  0  0  0  0  0  0  0  0
  1  2  1  0  0  0  0
  1 20  1  0  0  0  0
  1 21  1  0  0  0  0
  1 22  1  0  0  0  0
  2  3  1  0  0  0  0
  3  4  1  0  0  0  0
  3 19  2  0  0  0  0
  4  5  2  0  0  0  0
  4 23  1  0  0  0  0
  5  6  1  0  0  0  0
  5 24  1  0  0  0  0
  6  7  2  0  0  0  0
  6 25  1  0  0  0  0
  7  8  1  0  0  0  0
  7 19  1  0  0  0  0
  8  9  1  0  0  0  0
  8 26  1  0  0  0  0
  9 10  1  0  0  0  0
  9 18  2  0  0  0  0
 10 11  2  0  0  0  0
 11 12  1  0  0  0  0
 11 27  1  0  0  0  0
 12 13  2  0  0  0  0
 13 14  1  0  0  0  0
 13 18  1  0  0  0  0
 14 15  2  0  0  0  0
 14 28  1  0  0  0  0
 15 16  1  0  0  0  0
 15 29  1  0  0  0  0
 16 17  2  0  0  0  0
 16 30  1  0  0  0  0
 17 18  1  0  0  0  0
 17 31  1  0  0  0  0
 19 32  1  0  0  0  0
M  END
$$$$
