CHEMBL452522
 OpenBabel04072215383D

 52 56  0  0  0  0  0  0  0  0999 V2000
    2.3951   -0.3800    1.4947 C   0  0  0  0  0  0  0  0  0  0  0  0
    0.8973   -0.3063    1.4520 C   0  0  0  0  0  0  0  0  0  0  0  0
    0.2659    0.8801    1.8536 C   0  0  0  0  0  0  0  0  0  0  0  0
   -1.1135    0.9785    1.8149 C   0  0  0  0  0  0  0  0  0  0  0  0
   -1.8798   -0.0964    1.3804 C   0  0  0  0  0  0  0  0  0  0  0  0
   -1.2932   -1.3022    0.9671 C   0  0  0  0  0  0  0  0  0  0  0  0
   -2.0659   -2.4162    0.5188 N   0  0  0  0  0  0  0  0  0  0  0  0
   -3.4530   -2.4303    0.3904 C   0  0  0  0  0  0  0  0  0  0  0  0
   -4.1920   -1.4787    0.6217 O   0  0  0  0  0  0  0  0  0  0  0  0
   -3.9590   -3.6704    0.0039 N   0  0  0  0  0  0  0  0  0  0  0  0
   -5.3705   -3.8068   -0.1199 C   0  0  0  0  0  0  0  0  0  0  0  0
   -6.1151   -2.9383   -0.9321 C   0  0  0  0  0  0  0  0  0  0  0  0
   -7.5090   -3.0002   -0.9660 C   0  0  0  0  0  0  0  0  0  0  0  0
   -8.1923   -3.9261   -0.1713 C   0  0  0  0  0  0  0  0  0  0  0  0
   -9.6572   -3.9381   -0.1369 C   0  0  0  0  0  0  0  0  0  0  0  0
  -10.3863   -3.1097    0.8778 C   0  0  0  0  0  0  0  0  0  0  0  0
  -11.6727   -3.0279    1.0433 N   0  0  0  0  0  0  0  0  0  0  0  0
  -12.4359   -3.7841    0.1955 C   0  0  0  0  0  0  0  0  0  0  0  0
  -13.8010   -3.9646    0.0787 C   0  0  0  0  0  0  0  0  0  0  0  0
  -14.8845   -3.3535    0.8607 C   0  0  0  0  0  0  0  0  0  0  0  0
  -16.2710   -3.6357    0.6497 C   0  0  0  0  0  0  0  0  0  0  0  0
  -17.0871   -2.9388    1.5161 C   0  0  0  0  0  0  0  0  0  0  0  0
  -16.1942   -1.9407    2.5770 S   0  0  0  0  0  0  0  0  0  0  0  0
  -14.7125   -2.4407    1.8818 C   0  0  0  0  0  0  0  0  0  0  0  0
  -13.9569   -4.8937   -0.9658 C   0  0  0  0  0  0  0  0  0  0  0  0
  -12.7974   -5.2852   -1.4975 N   0  0  0  0  0  0  0  0  0  0  0  0
  -11.8534   -4.5833   -0.7981 N   0  0  0  0  0  0  0  0  0  0  0  0
  -10.4442   -4.6472   -0.9767 C   0  0  0  0  0  0  0  0  0  0  0  0
   -9.9747   -5.4655   -2.0087 N   0  0  0  0  0  0  0  0  0  0  0  0
   -7.4490   -4.8178    0.6161 C   0  0  0  0  0  0  0  0  0  0  0  0
   -6.0462   -4.7724    0.6278 C   0  0  0  0  0  0  0  0  0  0  0  0
    0.1090   -1.3938    1.0075 C   0  0  0  0  0  0  0  0  0  0  0  0
    2.8263    0.5505    1.8824 H   0  0  0  0  0  0  0  0  0  0  0  0
    2.8000   -0.5351    0.4925 H   0  0  0  0  0  0  0  0  0  0  0  0
    2.7209   -1.1892    2.1572 H   0  0  0  0  0  0  0  0  0  0  0  0
    0.8482    1.7313    2.1972 H   0  0  0  0  0  0  0  0  0  0  0  0
   -1.6086    1.8982    2.1228 H   0  0  0  0  0  0  0  0  0  0  0  0
   -2.9510    0.0563    1.3752 H   0  0  0  0  0  0  0  0  0  0  0  0
   -1.5589   -3.2237    0.1934 H   0  0  0  0  0  0  0  0  0  0  0  0
   -3.4707   -4.4567    0.4050 H   0  0  0  0  0  0  0  0  0  0  0  0
   -5.6019   -2.1817   -1.5307 H   0  0  0  0  0  0  0  0  0  0  0  0
   -8.0555   -2.2984   -1.5975 H   0  0  0  0  0  0  0  0  0  0  0  0
   -9.7427   -2.5101    1.5448 H   0  0  0  0  0  0  0  0  0  0  0  0
  -16.6704   -4.3134   -0.0937 H   0  0  0  0  0  0  0  0  0  0  0  0
  -18.1664   -2.9661    1.5763 H   0  0  0  0  0  0  0  0  0  0  0  0
  -13.7851   -2.0350    2.2625 H   0  0  0  0  0  0  0  0  0  0  0  0
  -14.8693   -5.3145   -1.3686 H   0  0  0  0  0  0  0  0  0  0  0  0
  -10.6747   -6.1542   -2.2916 H   0  0  0  0  0  0  0  0  0  0  0  0
   -9.0448   -5.8454   -1.8590 H   0  0  0  0  0  0  0  0  0  0  0  0
   -7.9612   -5.5343    1.2568 H   0  0  0  0  0  0  0  0  0  0  0  0
   -5.5052   -5.4369    1.2944 H   0  0  0  0  0  0  0  0  0  0  0  0
    0.6114   -2.3078    0.6987 H   0  0  0  0  0  0  0  0  0  0  0  0
  1  2  1  0  0  0  0
  1 33  1  0  0  0  0
  1 34  1  0  0  0  0
  1 35  1  0  0  0  0
  2  3  1  0  0  0  0
  2 32  2  0  0  0  0
  3  4  2  0  0  0  0
  3 36  1  0  0  0  0
  4  5  1  0  0  0  0
  4 37  1  0  0  0  0
  5  6  2  0  0  0  0
  5 38  1  0  0  0  0
  6  7  1  0  0  0  0
  6 32  1  0  0  0  0
  7  8  1  0  0  0  0
  7 39  1  0  0  0  0
  8  9  2  0  0  0  0
  8 10  1  0  0  0  0
 10 11  1  0  0  0  0
 10 40  1  0  0  0  0
 11 12  1  0  0  0  0
 11 31  2  0  0  0  0
 12 13  2  0  0  0  0
 12 41  1  0  0  0  0
 13 14  1  0  0  0  0
 13 42  1  0  0  0  0
 14 15  1  0  0  0  0
 14 30  2  0  0  0  0
 15 16  1  0  0  0  0
 15 28  2  0  0  0  0
 16 17  2  0  0  0  0
 16 43  1  0  0  0  0
 17 18  1  0  0  0  0
 18 19  2  0  0  0  0
 18 27  1  0  0  0  0
 19 20  1  0  0  0  0
 19 25  1  0  0  0  0
 20 21  1  0  0  0  0
 20 24  2  0  0  0  0
 21 22  2  0  0  0  0
 21 44  1  0  0  0  0
 22 23  1  0  0  0  0
 22 45  1  0  0  0  0
 23 24  1  0  0  0  0
 24 46  1  0  0  0  0
 25 26  2  0  0  0  0
 25 47  1  0  0  0  0
 26 27  1  0  0  0  0
 27 28  1  0  0  0  0
 28 29  1  0  0  0  0
 29 48  1  0  0  0  0
 29 49  1  0  0  0  0
 30 31  1  0  0  0  0
 30 50  1  0  0  0  0
 31 51  1  0  0  0  0
 32 52  1  0  0  0  0
M  END
$$$$
