CHEMBL373826
 OpenBabel04072215373D

 46 48  0  0  0  0  0  0  0  0999 V2000
    1.1170   -1.0150   -0.1150 C   0  0  0  0  0  0  0  0  0  0  0  0
    2.6290   -1.1168   -0.2533 C   0  0  0  0  0  0  0  0  0  0  0  0
    3.1159   -0.4676   -1.5492 C   0  0  0  0  0  0  0  0  0  0  0  0
    4.6315   -0.5493   -1.6980 C   0  0  0  0  0  0  0  0  0  0  0  0
    5.0156    0.1152   -2.9098 O   0  0  0  0  0  0  0  0  0  0  0  0
    6.4116    0.0472   -3.0217 N   0  0  0  0  0  0  0  0  0  0  0  0
    6.8080    0.6686   -4.0903 C   0  0  0  0  0  0  0  0  0  0  0  0
    8.2386    0.7389   -4.4370 C   0  0  0  0  0  0  0  0  0  0  0  0
    9.1545   -0.1918   -3.9603 C   0  0  0  0  0  0  0  0  0  0  0  0
    8.7701   -1.3527   -3.2895 N   0  0  0  0  0  0  0  0  0  0  0  0
   10.4726   -0.1203   -4.2201 N   0  0  0  0  0  0  0  0  0  0  0  0
   10.8788    0.9195   -4.9573 C   0  0  0  0  0  0  0  0  0  0  0  0
   10.0938    1.8681   -5.4665 N   0  0  0  0  0  0  0  0  0  0  0  0
    8.7684    1.7453   -5.2241 C   0  0  0  0  0  0  0  0  0  0  0  0
    7.9170    2.7005   -5.7786 O   0  0  0  0  0  0  0  0  0  0  0  0
    8.3845    3.4282   -6.8611 C   0  0  0  0  0  0  0  0  0  0  0  0
    9.0513    2.8310   -7.9368 C   0  0  0  0  0  0  0  0  0  0  0  0
    9.5095    3.5825   -9.0241 C   0  0  0  0  0  0  0  0  0  0  0  0
    9.2003    4.9471   -9.0427 C   0  0  0  0  0  0  0  0  0  0  0  0
    9.4666    5.8994   -9.9986 N   0  0  0  0  0  0  0  0  0  0  0  0
    8.8008    7.0628   -9.7030 C   0  0  0  0  0  0  0  0  0  0  0  0
    8.6840    8.1691  -10.6856 C   0  0  0  0  0  0  0  0  0  0  0  0
    8.2890    6.9243   -8.4274 C   0  0  0  0  0  0  0  0  0  0  0  0
    8.4874    5.5720   -8.0187 C   0  0  0  0  0  0  0  0  0  0  0  0
    8.0932    4.7997   -6.9036 C   0  0  0  0  0  0  0  0  0  0  0  0
    7.4017    5.3687   -5.9009 F   0  0  0  0  0  0  0  0  0  0  0  0
    0.7865   -1.4861    0.8162 H   0  0  0  0  0  0  0  0  0  0  0  0
    0.6122   -1.5168   -0.9467 H   0  0  0  0  0  0  0  0  0  0  0  0
    0.7944    0.0311   -0.0983 H   0  0  0  0  0  0  0  0  0  0  0  0
    2.9211   -2.1731   -0.2301 H   0  0  0  0  0  0  0  0  0  0  0  0
    3.1004   -0.6314    0.6092 H   0  0  0  0  0  0  0  0  0  0  0  0
    2.8056    0.5833   -1.5829 H   0  0  0  0  0  0  0  0  0  0  0  0
    2.6417   -0.9502   -2.4124 H   0  0  0  0  0  0  0  0  0  0  0  0
    4.9540   -1.5964   -1.7400 H   0  0  0  0  0  0  0  0  0  0  0  0
    5.1236   -0.0596   -0.8493 H   0  0  0  0  0  0  0  0  0  0  0  0
    6.0855    1.1735   -4.7557 H   0  0  0  0  0  0  0  0  0  0  0  0
    8.0362   -1.1659   -2.6062 H   0  0  0  0  0  0  0  0  0  0  0  0
    9.5908   -1.8204   -2.9124 H   0  0  0  0  0  0  0  0  0  0  0  0
   11.9388    0.9866   -5.1745 H   0  0  0  0  0  0  0  0  0  0  0  0
    9.2447    1.7598   -7.9400 H   0  0  0  0  0  0  0  0  0  0  0  0
   10.0617    3.1152   -9.8333 H   0  0  0  0  0  0  0  0  0  0  0  0
    9.9831    5.7242  -10.8505 H   0  0  0  0  0  0  0  0  0  0  0  0
    9.2332    7.9501  -11.6078 H   0  0  0  0  0  0  0  0  0  0  0  0
    9.0609    9.1087  -10.2739 H   0  0  0  0  0  0  0  0  0  0  0  0
    7.6308    8.3066  -10.9560 H   0  0  0  0  0  0  0  0  0  0  0  0
    7.7371    7.6803   -7.8825 H   0  0  0  0  0  0  0  0  0  0  0  0
  1  2  1  0  0  0  0
  1 27  1  0  0  0  0
  1 28  1  0  0  0  0
  1 29  1  0  0  0  0
  2  3  1  0  0  0  0
  2 30  1  0  0  0  0
  2 31  1  0  0  0  0
  3  4  1  0  0  0  0
  3 32  1  0  0  0  0
  3 33  1  0  0  0  0
  4  5  1  0  0  0  0
  4 34  1  0  0  0  0
  4 35  1  0  0  0  0
  5  6  1  0  0  0  0
  6  7  2  0  0  0  0
  7  8  1  0  0  0  0
  7 36  1  0  0  0  0
  8  9  1  0  0  0  0
  8 14  2  0  0  0  0
  9 10  1  0  0  0  0
  9 11  2  0  0  0  0
 10 37  1  0  0  0  0
 10 38  1  0  0  0  0
 11 12  1  0  0  0  0
 12 13  2  0  0  0  0
 12 39  1  0  0  0  0
 13 14  1  0  0  0  0
 14 15  1  0  0  0  0
 15 16  1  0  0  0  0
 16 17  1  0  0  0  0
 16 25  2  0  0  0  0
 17 18  2  0  0  0  0
 17 40  1  0  0  0  0
 18 19  1  0  0  0  0
 18 41  1  0  0  0  0
 19 20  1  0  0  0  0
 19 24  2  0  0  0  0
 20 21  1  0  0  0  0
 20 42  1  0  0  0  0
 21 22  1  0  0  0  0
 21 23  2  0  0  0  0
 22 43  1  0  0  0  0
 22 44  1  0  0  0  0
 22 45  1  0  0  0  0
 23 24  1  0  0  0  0
 23 46  1  0  0  0  0
 24 25  1  0  0  0  0
 25 26  1  0  0  0  0
M  END
$$$$
