CHEMBL3944202
 OpenBabel04072215373D

 49 52  0  0  0  0  0  0  0  0999 V2000
    2.3277   -1.1340    2.9551 C   0  0  0  0  0  0  0  0  0  0  0  0
    0.9011   -0.8371    2.5963 C   0  0  0  0  0  0  0  0  0  0  0  0
    0.3512    0.4051    2.9339 C   0  0  0  0  0  0  0  0  0  0  0  0
   -0.9632    0.6958    2.6110 C   0  0  0  0  0  0  0  0  0  0  0  0
   -1.7466   -0.2631    1.9663 C   0  0  0  0  0  0  0  0  0  0  0  0
   -1.2435   -1.5275    1.6451 C   0  0  0  0  0  0  0  0  0  0  0  0
   -2.0477   -2.5490    1.0556 N   0  0  0  0  0  0  0  0  0  0  0  0
   -3.4212   -2.5029    0.9957 C   0  0  0  0  0  0  0  0  0  0  0  0
   -4.1165   -1.5841    1.4483 O   0  0  0  0  0  0  0  0  0  0  0  0
   -4.0095   -3.6166    0.4091 N   0  0  0  0  0  0  0  0  0  0  0  0
   -5.4145   -3.6307    0.2156 C   0  0  0  0  0  0  0  0  0  0  0  0
   -6.0759   -2.5248   -0.3375 C   0  0  0  0  0  0  0  0  0  0  0  0
   -7.4518   -2.5500   -0.6048 C   0  0  0  0  0  0  0  0  0  0  0  0
   -8.1888   -3.7100   -0.3676 C   0  0  0  0  0  0  0  0  0  0  0  0
   -9.4471   -4.0053   -1.1868 C   0  0  0  0  0  0  0  0  0  0  0  0
   -9.7960   -5.3453   -1.4702 C   0  0  0  0  0  0  0  0  0  0  0  0
   -8.8713   -5.6339   -2.5433 C   0  0  0  0  0  0  0  0  0  0  0  0
   -8.1082   -6.7456   -2.9104 C   0  0  0  0  0  0  0  0  0  0  0  0
   -7.1472   -6.5828   -3.9187 C   0  0  0  0  0  0  0  0  0  0  0  0
   -7.0221   -5.3793   -4.6185 C   0  0  0  0  0  0  0  0  0  0  0  0
   -7.8223   -4.2771   -4.3126 C   0  0  0  0  0  0  0  0  0  0  0  0
   -8.6714   -4.4207   -3.2149 C   0  0  0  0  0  0  0  0  0  0  0  0
   -9.4873   -3.5325   -2.5319 N   0  0  0  0  0  0  0  0  0  0  0  0
  -10.1215   -2.4058   -3.0728 C   0  0  0  0  0  0  0  0  0  0  0  0
  -11.3960   -2.2535   -2.6036 N   0  0  0  0  0  0  0  0  0  0  0  0
   -9.6334   -1.7717   -3.9940 O   0  0  0  0  0  0  0  0  0  0  0  0
   -7.5433   -4.7654    0.3217 C   0  0  0  0  0  0  0  0  0  0  0  0
   -6.1604   -4.7486    0.5638 C   0  0  0  0  0  0  0  0  0  0  0  0
    0.1037   -1.7963    1.9379 C   0  0  0  0  0  0  0  0  0  0  0  0
    2.7842   -0.2953    3.4942 H   0  0  0  0  0  0  0  0  0  0  0  0
    2.9188   -1.3093    2.0518 H   0  0  0  0  0  0  0  0  0  0  0  0
    2.3806   -2.0108    3.6074 H   0  0  0  0  0  0  0  0  0  0  0  0
    0.9438    1.1575    3.4496 H   0  0  0  0  0  0  0  0  0  0  0  0
   -1.3988    1.6581    2.8615 H   0  0  0  0  0  0  0  0  0  0  0  0
   -2.7602    0.0341    1.7215 H   0  0  0  0  0  0  0  0  0  0  0  0
   -1.5794   -3.3800    0.7359 H   0  0  0  0  0  0  0  0  0  0  0  0
   -3.5541   -4.4975    0.5754 H   0  0  0  0  0  0  0  0  0  0  0  0
   -5.5062   -1.6396   -0.6332 H   0  0  0  0  0  0  0  0  0  0  0  0
   -7.8936   -1.6918   -1.1111 H   0  0  0  0  0  0  0  0  0  0  0  0
  -10.0462   -6.0766   -0.7077 H   0  0  0  0  0  0  0  0  0  0  0  0
   -8.1734   -7.6693   -2.3527 H   0  0  0  0  0  0  0  0  0  0  0  0
   -6.4686   -7.4012   -4.1414 H   0  0  0  0  0  0  0  0  0  0  0  0
   -6.2692   -5.2810   -5.3949 H   0  0  0  0  0  0  0  0  0  0  0  0
   -7.7139   -3.3281   -4.8323 H   0  0  0  0  0  0  0  0  0  0  0  0
  -11.8651   -3.0364   -2.1647 H   0  0  0  0  0  0  0  0  0  0  0  0
  -11.9791   -1.6623   -3.1859 H   0  0  0  0  0  0  0  0  0  0  0  0
   -8.0828   -5.6788    0.5661 H   0  0  0  0  0  0  0  0  0  0  0  0
   -5.6930   -5.6155    1.0272 H   0  0  0  0  0  0  0  0  0  0  0  0
    0.5380   -2.7614    1.6915 H   0  0  0  0  0  0  0  0  0  0  0  0
  1  2  1  0  0  0  0
  1 30  1  0  0  0  0
  1 31  1  0  0  0  0
  1 32  1  0  0  0  0
  2  3  1  0  0  0  0
  2 29  2  0  0  0  0
  3  4  2  0  0  0  0
  3 33  1  0  0  0  0
  4  5  1  0  0  0  0
  4 34  1  0  0  0  0
  5  6  2  0  0  0  0
  5 35  1  0  0  0  0
  6  7  1  0  0  0  0
  6 29  1  0  0  0  0
  7  8  1  0  0  0  0
  7 36  1  0  0  0  0
  8  9  2  0  0  0  0
  8 10  1  0  0  0  0
 10 11  1  0  0  0  0
 10 37  1  0  0  0  0
 11 12  1  0  0  0  0
 11 28  2  0  0  0  0
 12 13  2  0  0  0  0
 12 38  1  0  0  0  0
 13 14  1  0  0  0  0
 13 39  1  0  0  0  0
 14 15  1  0  0  0  0
 14 27  2  0  0  0  0
 15 16  2  0  0  0  0
 15 23  1  0  0  0  0
 16 17  1  0  0  0  0
 16 40  1  0  0  0  0
 17 18  1  0  0  0  0
 17 22  2  0  0  0  0
 18 19  2  0  0  0  0
 18 41  1  0  0  0  0
 19 20  1  0  0  0  0
 19 42  1  0  0  0  0
 20 21  2  0  0  0  0
 20 43  1  0  0  0  0
 21 22  1  0  0  0  0
 21 44  1  0  0  0  0
 22 23  1  0  0  0  0
 23 24  1  0  0  0  0
 24 25  1  0  0  0  0
 24 26  2  0  0  0  0
 25 45  1  0  0  0  0
 25 46  1  0  0  0  0
 27 28  1  0  0  0  0
 27 47  1  0  0  0  0
 28 48  1  0  0  0  0
 29 49  1  0  0  0  0
M  END
$$$$
