CHEMBL1076474
 OpenBabel04072215353D

 75 80  0  0  0  0  0  0  0  0999 V2000
   -0.4794   -1.7037    2.0614 C   0  0  0  0  0  0  0  0  0  0  0  0
    0.2791   -0.6560    1.2839 C   0  0  0  0  0  0  0  0  0  0  0  0
   -0.0005    0.6820    1.5545 C   0  0  0  0  0  0  0  0  0  0  0  0
    0.6415    1.6845    0.8413 C   0  0  0  0  0  0  0  0  0  0  0  0
    1.5949    1.3747   -0.1314 C   0  0  0  0  0  0  0  0  0  0  0  0
    2.2664    2.3862   -0.8614 N   0  0  0  0  0  0  0  0  0  0  0  0
    1.8960    3.7275   -0.9269 C   0  0  0  0  0  0  0  0  0  0  0  0
    0.8600    4.1983   -0.4631 O   0  0  0  0  0  0  0  0  0  0  0  0
    2.8072    4.6758   -1.6447 C   0  0  0  0  0  0  0  0  0  0  0  0
    4.0764    4.3282   -2.1184 C   0  0  0  0  0  0  0  0  0  0  0  0
    4.8758    5.2849   -2.7522 C   0  0  0  0  0  0  0  0  0  0  0  0
    4.4202    6.5936   -2.9205 C   0  0  0  0  0  0  0  0  0  0  0  0
    3.1528    6.9676   -2.4596 C   0  0  0  0  0  0  0  0  0  0  0  0
    2.6306    8.3720   -2.6488 C   0  0  0  0  0  0  0  0  0  0  0  0
    3.4990    9.1867   -3.3125 F   0  0  0  0  0  0  0  0  0  0  0  0
    1.4733    8.4042   -3.3654 F   0  0  0  0  0  0  0  0  0  0  0  0
    2.3621    8.9975   -1.4702 F   0  0  0  0  0  0  0  0  0  0  0  0
    2.3604    6.0014   -1.8166 C   0  0  0  0  0  0  0  0  0  0  0  0
    1.8948    0.0235   -0.4051 C   0  0  0  0  0  0  0  0  0  0  0  0
    1.1947   -0.9974    0.2500 C   0  0  0  0  0  0  0  0  0  0  0  0
    1.2110   -2.3547   -0.1322 N   0  0  0  0  0  0  0  0  0  0  0  0
    1.9891   -3.1326   -0.9380 C   0  0  0  0  0  0  0  0  0  0  0  0
    1.3552   -4.0456   -1.6588 N   0  0  0  0  0  0  0  0  0  0  0  0
    1.4910   -5.1684   -0.8743 C   0  0  0  0  0  0  0  0  0  0  0  0
    0.6831   -6.3089   -0.8068 C   0  0  0  0  0  0  0  0  0  0  0  0
    0.9776   -7.2793    0.1563 C   0  0  0  0  0  0  0  0  0  0  0  0
    2.1015   -7.1517    0.9785 C   0  0  0  0  0  0  0  0  0  0  0  0
    2.9574   -6.0468    0.8839 C   0  0  0  0  0  0  0  0  0  0  0  0
    2.5922   -5.0358   -0.0135 C   0  0  0  0  0  0  0  0  0  0  0  0
    3.1079   -3.7924   -0.4066 N   0  0  0  0  0  0  0  0  0  0  0  0
    4.4797   -3.4318   -0.5011 C   0  0  0  0  0  0  0  0  0  0  0  0
    4.8865   -2.6000   -1.5427 C   0  0  0  0  0  0  0  0  0  0  0  0
    6.2459   -2.4113   -1.7086 C   0  0  0  0  0  0  0  0  0  0  0  0
    6.8249   -1.6613   -2.7121 N   0  0  0  0  0  0  0  0  0  0  0  0
    6.2636   -1.4432   -4.0481 C   0  0  0  0  0  0  0  0  0  0  0  0
    6.2478   -2.6969   -4.9185 C   0  0  0  0  0  0  0  0  0  0  0  0
    7.6537   -3.1475   -5.3120 C   0  0  0  0  0  0  0  0  0  0  0  0
    8.4215   -2.0954   -5.9909 N   0  0  0  0  0  0  0  0  0  0  0  0
    9.8038   -2.5579   -6.1879 C   0  0  0  0  0  0  0  0  0  0  0  0
    8.4244   -0.8103   -5.2822 C   0  0  0  0  0  0  0  0  0  0  0  0
    7.0507   -0.3504   -4.7834 C   0  0  0  0  0  0  0  0  0  0  0  0
    7.1278   -2.9411   -0.8458 N   0  0  0  0  0  0  0  0  0  0  0  0
    6.6455   -3.7050    0.1456 C   0  0  0  0  0  0  0  0  0  0  0  0
    5.3580   -4.0142    0.3448 N   0  0  0  0  0  0  0  0  0  0  0  0
   -0.8969   -1.2841    2.9840 H   0  0  0  0  0  0  0  0  0  0  0  0
    0.1784   -2.5262    2.3604 H   0  0  0  0  0  0  0  0  0  0  0  0
   -1.3069   -2.0937    1.4608 H   0  0  0  0  0  0  0  0  0  0  0  0
   -0.7394    0.9583    2.3034 H   0  0  0  0  0  0  0  0  0  0  0  0
    0.3736    2.7074    1.0837 H   0  0  0  0  0  0  0  0  0  0  0  0
    3.0271    2.0656   -1.4426 H   0  0  0  0  0  0  0  0  0  0  0  0
    4.4853    3.3315   -1.9991 H   0  0  0  0  0  0  0  0  0  0  0  0
    5.8645    5.0096   -3.1137 H   0  0  0  0  0  0  0  0  0  0  0  0
    5.0619    7.3227   -3.4140 H   0  0  0  0  0  0  0  0  0  0  0  0
    1.3771    6.2934   -1.4420 H   0  0  0  0  0  0  0  0  0  0  0  0
    2.6031   -0.2298   -1.1854 H   0  0  0  0  0  0  0  0  0  0  0  0
    0.2369   -2.5764   -0.3542 H   0  0  0  0  0  0  0  0  0  0  0  0
   -0.1896   -6.3973   -1.4449 H   0  0  0  0  0  0  0  0  0  0  0  0
    0.3169   -8.1371    0.2686 H   0  0  0  0  0  0  0  0  0  0  0  0
    2.3100   -7.9287    1.7102 H   0  0  0  0  0  0  0  0  0  0  0  0
    3.8368   -5.9564    1.5205 H   0  0  0  0  0  0  0  0  0  0  0  0
    4.1825   -2.1881   -2.2493 H   0  0  0  0  0  0  0  0  0  0  0  0
    7.8330   -1.8002   -2.6696 H   0  0  0  0  0  0  0  0  0  0  0  0
    5.2375   -1.0758   -3.9326 H   0  0  0  0  0  0  0  0  0  0  0  0
    5.6796   -2.4784   -5.8346 H   0  0  0  0  0  0  0  0  0  0  0  0
    5.7248   -3.5191   -4.4195 H   0  0  0  0  0  0  0  0  0  0  0  0
    7.5514   -3.9979   -5.9973 H   0  0  0  0  0  0  0  0  0  0  0  0
    8.1782   -3.5099   -4.4217 H   0  0  0  0  0  0  0  0  0  0  0  0
    9.8290   -3.4501   -6.8231 H   0  0  0  0  0  0  0  0  0  0  0  0
   10.2880   -2.8064   -5.2343 H   0  0  0  0  0  0  0  0  0  0  0  0
   10.4119   -1.7937   -6.6844 H   0  0  0  0  0  0  0  0  0  0  0  0
    8.7920   -0.0440   -5.9794 H   0  0  0  0  0  0  0  0  0  0  0  0
    9.1245   -0.8274   -4.4388 H   0  0  0  0  0  0  0  0  0  0  0  0
    6.4596   -0.0184   -5.6476 H   0  0  0  0  0  0  0  0  0  0  0  0
    7.1811    0.5276   -4.1387 H   0  0  0  0  0  0  0  0  0  0  0  0
    7.3651   -4.1064    0.8480 H   0  0  0  0  0  0  0  0  0  0  0  0
  1  2  1  0  0  0  0
  1 45  1  0  0  0  0
  1 46  1  0  0  0  0
  1 47  1  0  0  0  0
  2  3  1  0  0  0  0
  2 20  2  0  0  0  0
  3  4  2  0  0  0  0
  3 48  1  0  0  0  0
  4  5  1  0  0  0  0
  4 49  1  0  0  0  0
  5  6  1  0  0  0  0
  5 19  2  0  0  0  0
  6  7  1  0  0  0  0
  6 50  1  0  0  0  0
  7  8  2  0  0  0  0
  7  9  1  0  0  0  0
  9 10  1  0  0  0  0
  9 18  2  0  0  0  0
 10 11  2  0  0  0  0
 10 51  1  0  0  0  0
 11 12  1  0  0  0  0
 11 52  1  0  0  0  0
 12 13  2  0  0  0  0
 12 53  1  0  0  0  0
 13 14  1  0  0  0  0
 13 18  1  0  0  0  0
 14 15  1  0  0  0  0
 14 16  1  0  0  0  0
 14 17  1  0  0  0  0
 18 54  1  0  0  0  0
 19 20  1  0  0  0  0
 19 55  1  0  0  0  0
 20 21  1  0  0  0  0
 21 22  1  0  0  0  0
 21 56  1  0  0  0  0
 22 23  2  0  0  0  0
 22 30  1  0  0  0  0
 23 24  1  0  0  0  0
 24 25  1  0  0  0  0
 24 29  2  0  0  0  0
 25 26  2  0  0  0  0
 25 57  1  0  0  0  0
 26 27  1  0  0  0  0
 26 58  1  0  0  0  0
 27 28  2  0  0  0  0
 27 59  1  0  0  0  0
 28 29  1  0  0  0  0
 28 60  1  0  0  0  0
 29 30  1  0  0  0  0
 30 31  1  0  0  0  0
 31 32  1  0  0  0  0
 31 44  2  0  0  0  0
 32 33  2  0  0  0  0
 32 61  1  0  0  0  0
 33 34  1  0  0  0  0
 33 42  1  0  0  0  0
 34 35  1  0  0  0  0
 34 62  1  0  0  0  0
 35 36  1  0  0  0  0
 35 41  1  0  0  0  0
 35 63  1  0  0  0  0
 36 37  1  0  0  0  0
 36 64  1  0  0  0  0
 36 65  1  0  0  0  0
 37 38  1  0  0  0  0
 37 66  1  0  0  0  0
 37 67  1  0  0  0  0
 38 39  1  0  0  0  0
 38 40  1  0  0  0  0
 39 68  1  0  0  0  0
 39 69  1  0  0  0  0
 39 70  1  0  0  0  0
 40 41  1  0  0  0  0
 40 71  1  0  0  0  0
 40 72  1  0  0  0  0
 41 73  1  0  0  0  0
 41 74  1  0  0  0  0
 42 43  2  0  0  0  0
 43 44  1  0  0  0  0
 43 75  1  0  0  0  0
M  END
$$$$
