CHEMBL3671477
 OpenBabel04072215373D

 66 69  0  0  0  0  0  0  0  0999 V2000
    4.6270   -1.1676   -2.2082 C   0  0  0  0  0  0  0  0  0  0  0  0
    4.2087   -0.0769   -1.5563 C   0  0  0  0  0  0  0  0  0  0  0  0
    5.2235    0.7152   -0.8254 C   0  0  0  0  0  0  0  0  0  0  0  0
    6.3104    0.9195   -1.3478 O   0  0  0  0  0  0  0  0  0  0  0  0
    4.7675    1.1221    0.4137 N   0  0  0  0  0  0  0  0  0  0  0  0
    5.3845    2.0500    1.2931 C   0  0  0  0  0  0  0  0  0  0  0  0
    6.5961    2.6217    0.8948 C   0  0  0  0  0  0  0  0  0  0  0  0
    7.2225    3.6731    1.5807 C   0  0  0  0  0  0  0  0  0  0  0  0
    8.3389    4.3605    1.0802 C   0  0  0  0  0  0  0  0  0  0  0  0
    8.7994    4.0746   -0.2317 N   0  0  0  0  0  0  0  0  0  0  0  0
    9.5618    4.9334   -1.0465 C   0  0  0  0  0  0  0  0  0  0  0  0
    9.2985    6.3080   -1.0913 C   0  0  0  0  0  0  0  0  0  0  0  0
   10.1239    7.1704   -1.8130 C   0  0  0  0  0  0  0  0  0  0  0  0
   11.2169    6.6568   -2.5078 C   0  0  0  0  0  0  0  0  0  0  0  0
   12.3891    7.8393   -3.4009 Br  0  0  0  0  0  0  0  0  0  0  0  0
   11.4628    5.2868   -2.5296 C   0  0  0  0  0  0  0  0  0  0  0  0
   10.6270    4.4384   -1.8091 C   0  0  0  0  0  0  0  0  0  0  0  0
   10.8755    3.1189   -1.8194 F   0  0  0  0  0  0  0  0  0  0  0  0
    8.9158    5.3544    1.7689 N   0  0  0  0  0  0  0  0  0  0  0  0
    8.3648    5.6646    2.9487 C   0  0  0  0  0  0  0  0  0  0  0  0
    7.2667    5.1070    3.4813 N   0  0  0  0  0  0  0  0  0  0  0  0
    6.6905    4.1194    2.7830 C   0  0  0  0  0  0  0  0  0  0  0  0
    5.5087    3.5225    3.2223 C   0  0  0  0  0  0  0  0  0  0  0  0
    4.8299    2.5042    2.5046 C   0  0  0  0  0  0  0  0  0  0  0  0
    3.6715    2.1431    3.1492 O   0  0  0  0  0  0  0  0  0  0  0  0
    2.8622    1.0931    2.6558 C   0  0  0  0  0  0  0  0  0  0  0  0
    1.6411    0.7811    3.5379 C   0  0  0  0  0  0  0  0  0  0  0  0
    0.6572    1.9521    3.6150 C   0  0  0  0  0  0  0  0  0  0  0  0
    1.1137    3.0578    4.5551 C   0  0  0  0  0  0  0  0  0  0  0  0
    1.4487    2.5327    5.8788 N   0  0  0  0  0  0  0  0  0  0  0  0
    1.2411    3.2457    7.0688 C   0  0  0  0  0  0  0  0  0  0  0  0
    1.5702    2.7840    8.1583 O   0  0  0  0  0  0  0  0  0  0  0  0
    0.5546    4.5732    6.9161 C   0  0  0  0  0  0  0  0  0  0  0  0
    0.3318    5.4657    8.4214 S   0  0  0  0  0  0  0  0  0  0  0  0
   -0.6946    4.4300    9.4335 C   0  0  0  0  0  0  0  0  0  0  0  0
    1.6177    5.6643    9.0726 O   0  0  0  0  0  0  0  0  0  0  0  0
   -0.4744    6.6248    8.0674 O   0  0  0  0  0  0  0  0  0  0  0  0
    2.3959    1.4159    5.9040 C   0  0  0  0  0  0  0  0  0  0  0  0
    2.0007    0.2964    4.9469 C   0  0  0  0  0  0  0  0  0  0  0  0
    3.9562   -1.7475   -2.8287 H   0  0  0  0  0  0  0  0  0  0  0  0
    5.6672   -1.4849   -2.1546 H   0  0  0  0  0  0  0  0  0  0  0  0
    3.1951    0.2955   -1.6146 H   0  0  0  0  0  0  0  0  0  0  0  0
    3.8841    0.7306    0.6735 H   0  0  0  0  0  0  0  0  0  0  0  0
    7.0898    2.2851   -0.0047 H   0  0  0  0  0  0  0  0  0  0  0  0
    9.0227    3.0925   -0.3702 H   0  0  0  0  0  0  0  0  0  0  0  0
    8.4515    6.7154   -0.5439 H   0  0  0  0  0  0  0  0  0  0  0  0
    9.9140    8.2364   -1.8026 H   0  0  0  0  0  0  0  0  0  0  0  0
   12.3028    4.8700   -3.0742 H   0  0  0  0  0  0  0  0  0  0  0  0
    8.8481    6.4509    3.5165 H   0  0  0  0  0  0  0  0  0  0  0  0
    5.0764    3.8922    4.1531 H   0  0  0  0  0  0  0  0  0  0  0  0
    3.4602    0.1787    2.5763 H   0  0  0  0  0  0  0  0  0  0  0  0
    2.4614    1.3901    1.6807 H   0  0  0  0  0  0  0  0  0  0  0  0
    1.1200   -0.0451    3.0339 H   0  0  0  0  0  0  0  0  0  0  0  0
   -0.3054    1.5655    3.9777 H   0  0  0  0  0  0  0  0  0  0  0  0
    0.4674    2.3661    2.6181 H   0  0  0  0  0  0  0  0  0  0  0  0
    0.3055    3.7895    4.6164 H   0  0  0  0  0  0  0  0  0  0  0  0
    1.9886    3.5927    4.1754 H   0  0  0  0  0  0  0  0  0  0  0  0
   -0.4442    4.4286    6.4950 H   0  0  0  0  0  0  0  0  0  0  0  0
    1.1550    5.2159    6.2622 H   0  0  0  0  0  0  0  0  0  0  0  0
   -0.1675    3.5179    9.7032 H   0  0  0  0  0  0  0  0  0  0  0  0
   -1.6083    4.2046    8.8788 H   0  0  0  0  0  0  0  0  0  0  0  0
   -0.9425    4.9927   10.3349 H   0  0  0  0  0  0  0  0  0  0  0  0
    2.4835    1.0038    6.9151 H   0  0  0  0  0  0  0  0  0  0  0  0
    3.3815    1.8191    5.6476 H   0  0  0  0  0  0  0  0  0  0  0  0
    1.1193   -0.2107    5.3630 H   0  0  0  0  0  0  0  0  0  0  0  0
    2.7960   -0.4569    4.9013 H   0  0  0  0  0  0  0  0  0  0  0  0
  1  2  2  0  0  0  0
  1 40  1  0  0  0  0
  1 41  1  0  0  0  0
  2  3  1  0  0  0  0
  2 42  1  0  0  0  0
  3  4  2  0  0  0  0
  3  5  1  0  0  0  0
  5  6  1  0  0  0  0
  5 43  1  0  0  0  0
  6  7  1  0  0  0  0
  6 24  2  0  0  0  0
  7  8  2  0  0  0  0
  7 44  1  0  0  0  0
  8  9  1  0  0  0  0
  8 22  1  0  0  0  0
  9 10  1  0  0  0  0
  9 19  2  0  0  0  0
 10 11  1  0  0  0  0
 10 45  1  0  0  0  0
 11 12  1  0  0  0  0
 11 17  2  0  0  0  0
 12 13  2  0  0  0  0
 12 46  1  0  0  0  0
 13 14  1  0  0  0  0
 13 47  1  0  0  0  0
 14 15  1  0  0  0  0
 14 16  2  0  0  0  0
 16 17  1  0  0  0  0
 16 48  1  0  0  0  0
 17 18  1  0  0  0  0
 19 20  1  0  0  0  0
 20 21  2  0  0  0  0
 20 49  1  0  0  0  0
 21 22  1  0  0  0  0
 22 23  2  0  0  0  0
 23 24  1  0  0  0  0
 23 50  1  0  0  0  0
 24 25  1  0  0  0  0
 25 26  1  0  0  0  0
 26 27  1  0  0  0  0
 26 51  1  0  0  0  0
 26 52  1  0  0  0  0
 27 28  1  0  0  0  0
 27 39  1  0  0  0  0
 27 53  1  0  0  0  0
 28 29  1  0  0  0  0
 28 54  1  0  0  0  0
 28 55  1  0  0  0  0
 29 30  1  0  0  0  0
 29 56  1  0  0  0  0
 29 57  1  0  0  0  0
 30 31  1  0  0  0  0
 30 38  1  0  0  0  0
 31 32  2  0  0  0  0
 31 33  1  0  0  0  0
 33 34  1  0  0  0  0
 33 58  1  0  0  0  0
 33 59  1  0  0  0  0
 34 35  1  0  0  0  0
 34 36  2  0  0  0  0
 34 37  2  0  0  0  0
 35 60  1  0  0  0  0
 35 61  1  0  0  0  0
 35 62  1  0  0  0  0
 38 39  1  0  0  0  0
 38 63  1  0  0  0  0
 38 64  1  0  0  0  0
 39 65  1  0  0  0  0
 39 66  1  0  0  0  0
M  END
$$$$
