CHEMBL1986597
 OpenBabel04072215363D

 59 63  0  0  0  0  0  0  0  0999 V2000
    2.2227    0.6982   -1.7650 N   0  0  0  0  0  0  0  0  0  0  0  0
    1.8099    0.8273   -0.4685 C   0  0  0  0  0  0  0  0  0  0  0  0
    0.6916    0.4677   -0.1197 O   0  0  0  0  0  0  0  0  0  0  0  0
    2.7758    1.3968    0.4991 C   0  0  0  0  0  0  0  0  0  0  0  0
    2.4599    1.4498    1.8685 C   0  0  0  0  0  0  0  0  0  0  0  0
    3.3824    1.9308    2.8044 C   0  0  0  0  0  0  0  0  0  0  0  0
    4.6496    2.3729    2.4151 C   0  0  0  0  0  0  0  0  0  0  0  0
    4.9331    2.3193    1.0516 C   0  0  0  0  0  0  0  0  0  0  0  0
    6.0546    2.6425    0.3398 N   0  0  0  0  0  0  0  0  0  0  0  0
    5.8392    2.3341   -0.9820 C   0  0  0  0  0  0  0  0  0  0  0  0
    6.8759    2.4048   -1.9890 C   0  0  0  0  0  0  0  0  0  0  0  0
    8.1966    2.1074   -1.6450 C   0  0  0  0  0  0  0  0  0  0  0  0
    9.1929    2.1153   -2.6086 C   0  0  0  0  0  0  0  0  0  0  0  0
    8.8954    2.4230   -3.9349 C   0  0  0  0  0  0  0  0  0  0  0  0
    9.8693    2.4168   -4.9457 N   0  0  0  0  0  0  0  0  0  0  0  0
   11.2114    2.1335   -4.7742 C   0  0  0  0  0  0  0  0  0  0  0  0
   11.8040    1.9222   -3.7229 O   0  0  0  0  0  0  0  0  0  0  0  0
   12.0104    2.1022   -6.0144 C   0  0  0  0  0  0  0  0  0  0  0  0
   13.3421    2.5316   -5.9512 C   0  0  0  0  0  0  0  0  0  0  0  0
   14.1376    2.5055   -7.0937 C   0  0  0  0  0  0  0  0  0  0  0  0
   13.6129    2.0183   -8.2917 C   0  0  0  0  0  0  0  0  0  0  0  0
   12.2941    1.5514   -8.3322 C   0  0  0  0  0  0  0  0  0  0  0  0
   11.6277    0.8471   -9.8161 S   0  0  0  0  0  0  0  0  0  0  0  0
   10.4986    1.6703  -10.1915 O   0  0  0  0  0  0  0  0  0  0  0  0
   12.7222    0.6088  -10.7276 O   0  0  0  0  0  0  0  0  0  0  0  0
   11.0238   -0.6648   -9.3035 N   0  0  0  0  0  0  0  0  0  0  0  0
   11.9938   -1.6496   -8.7288 C   0  0  0  0  0  0  0  0  0  0  0  0
   12.7797   -2.3866   -9.8180 C   0  0  0  0  0  0  0  0  0  0  0  0
   11.9074   -3.0207  -10.7631 O   0  0  0  0  0  0  0  0  0  0  0  0
   11.0035   -2.0841  -11.3679 C   0  0  0  0  0  0  0  0  0  0  0  0
   10.1589   -1.3624  -10.3117 C   0  0  0  0  0  0  0  0  0  0  0  0
   11.4793    1.6014   -7.2028 C   0  0  0  0  0  0  0  0  0  0  0  0
    7.5765    2.7237   -4.2904 C   0  0  0  0  0  0  0  0  0  0  0  0
    6.5683    2.7083   -3.3225 C   0  0  0  0  0  0  0  0  0  0  0  0
    4.6055    1.9160   -1.1653 N   0  0  0  0  0  0  0  0  0  0  0  0
    4.0387    1.8573    0.0920 C   0  0  0  0  0  0  0  0  0  0  0  0
    1.5998    0.2924   -2.4462 H   0  0  0  0  0  0  0  0  0  0  0  0
    3.1506    1.0043   -2.0538 H   0  0  0  0  0  0  0  0  0  0  0  0
    1.4877    1.0969    2.2072 H   0  0  0  0  0  0  0  0  0  0  0  0
    3.1132    1.9499    3.8585 H   0  0  0  0  0  0  0  0  0  0  0  0
    5.3743    2.7268    3.1411 H   0  0  0  0  0  0  0  0  0  0  0  0
    6.9205    2.9912    0.7235 H   0  0  0  0  0  0  0  0  0  0  0  0
    8.4696    1.8224   -0.6319 H   0  0  0  0  0  0  0  0  0  0  0  0
   10.1923    1.8521   -2.2793 H   0  0  0  0  0  0  0  0  0  0  0  0
    9.5487    2.6715   -5.8719 H   0  0  0  0  0  0  0  0  0  0  0  0
   13.7557    2.8859   -5.0072 H   0  0  0  0  0  0  0  0  0  0  0  0
   15.1654    2.8573   -7.0411 H   0  0  0  0  0  0  0  0  0  0  0  0
   14.2393    2.0007   -9.1809 H   0  0  0  0  0  0  0  0  0  0  0  0
   11.3990   -2.3800   -8.1637 H   0  0  0  0  0  0  0  0  0  0  0  0
   12.6635   -1.1734   -8.0083 H   0  0  0  0  0  0  0  0  0  0  0  0
   13.3754   -3.1788   -9.3521 H   0  0  0  0  0  0  0  0  0  0  0  0
   13.4779   -1.7292  -10.3441 H   0  0  0  0  0  0  0  0  0  0  0  0
   10.3430   -2.6584  -12.0259 H   0  0  0  0  0  0  0  0  0  0  0  0
   11.5638   -1.3856  -11.9980 H   0  0  0  0  0  0  0  0  0  0  0  0
    9.5562   -2.0983   -9.7639 H   0  0  0  0  0  0  0  0  0  0  0  0
    9.4563   -0.6636  -10.7754 H   0  0  0  0  0  0  0  0  0  0  0  0
   10.4641    1.2159   -7.2540 H   0  0  0  0  0  0  0  0  0  0  0  0
    7.3076    2.9546   -5.3190 H   0  0  0  0  0  0  0  0  0  0  0  0
    5.5407    2.9245   -3.6087 H   0  0  0  0  0  0  0  0  0  0  0  0
  1  2  1  0  0  0  0
  1 37  1  0  0  0  0
  1 38  1  0  0  0  0
  2  3  2  0  0  0  0
  2  4  1  0  0  0  0
  4  5  1  0  0  0  0
  4 36  2  0  0  0  0
  5  6  2  0  0  0  0
  5 39  1  0  0  0  0
  6  7  1  0  0  0  0
  6 40  1  0  0  0  0
  7  8  2  0  0  0  0
  7 41  1  0  0  0  0
  8  9  1  0  0  0  0
  8 36  1  0  0  0  0
  9 10  1  0  0  0  0
  9 42  1  0  0  0  0
 10 11  1  0  0  0  0
 10 35  2  0  0  0  0
 11 12  1  0  0  0  0
 11 34  2  0  0  0  0
 12 13  2  0  0  0  0
 12 43  1  0  0  0  0
 13 14  1  0  0  0  0
 13 44  1  0  0  0  0
 14 15  1  0  0  0  0
 14 33  2  0  0  0  0
 15 16  1  0  0  0  0
 15 45  1  0  0  0  0
 16 17  2  0  0  0  0
 16 18  1  0  0  0  0
 18 19  1  0  0  0  0
 18 32  2  0  0  0  0
 19 20  2  0  0  0  0
 19 46  1  0  0  0  0
 20 21  1  0  0  0  0
 20 47  1  0  0  0  0
 21 22  2  0  0  0  0
 21 48  1  0  0  0  0
 22 23  1  0  0  0  0
 22 32  1  0  0  0  0
 23 24  2  0  0  0  0
 23 25  2  0  0  0  0
 23 26  1  0  0  0  0
 26 27  1  0  0  0  0
 26 31  1  0  0  0  0
 27 28  1  0  0  0  0
 27 49  1  0  0  0  0
 27 50  1  0  0  0  0
 28 29  1  0  0  0  0
 28 51  1  0  0  0  0
 28 52  1  0  0  0  0
 29 30  1  0  0  0  0
 30 31  1  0  0  0  0
 30 53  1  0  0  0  0
 30 54  1  0  0  0  0
 31 55  1  0  0  0  0
 31 56  1  0  0  0  0
 32 57  1  0  0  0  0
 33 34  1  0  0  0  0
 33 58  1  0  0  0  0
 34 59  1  0  0  0  0
 35 36  1  0  0  0  0
M  END
$$$$
