CHEMBL3657559
 OpenBabel04072215373D

 61 65  0  0  0  0  0  0  0  0999 V2000
    5.7421    1.5175   -5.2723 C   0  0  0  0  0  0  0  0  0  0  0  0
    4.5088    2.1260   -4.6186 C   0  0  0  0  0  0  0  0  0  0  0  0
    4.5596    2.1358   -3.0876 C   0  0  0  0  0  0  0  0  0  0  0  0
    4.5227    0.8121   -2.4791 N   0  0  0  0  0  0  0  0  0  0  0  0
    3.3828    0.0842   -2.1895 C   0  0  0  0  0  0  0  0  0  0  0  0
    1.9863    0.5411   -2.4347 C   0  0  0  0  0  0  0  0  0  0  0  0
    3.7990   -1.1185   -1.6507 C   0  0  0  0  0  0  0  0  0  0  0  0
    2.7983   -2.3948   -1.1234 Cl  0  0  0  0  0  0  0  0  0  0  0  0
    5.2164   -1.1293   -1.6006 C   0  0  0  0  0  0  0  0  0  0  0  0
    6.1778   -2.0781   -1.1845 C   0  0  0  0  0  0  0  0  0  0  0  0
    7.5488   -1.7925   -1.2612 C   0  0  0  0  0  0  0  0  0  0  0  0
    8.5371   -2.7184   -0.8613 N   0  0  0  0  0  0  0  0  0  0  0  0
    8.4177   -4.1096   -0.8818 C   0  0  0  0  0  0  0  0  0  0  0  0
    7.7202   -4.7145   -1.8562 N   0  0  0  0  0  0  0  0  0  0  0  0
    7.6342   -6.0550   -1.8321 C   0  0  0  0  0  0  0  0  0  0  0  0
    8.2182   -6.8283   -0.8662 C   0  0  0  0  0  0  0  0  0  0  0  0
    8.9091   -6.1337    0.1063 C   0  0  0  0  0  0  0  0  0  0  0  0
    9.4266   -6.8536    1.2236 N   0  0  0  0  0  0  0  0  0  0  0  0
   10.0179   -6.3015    2.3359 C   0  0  0  0  0  0  0  0  0  0  0  0
   10.0144   -7.2658    3.3267 C   0  0  0  0  0  0  0  0  0  0  0  0
   10.3733   -7.0883    4.7682 C   0  0  0  0  0  0  0  0  0  0  0  0
    9.3309   -6.5492    5.6594 N   0  0  0  0  0  0  0  0  0  0  0  0
    8.0680   -7.2964    5.6956 C   0  0  0  0  0  0  0  0  0  0  0  0
    7.3485   -6.1370    4.9687 C   0  0  0  0  0  0  0  0  0  0  0  0
    6.9003   -6.3701    3.6140 O   0  0  0  0  0  0  0  0  0  0  0  0
    8.6518   -5.3350    5.1878 C   0  0  0  0  0  0  0  0  0  0  0  0
    9.6641   -8.4536    2.6263 C   0  0  0  0  0  0  0  0  0  0  0  0
    9.6526   -9.8585    3.1114 C   0  0  0  0  0  0  0  0  0  0  0  0
    9.2821   -8.1969    1.3681 N   0  0  0  0  0  0  0  0  0  0  0  0
    9.0414   -4.7791    0.1009 N   0  0  0  0  0  0  0  0  0  0  0  0
    7.9446   -0.5227   -1.6846 C   0  0  0  0  0  0  0  0  0  0  0  0
    7.0166    0.4375   -2.1120 C   0  0  0  0  0  0  0  0  0  0  0  0
    5.6510    0.1074   -2.0802 C   0  0  0  0  0  0  0  0  0  0  0  0
    5.6729    1.6044   -6.3617 H   0  0  0  0  0  0  0  0  0  0  0  0
    5.8396    0.4546   -5.0336 H   0  0  0  0  0  0  0  0  0  0  0  0
    6.6530    2.0333   -4.9523 H   0  0  0  0  0  0  0  0  0  0  0  0
    3.6181    1.5925   -4.9695 H   0  0  0  0  0  0  0  0  0  0  0  0
    4.4165    3.1624   -4.9659 H   0  0  0  0  0  0  0  0  0  0  0  0
    3.7109    2.7029   -2.6907 H   0  0  0  0  0  0  0  0  0  0  0  0
    5.4552    2.6552   -2.7329 H   0  0  0  0  0  0  0  0  0  0  0  0
    1.9187    1.5322   -2.8850 H   0  0  0  0  0  0  0  0  0  0  0  0
    1.4331    0.5694   -1.4876 H   0  0  0  0  0  0  0  0  0  0  0  0
    1.4741   -0.1596   -3.1021 H   0  0  0  0  0  0  0  0  0  0  0  0
    5.8352   -3.0398   -0.8132 H   0  0  0  0  0  0  0  0  0  0  0  0
    8.9939   -2.4584    0.0012 H   0  0  0  0  0  0  0  0  0  0  0  0
    7.0407   -6.4939   -2.6284 H   0  0  0  0  0  0  0  0  0  0  0  0
    8.1053   -7.9044   -0.8593 H   0  0  0  0  0  0  0  0  0  0  0  0
   10.2757   -5.2517    2.3544 H   0  0  0  0  0  0  0  0  0  0  0  0
   11.2424   -6.4213    4.8281 H   0  0  0  0  0  0  0  0  0  0  0  0
   10.7136   -8.0434    5.1844 H   0  0  0  0  0  0  0  0  0  0  0  0
    7.6908   -7.4421    6.7165 H   0  0  0  0  0  0  0  0  0  0  0  0
    8.0457   -8.2696    5.1981 H   0  0  0  0  0  0  0  0  0  0  0  0
    6.5102   -5.7223    5.5407 H   0  0  0  0  0  0  0  0  0  0  0  0
    7.5020   -7.0428    3.2524 H   0  0  0  0  0  0  0  0  0  0  0  0
    8.5491   -4.5795    5.9784 H   0  0  0  0  0  0  0  0  0  0  0  0
    9.0663   -4.8176    4.3208 H   0  0  0  0  0  0  0  0  0  0  0  0
    9.8351   -9.9206    4.1874 H   0  0  0  0  0  0  0  0  0  0  0  0
   10.4352  -10.4345    2.6057 H   0  0  0  0  0  0  0  0  0  0  0  0
    8.6884  -10.3344    2.9064 H   0  0  0  0  0  0  0  0  0  0  0  0
    9.0043   -0.2784   -1.7286 H   0  0  0  0  0  0  0  0  0  0  0  0
    7.3638    1.3990   -2.4756 H   0  0  0  0  0  0  0  0  0  0  0  0
  1  2  1  0  0  0  0
  1 34  1  0  0  0  0
  1 35  1  0  0  0  0
  1 36  1  0  0  0  0
  2  3  1  0  0  0  0
  2 37  1  0  0  0  0
  2 38  1  0  0  0  0
  3  4  1  0  0  0  0
  3 39  1  0  0  0  0
  3 40  1  0  0  0  0
  4  5  1  0  0  0  0
  4 33  1  0  0  0  0
  5  6  1  0  0  0  0
  5  7  2  0  0  0  0
  6 41  1  0  0  0  0
  6 42  1  0  0  0  0
  6 43  1  0  0  0  0
  7  8  1  0  0  0  0
  7  9  1  0  0  0  0
  9 10  1  0  0  0  0
  9 33  2  0  0  0  0
 10 11  2  0  0  0  0
 10 44  1  0  0  0  0
 11 12  1  0  0  0  0
 11 31  1  0  0  0  0
 12 13  1  0  0  0  0
 12 45  1  0  0  0  0
 13 14  1  0  0  0  0
 13 30  2  0  0  0  0
 14 15  2  0  0  0  0
 15 16  1  0  0  0  0
 15 46  1  0  0  0  0
 16 17  2  0  0  0  0
 16 47  1  0  0  0  0
 17 18  1  0  0  0  0
 17 30  1  0  0  0  0
 18 19  1  0  0  0  0
 18 29  1  0  0  0  0
 19 20  2  0  0  0  0
 19 48  1  0  0  0  0
 20 21  1  0  0  0  0
 20 27  1  0  0  0  0
 21 22  1  0  0  0  0
 21 49  1  0  0  0  0
 21 50  1  0  0  0  0
 22 23  1  0  0  0  0
 22 26  1  0  0  0  0
 23 24  1  0  0  0  0
 23 51  1  0  0  0  0
 23 52  1  0  0  0  0
 24 25  1  0  0  0  0
 24 26  1  0  0  0  0
 24 53  1  0  0  0  0
 25 54  1  0  0  0  0
 26 55  1  0  0  0  0
 26 56  1  0  0  0  0
 27 28  1  0  0  0  0
 27 29  2  0  0  0  0
 28 57  1  0  0  0  0
 28 58  1  0  0  0  0
 28 59  1  0  0  0  0
 31 32  2  0  0  0  0
 31 60  1  0  0  0  0
 32 33  1  0  0  0  0
 32 61  1  0  0  0  0
M  END
$$$$
