CHEMBL1241299
 OpenBabel04072215363D

 29 31  0  0  0  0  0  0  0  0999 V2000
    1.0666    0.0525    0.0034 C   0  0  0  0  0  0  0  0  0  0  0  0
    2.5090    0.0517    0.0032 N   0  0  0  0  0  0  0  0  0  0  0  0
    3.1871    1.2144   -0.0208 N   0  0  0  0  0  0  0  0  0  0  0  0
    4.4818    0.8424   -0.0771 C   0  0  0  0  0  0  0  0  0  0  0  0
    5.5274    1.8690   -0.1938 C   0  0  0  0  0  0  0  0  0  0  0  0
    6.7013    1.6268   -0.9221 C   0  0  0  0  0  0  0  0  0  0  0  0
    7.7117    2.5909   -1.0044 C   0  0  0  0  0  0  0  0  0  0  0  0
    7.5279    3.8343   -0.4099 C   0  0  0  0  0  0  0  0  0  0  0  0
    8.8918    5.1383   -0.5594 Br  0  0  0  0  0  0  0  0  0  0  0  0
    6.3393    4.1094    0.2659 C   0  0  0  0  0  0  0  0  0  0  0  0
    6.0896    5.3313    0.8281 O   0  0  0  0  0  0  0  0  0  0  0  0
    5.3493    3.1349    0.3898 C   0  0  0  0  0  0  0  0  0  0  0  0
    4.6100   -0.5902   -0.0189 C   0  0  0  0  0  0  0  0  0  0  0  0
    5.6143   -1.5690   -0.0059 C   0  0  0  0  0  0  0  0  0  0  0  0
    6.9813   -1.3263    0.0204 N   0  0  0  0  0  0  0  0  0  0  0  0
    5.2517   -2.8688   -0.0018 N   0  0  0  0  0  0  0  0  0  0  0  0
    3.9406   -3.1766   -0.0015 C   0  0  0  0  0  0  0  0  0  0  0  0
    2.8988   -2.3341    0.0144 N   0  0  0  0  0  0  0  0  0  0  0  0
    3.3045   -1.0543    0.0022 C   0  0  0  0  0  0  0  0  0  0  0  0
    0.7004    1.0818    0.0068 H   0  0  0  0  0  0  0  0  0  0  0  0
    0.7187   -0.4671    0.8994 H   0  0  0  0  0  0  0  0  0  0  0  0
    0.7213   -0.4603   -0.8979 H   0  0  0  0  0  0  0  0  0  0  0  0
    6.8430    0.6911   -1.4565 H   0  0  0  0  0  0  0  0  0  0  0  0
    8.6245    2.3579   -1.5459 H   0  0  0  0  0  0  0  0  0  0  0  0
    6.8304    5.9174    0.5918 H   0  0  0  0  0  0  0  0  0  0  0  0
    4.4326    3.3717    0.9252 H   0  0  0  0  0  0  0  0  0  0  0  0
    7.2580   -0.5156    0.5568 H   0  0  0  0  0  0  0  0  0  0  0  0
    7.4791   -2.1832    0.2382 H   0  0  0  0  0  0  0  0  0  0  0  0
    3.7036   -4.2366   -0.0127 H   0  0  0  0  0  0  0  0  0  0  0  0
  1  2  1  0  0  0  0
  1 20  1  0  0  0  0
  1 21  1  0  0  0  0
  1 22  1  0  0  0  0
  2  3  1  0  0  0  0
  2 19  1  0  0  0  0
  3  4  2  0  0  0  0
  4  5  1  0  0  0  0
  4 13  1  0  0  0  0
  5  6  1  0  0  0  0
  5 12  2  0  0  0  0
  6  7  2  0  0  0  0
  6 23  1  0  0  0  0
  7  8  1  0  0  0  0
  7 24  1  0  0  0  0
  8  9  1  0  0  0  0
  8 10  2  0  0  0  0
 10 11  1  0  0  0  0
 10 12  1  0  0  0  0
 11 25  1  0  0  0  0
 12 26  1  0  0  0  0
 13 14  1  0  0  0  0
 13 19  2  0  0  0  0
 14 15  1  0  0  0  0
 14 16  2  0  0  0  0
 15 27  1  0  0  0  0
 15 28  1  0  0  0  0
 16 17  1  0  0  0  0
 17 18  2  0  0  0  0
 17 29  1  0  0  0  0
 18 19  1  0  0  0  0
M  END
$$$$
