CHEMBL370545
 OpenBabel04072215373D

 48 51  0  0  0  0  0  0  0  0999 V2000
    1.0800   -0.4432    0.2451 C   0  0  0  0  0  0  0  0  0  0  0  0
    2.3415    0.0398   -0.2191 O   0  0  0  0  0  0  0  0  0  0  0  0
    3.0850    0.7626    0.6868 C   0  0  0  0  0  0  0  0  0  0  0  0
    2.7155    0.9441    2.0355 C   0  0  0  0  0  0  0  0  0  0  0  0
    3.5298    1.6439    2.9442 C   0  0  0  0  0  0  0  0  0  0  0  0
    3.1110    1.8573    4.3342 C   0  0  0  0  0  0  0  0  0  0  0  0
    2.4587    0.8380    5.0103 C   0  0  0  0  0  0  0  0  0  0  0  0
    1.9964    1.2690    6.5899 S   0  0  0  0  0  0  0  0  0  0  0  0
    2.6952    2.8101    6.4298 C   0  0  0  0  0  0  0  0  0  0  0  0
    2.6390    3.6615    7.4668 N   0  0  0  0  0  0  0  0  0  0  0  0
    3.2321    4.8227    7.2036 C   0  0  0  0  0  0  0  0  0  0  0  0
    3.8229    5.1897    6.0612 N   0  0  0  0  0  0  0  0  0  0  0  0
    3.8465    4.3208    5.0328 C   0  0  0  0  0  0  0  0  0  0  0  0
    4.4526    4.8111    3.8850 N   0  0  0  0  0  0  0  0  0  0  0  0
    3.2702    3.0371    5.1835 C   0  0  0  0  0  0  0  0  0  0  0  0
    4.7377    2.1432    2.4818 C   0  0  0  0  0  0  0  0  0  0  0  0
    5.0693    2.0497    1.1319 C   0  0  0  0  0  0  0  0  0  0  0  0
    4.2810    1.3347    0.2202 C   0  0  0  0  0  0  0  0  0  0  0  0
    4.6647    1.1949   -1.1531 N   0  0  0  0  0  0  0  0  0  0  0  0
    5.9457    1.4504   -1.6154 C   0  0  0  0  0  0  0  0  0  0  0  0
    6.8805    1.7076   -0.8617 O   0  0  0  0  0  0  0  0  0  0  0  0
    6.0796    1.4180   -2.9937 N   0  0  0  0  0  0  0  0  0  0  0  0
    7.3139    1.6759   -3.6642 C   0  0  0  0  0  0  0  0  0  0  0  0
    8.5522    1.6065   -2.9997 C   0  0  0  0  0  0  0  0  0  0  0  0
    9.7385    1.9899   -3.6226 C   0  0  0  0  0  0  0  0  0  0  0  0
    9.7175    2.3971   -4.9502 C   0  0  0  0  0  0  0  0  0  0  0  0
    8.5144    2.4038   -5.6634 C   0  0  0  0  0  0  0  0  0  0  0  0
    8.5219    2.8017   -7.1105 C   0  0  0  0  0  0  0  0  0  0  0  0
    7.3174    2.0429   -5.0161 C   0  0  0  0  0  0  0  0  0  0  0  0
    0.6123   -1.0155   -0.5604 H   0  0  0  0  0  0  0  0  0  0  0  0
    0.4162    0.3929    0.4922 H   0  0  0  0  0  0  0  0  0  0  0  0
    1.1932   -1.1204    1.1003 H   0  0  0  0  0  0  0  0  0  0  0  0
    1.7791    0.5408    2.4051 H   0  0  0  0  0  0  0  0  0  0  0  0
    2.2175   -0.1547    4.6544 H   0  0  0  0  0  0  0  0  0  0  0  0
    3.2324    5.5583    8.0013 H   0  0  0  0  0  0  0  0  0  0  0  0
    4.6166    5.8082    3.9705 H   0  0  0  0  0  0  0  0  0  0  0  0
    4.0298    4.5145    3.0157 H   0  0  0  0  0  0  0  0  0  0  0  0
    5.4430    2.6395    3.1451 H   0  0  0  0  0  0  0  0  0  0  0  0
    5.9739    2.5682    0.8353 H   0  0  0  0  0  0  0  0  0  0  0  0
    4.0354    0.6495   -1.7275 H   0  0  0  0  0  0  0  0  0  0  0  0
    5.2343    1.5008   -3.5392 H   0  0  0  0  0  0  0  0  0  0  0  0
    8.6385    1.2666   -1.9761 H   0  0  0  0  0  0  0  0  0  0  0  0
   10.6665    1.9730   -3.0624 H   0  0  0  0  0  0  0  0  0  0  0  0
   10.6495    2.7018   -5.4175 H   0  0  0  0  0  0  0  0  0  0  0  0
    9.5367    3.0382   -7.4528 H   0  0  0  0  0  0  0  0  0  0  0  0
    7.9037    3.6903   -7.2674 H   0  0  0  0  0  0  0  0  0  0  0  0
    8.1507    1.9792   -7.7298 H   0  0  0  0  0  0  0  0  0  0  0  0
    6.3815    2.0837   -5.5733 H   0  0  0  0  0  0  0  0  0  0  0  0
  1  2  1  0  0  0  0
  1 30  1  0  0  0  0
  1 31  1  0  0  0  0
  1 32  1  0  0  0  0
  2  3  1  0  0  0  0
  3  4  1  0  0  0  0
  3 18  2  0  0  0  0
  4  5  2  0  0  0  0
  4 33  1  0  0  0  0
  5  6  1  0  0  0  0
  5 16  1  0  0  0  0
  6  7  2  0  0  0  0
  6 15  1  0  0  0  0
  7  8  1  0  0  0  0
  7 34  1  0  0  0  0
  8  9  1  0  0  0  0
  9 10  1  0  0  0  0
  9 15  2  0  0  0  0
 10 11  2  0  0  0  0
 11 12  1  0  0  0  0
 11 35  1  0  0  0  0
 12 13  2  0  0  0  0
 13 14  1  0  0  0  0
 13 15  1  0  0  0  0
 14 36  1  0  0  0  0
 14 37  1  0  0  0  0
 16 17  2  0  0  0  0
 16 38  1  0  0  0  0
 17 18  1  0  0  0  0
 17 39  1  0  0  0  0
 18 19  1  0  0  0  0
 19 20  1  0  0  0  0
 19 40  1  0  0  0  0
 20 21  2  0  0  0  0
 20 22  1  0  0  0  0
 22 23  1  0  0  0  0
 22 41  1  0  0  0  0
 23 24  1  0  0  0  0
 23 29  2  0  0  0  0
 24 25  2  0  0  0  0
 24 42  1  0  0  0  0
 25 26  1  0  0  0  0
 25 43  1  0  0  0  0
 26 27  2  0  0  0  0
 26 44  1  0  0  0  0
 27 28  1  0  0  0  0
 27 29  1  0  0  0  0
 28 45  1  0  0  0  0
 28 46  1  0  0  0  0
 28 47  1  0  0  0  0
 29 48  1  0  0  0  0
M  END
$$$$
