CHEMBL1254836
 OpenBabel04072215363D

 44 47  0  0  0  0  0  0  0  0999 V2000
    0.5165   -0.3758    0.3648 C   0  0  0  0  0  0  0  0  0  0  0  0
    1.8856   -0.2503    0.8129 N   0  0  0  0  0  0  0  0  0  0  0  0
    2.4231    0.8896    1.3609 C   0  0  0  0  0  0  0  0  0  0  0  0
    3.7303    0.6178    1.7038 C   0  0  0  0  0  0  0  0  0  0  0  0
    3.9907   -0.7228    1.3407 C   0  0  0  0  0  0  0  0  0  0  0  0
    5.1282   -1.4323    1.4912 N   0  0  0  0  0  0  0  0  0  0  0  0
    5.0434   -2.6781    1.0109 C   0  0  0  0  0  0  0  0  0  0  0  0
    3.9892   -3.2626    0.4186 N   0  0  0  0  0  0  0  0  0  0  0  0
    2.8385   -2.5579    0.3218 C   0  0  0  0  0  0  0  0  0  0  0  0
    1.7117   -3.1292   -0.2620 O   0  0  0  0  0  0  0  0  0  0  0  0
    1.5197   -4.4854   -0.1169 C   0  0  0  0  0  0  0  0  0  0  0  0
    1.9288   -5.2047    1.0000 C   0  0  0  0  0  0  0  0  0  0  0  0
    1.7125   -6.5795    1.0736 C   0  0  0  0  0  0  0  0  0  0  0  0
    1.0376   -7.2621    0.0660 C   0  0  0  0  0  0  0  0  0  0  0  0
    0.8234   -8.6676    0.0957 N   0  0  0  0  0  0  0  0  0  0  0  0
    1.1251   -9.5021    1.1605 C   0  0  0  0  0  0  0  0  0  0  0  0
    1.5084   -9.1338    2.2646 O   0  0  0  0  0  0  0  0  0  0  0  0
    1.0002  -10.8431    0.8227 N   0  0  0  0  0  0  0  0  0  0  0  0
    1.2477  -11.8486    1.7903 C   0  0  0  0  0  0  0  0  0  0  0  0
    2.0430  -12.9426    1.4374 C   0  0  0  0  0  0  0  0  0  0  0  0
    2.3613  -13.9155    2.3904 C   0  0  0  0  0  0  0  0  0  0  0  0
    1.8472  -13.8197    3.6831 C   0  0  0  0  0  0  0  0  0  0  0  0
    1.0339  -12.7463    4.0184 C   0  0  0  0  0  0  0  0  0  0  0  0
    0.5314  -12.6651    5.2577 F   0  0  0  0  0  0  0  0  0  0  0  0
    0.7356  -11.7572    3.0892 C   0  0  0  0  0  0  0  0  0  0  0  0
    0.5746   -6.5306   -1.0381 C   0  0  0  0  0  0  0  0  0  0  0  0
    0.8144   -5.1483   -1.1244 C   0  0  0  0  0  0  0  0  0  0  0  0
    2.8345   -1.2448    0.7713 C   0  0  0  0  0  0  0  0  0  0  0  0
   -0.0013    0.5771    0.5026 H   0  0  0  0  0  0  0  0  0  0  0  0
    0.0279   -1.1493    0.9627 H   0  0  0  0  0  0  0  0  0  0  0  0
    0.5203   -0.6419   -0.6949 H   0  0  0  0  0  0  0  0  0  0  0  0
    1.8391    1.7947    1.4710 H   0  0  0  0  0  0  0  0  0  0  0  0
    4.4272    1.3040    2.1656 H   0  0  0  0  0  0  0  0  0  0  0  0
    5.9310   -3.2940    1.1190 H   0  0  0  0  0  0  0  0  0  0  0  0
    2.4453   -4.7247    1.8279 H   0  0  0  0  0  0  0  0  0  0  0  0
    2.1149   -7.0811    1.9497 H   0  0  0  0  0  0  0  0  0  0  0  0
    0.2987   -9.0726   -0.6653 H   0  0  0  0  0  0  0  0  0  0  0  0
    1.2620  -11.0589   -0.1287 H   0  0  0  0  0  0  0  0  0  0  0  0
    2.4774  -13.0159    0.4445 H   0  0  0  0  0  0  0  0  0  0  0  0
    3.0226  -14.7374    2.1288 H   0  0  0  0  0  0  0  0  0  0  0  0
    2.0809  -14.5725    4.4311 H   0  0  0  0  0  0  0  0  0  0  0  0
    0.1107  -10.9235    3.3963 H   0  0  0  0  0  0  0  0  0  0  0  0
    0.0328   -7.0193   -1.8429 H   0  0  0  0  0  0  0  0  0  0  0  0
    0.4564   -4.5946   -1.9894 H   0  0  0  0  0  0  0  0  0  0  0  0
  1  2  1  0  0  0  0
  1 29  1  0  0  0  0
  1 30  1  0  0  0  0
  1 31  1  0  0  0  0
  2  3  1  0  0  0  0
  2 28  1  0  0  0  0
  3  4  2  0  0  0  0
  3 32  1  0  0  0  0
  4  5  1  0  0  0  0
  4 33  1  0  0  0  0
  5  6  1  0  0  0  0
  5 28  2  0  0  0  0
  6  7  2  0  0  0  0
  7  8  1  0  0  0  0
  7 34  1  0  0  0  0
  8  9  2  0  0  0  0
  9 10  1  0  0  0  0
  9 28  1  0  0  0  0
 10 11  1  0  0  0  0
 11 12  1  0  0  0  0
 11 27  2  0  0  0  0
 12 13  2  0  0  0  0
 12 35  1  0  0  0  0
 13 14  1  0  0  0  0
 13 36  1  0  0  0  0
 14 15  1  0  0  0  0
 14 26  2  0  0  0  0
 15 16  1  0  0  0  0
 15 37  1  0  0  0  0
 16 17  2  0  0  0  0
 16 18  1  0  0  0  0
 18 19  1  0  0  0  0
 18 38  1  0  0  0  0
 19 20  1  0  0  0  0
 19 25  2  0  0  0  0
 20 21  2  0  0  0  0
 20 39  1  0  0  0  0
 21 22  1  0  0  0  0
 21 40  1  0  0  0  0
 22 23  2  0  0  0  0
 22 41  1  0  0  0  0
 23 24  1  0  0  0  0
 23 25  1  0  0  0  0
 25 42  1  0  0  0  0
 26 27  1  0  0  0  0
 26 43  1  0  0  0  0
 27 44  1  0  0  0  0
M  END
$$$$
