CHEMBL4794661
 OpenBabel04072215383D

 69 73  0  0  0  0  0  0  0  0999 V2000
    3.3078   -0.9291    2.2996 C   0  0  0  0  0  0  0  0  0  0  0  0
    4.3367   -0.5304    1.3917 O   0  0  0  0  0  0  0  0  0  0  0  0
    4.5213    0.8230    1.2420 C   0  0  0  0  0  0  0  0  0  0  0  0
    3.7332    1.8017    1.8266 C   0  0  0  0  0  0  0  0  0  0  0  0
    3.9962    3.1719    1.6759 C   0  0  0  0  0  0  0  0  0  0  0  0
    3.2120    4.1688    2.3338 N   0  0  0  0  0  0  0  0  0  0  0  0
    2.2973    3.8923    3.3450 C   0  0  0  0  0  0  0  0  0  0  0  0
    2.1697    2.7760    3.8362 O   0  0  0  0  0  0  0  0  0  0  0  0
    1.5355    4.9741    3.7261 N   0  0  0  0  0  0  0  0  0  0  0  0
    0.4456    4.8274    4.5966 C   0  0  0  0  0  0  0  0  0  0  0  0
   -0.3583    5.8853    4.7237 N   0  0  0  0  0  0  0  0  0  0  0  0
   -1.5080    5.6921    5.4109 C   0  0  0  0  0  0  0  0  0  0  0  0
   -2.4663    6.7287    5.5306 N   0  0  0  0  0  0  0  0  0  0  0  0
   -2.2356    8.1017    5.3383 C   0  0  0  0  0  0  0  0  0  0  0  0
   -3.2316    8.8995    4.7663 C   0  0  0  0  0  0  0  0  0  0  0  0
   -3.0379   10.2654    4.5866 C   0  0  0  0  0  0  0  0  0  0  0  0
   -3.9338   11.1300    4.0170 O   0  0  0  0  0  0  0  0  0  0  0  0
   -5.1511   10.5680    3.5424 C   0  0  0  0  0  0  0  0  0  0  0  0
   -1.8415   10.8512    5.0133 C   0  0  0  0  0  0  0  0  0  0  0  0
   -0.8500   10.0814    5.6229 C   0  0  0  0  0  0  0  0  0  0  0  0
    0.3393   10.5360    6.1201 O   0  0  0  0  0  0  0  0  0  0  0  0
    0.6048   11.9246    5.9872 C   0  0  0  0  0  0  0  0  0  0  0  0
   -1.0563    8.7121    5.7782 C   0  0  0  0  0  0  0  0  0  0  0  0
   -1.8511    4.4762    5.9625 C   0  0  0  0  0  0  0  0  0  0  0  0
   -0.9507    3.4768    5.8053 C   0  0  0  0  0  0  0  0  0  0  0  0
   -1.3943    1.7901    6.1979 S   0  0  0  0  0  0  0  0  0  0  0  0
   -1.8960    1.3110    4.5852 C   0  0  0  0  0  0  0  0  0  0  0  0
   -1.0595    0.8905    3.5763 C   0  0  0  0  0  0  0  0  0  0  0  0
   -1.8510    0.6655    2.4833 N   0  0  0  0  0  0  0  0  0  0  0  0
   -3.0303    1.3577    2.6434 C   0  0  0  0  0  0  0  0  0  0  0  0
   -3.9605    1.8226    1.7092 C   0  0  0  0  0  0  0  0  0  0  0  0
   -5.1215    2.4174    2.2116 C   0  0  0  0  0  0  0  0  0  0  0  0
   -5.3828    2.4391    3.5815 C   0  0  0  0  0  0  0  0  0  0  0  0
   -4.4252    1.9949    4.5003 C   0  0  0  0  0  0  0  0  0  0  0  0
   -3.1831    1.5391    4.0189 C   0  0  0  0  0  0  0  0  0  0  0  0
    0.2094    3.6462    5.1603 N   0  0  0  0  0  0  0  0  0  0  0  0
    5.0602    3.5522    0.8407 C   0  0  0  0  0  0  0  0  0  0  0  0
    5.8487    2.5714    0.2254 C   0  0  0  0  0  0  0  0  0  0  0  0
    6.9338    2.7665   -0.5949 O   0  0  0  0  0  0  0  0  0  0  0  0
    7.2976    4.1073   -0.8955 C   0  0  0  0  0  0  0  0  0  0  0  0
    5.5752    1.2074    0.4328 C   0  0  0  0  0  0  0  0  0  0  0  0
    3.3226   -2.0192    2.3802 H   0  0  0  0  0  0  0  0  0  0  0  0
    2.3203   -0.6390    1.9219 H   0  0  0  0  0  0  0  0  0  0  0  0
    3.4755   -0.5235    3.3059 H   0  0  0  0  0  0  0  0  0  0  0  0
    2.8929    1.4761    2.4182 H   0  0  0  0  0  0  0  0  0  0  0  0
    3.4549    5.1325    2.1713 H   0  0  0  0  0  0  0  0  0  0  0  0
    1.5800    5.8626    3.2593 H   0  0  0  0  0  0  0  0  0  0  0  0
   -3.3505    6.4196    5.1427 H   0  0  0  0  0  0  0  0  0  0  0  0
   -4.1540    8.4248    4.4594 H   0  0  0  0  0  0  0  0  0  0  0  0
   -5.7482   11.3751    3.1093 H   0  0  0  0  0  0  0  0  0  0  0  0
   -5.7291   10.1297    4.3633 H   0  0  0  0  0  0  0  0  0  0  0  0
   -4.9656    9.8308    2.7532 H   0  0  0  0  0  0  0  0  0  0  0  0
   -1.7229   11.9187    4.8604 H   0  0  0  0  0  0  0  0  0  0  0  0
    1.5422   12.1357    6.5105 H   0  0  0  0  0  0  0  0  0  0  0  0
   -0.1772   12.5320    6.4555 H   0  0  0  0  0  0  0  0  0  0  0  0
    0.7386   12.1916    4.9340 H   0  0  0  0  0  0  0  0  0  0  0  0
   -0.2825    8.1205    6.2681 H   0  0  0  0  0  0  0  0  0  0  0  0
   -2.7963    4.3227    6.4634 H   0  0  0  0  0  0  0  0  0  0  0  0
    0.0131    0.7442    3.5389 H   0  0  0  0  0  0  0  0  0  0  0  0
   -1.5796    0.1575    1.6525 H   0  0  0  0  0  0  0  0  0  0  0  0
   -3.7672    1.7793    0.6421 H   0  0  0  0  0  0  0  0  0  0  0  0
   -5.8396    2.8538    1.5209 H   0  0  0  0  0  0  0  0  0  0  0  0
   -6.3266    2.8377    3.9443 H   0  0  0  0  0  0  0  0  0  0  0  0
   -4.6197    2.0429    5.5670 H   0  0  0  0  0  0  0  0  0  0  0  0
    5.2639    4.6059    0.6889 H   0  0  0  0  0  0  0  0  0  0  0  0
    8.2387    4.0731   -1.4509 H   0  0  0  0  0  0  0  0  0  0  0  0
    7.4737    4.6912    0.0152 H   0  0  0  0  0  0  0  0  0  0  0  0
    6.5448    4.5810   -1.5331 H   0  0  0  0  0  0  0  0  0  0  0  0
    6.2034    0.4557   -0.0368 H   0  0  0  0  0  0  0  0  0  0  0  0
  1  2  1  0  0  0  0
  1 42  1  0  0  0  0
  1 43  1  0  0  0  0
  1 44  1  0  0  0  0
  2  3  1  0  0  0  0
  3  4  1  0  0  0  0
  3 41  2  0  0  0  0
  4  5  2  0  0  0  0
  4 45  1  0  0  0  0
  5  6  1  0  0  0  0
  5 37  1  0  0  0  0
  6  7  1  0  0  0  0
  6 46  1  0  0  0  0
  7  8  2  0  0  0  0
  7  9  1  0  0  0  0
  9 10  1  0  0  0  0
  9 47  1  0  0  0  0
 10 11  1  0  0  0  0
 10 36  2  0  0  0  0
 11 12  2  0  0  0  0
 12 13  1  0  0  0  0
 12 24  1  0  0  0  0
 13 14  1  0  0  0  0
 13 48  1  0  0  0  0
 14 15  1  0  0  0  0
 14 23  2  0  0  0  0
 15 16  2  0  0  0  0
 15 49  1  0  0  0  0
 16 17  1  0  0  0  0
 16 19  1  0  0  0  0
 17 18  1  0  0  0  0
 18 50  1  0  0  0  0
 18 51  1  0  0  0  0
 18 52  1  0  0  0  0
 19 20  2  0  0  0  0
 19 53  1  0  0  0  0
 20 21  1  0  0  0  0
 20 23  1  0  0  0  0
 21 22  1  0  0  0  0
 22 54  1  0  0  0  0
 22 55  1  0  0  0  0
 22 56  1  0  0  0  0
 23 57  1  0  0  0  0
 24 25  2  0  0  0  0
 24 58  1  0  0  0  0
 25 26  1  0  0  0  0
 25 36  1  0  0  0  0
 26 27  1  0  0  0  0
 27 28  2  0  0  0  0
 27 35  1  0  0  0  0
 28 29  1  0  0  0  0
 28 59  1  0  0  0  0
 29 30  1  0  0  0  0
 29 60  1  0  0  0  0
 30 31  1  0  0  0  0
 30 35  2  0  0  0  0
 31 32  2  0  0  0  0
 31 61  1  0  0  0  0
 32 33  1  0  0  0  0
 32 62  1  0  0  0  0
 33 34  2  0  0  0  0
 33 63  1  0  0  0  0
 34 35  1  0  0  0  0
 34 64  1  0  0  0  0
 37 38  2  0  0  0  0
 37 65  1  0  0  0  0
 38 39  1  0  0  0  0
 38 41  1  0  0  0  0
 39 40  1  0  0  0  0
 40 66  1  0  0  0  0
 40 67  1  0  0  0  0
 40 68  1  0  0  0  0
 41 69  1  0  0  0  0
M  END
$$$$
