CHEMBL1241683
 OpenBabel04072215363D

 39 42  0  0  0  0  0  0  0  0999 V2000
    1.2316   -0.0394    0.1829 C   0  0  0  0  0  0  0  0  0  0  0  0
    2.7477    0.0453   -0.0341 C   0  0  0  0  0  0  0  0  0  0  0  0
    3.1011   -0.2625   -1.4880 C   0  0  0  0  0  0  0  0  0  0  0  0
    3.2746    1.3455    0.3679 N   0  0  0  0  0  0  0  0  0  0  0  0
    2.7815    2.4556   -0.2038 N   0  0  0  0  0  0  0  0  0  0  0  0
    3.2681    3.4726    0.5341 C   0  0  0  0  0  0  0  0  0  0  0  0
    2.6315    4.7848    0.3751 C   0  0  0  0  0  0  0  0  0  0  0  0
    1.2463    4.7752    0.1525 C   0  0  0  0  0  0  0  0  0  0  0  0
    0.5126    5.9538    0.0626 C   0  0  0  0  0  0  0  0  0  0  0  0
    1.1216    7.1804    0.2088 C   0  0  0  0  0  0  0  0  0  0  0  0
    0.3339    8.2594    0.1537 N   0  0  0  0  0  0  0  0  0  0  0  0
    0.9165    9.4572    0.3210 C   0  0  0  0  0  0  0  0  0  0  0  0
   -0.1701   10.7820    0.2619 Cl  0  0  0  0  0  0  0  0  0  0  0  0
    2.2674    9.6419    0.5327 C   0  0  0  0  0  0  0  0  0  0  0  0
    3.0847    8.5108    0.5753 C   0  0  0  0  0  0  0  0  0  0  0  0
    2.5228    7.2305    0.4125 C   0  0  0  0  0  0  0  0  0  0  0  0
    3.2755    6.0256    0.4728 C   0  0  0  0  0  0  0  0  0  0  0  0
    4.2309    2.9939    1.4786 C   0  0  0  0  0  0  0  0  0  0  0  0
    5.0729    3.4880    2.4834 C   0  0  0  0  0  0  0  0  0  0  0  0
    5.2330    4.8296    2.8108 N   0  0  0  0  0  0  0  0  0  0  0  0
    5.7823    2.6135    3.2304 N   0  0  0  0  0  0  0  0  0  0  0  0
    5.6356    1.2955    3.0003 C   0  0  0  0  0  0  0  0  0  0  0  0
    4.8549    0.7040    2.0862 N   0  0  0  0  0  0  0  0  0  0  0  0
    4.1852    1.6093    1.3510 C   0  0  0  0  0  0  0  0  0  0  0  0
    0.8538   -1.0299   -0.0929 H   0  0  0  0  0  0  0  0  0  0  0  0
    0.6914    0.7002   -0.4199 H   0  0  0  0  0  0  0  0  0  0  0  0
    0.9734    0.1395    1.2325 H   0  0  0  0  0  0  0  0  0  0  0  0
    3.2219   -0.7078    0.6059 H   0  0  0  0  0  0  0  0  0  0  0  0
    2.6522    0.4650   -2.1737 H   0  0  0  0  0  0  0  0  0  0  0  0
    2.7421   -1.2569   -1.7724 H   0  0  0  0  0  0  0  0  0  0  0  0
    4.1854   -0.2358   -1.6378 H   0  0  0  0  0  0  0  0  0  0  0  0
    0.7110    3.8280    0.0531 H   0  0  0  0  0  0  0  0  0  0  0  0
   -0.5589    5.9017   -0.1020 H   0  0  0  0  0  0  0  0  0  0  0  0
    2.6749   10.6373    0.6736 H   0  0  0  0  0  0  0  0  0  0  0  0
    4.1498    8.6324    0.7462 H   0  0  0  0  0  0  0  0  0  0  0  0
    4.3565    6.0742    0.5945 H   0  0  0  0  0  0  0  0  0  0  0  0
    4.3705    5.3569    2.7782 H   0  0  0  0  0  0  0  0  0  0  0  0
    5.7275    4.8942    3.6958 H   0  0  0  0  0  0  0  0  0  0  0  0
    6.2106    0.6332    3.6406 H   0  0  0  0  0  0  0  0  0  0  0  0
  1  2  1  0  0  0  0
  1 25  1  0  0  0  0
  1 26  1  0  0  0  0
  1 27  1  0  0  0  0
  2  3  1  0  0  0  0
  2  4  1  0  0  0  0
  2 28  1  0  0  0  0
  3 29  1  0  0  0  0
  3 30  1  0  0  0  0
  3 31  1  0  0  0  0
  4  5  1  0  0  0  0
  4 24  1  0  0  0  0
  5  6  2  0  0  0  0
  6  7  1  0  0  0  0
  6 18  1  0  0  0  0
  7  8  1  0  0  0  0
  7 17  2  0  0  0  0
  8  9  2  0  0  0  0
  8 32  1  0  0  0  0
  9 10  1  0  0  0  0
  9 33  1  0  0  0  0
 10 11  1  0  0  0  0
 10 16  2  0  0  0  0
 11 12  2  0  0  0  0
 12 13  1  0  0  0  0
 12 14  1  0  0  0  0
 14 15  2  0  0  0  0
 14 34  1  0  0  0  0
 15 16  1  0  0  0  0
 15 35  1  0  0  0  0
 16 17  1  0  0  0  0
 17 36  1  0  0  0  0
 18 19  1  0  0  0  0
 18 24  2  0  0  0  0
 19 20  1  0  0  0  0
 19 21  2  0  0  0  0
 20 37  1  0  0  0  0
 20 38  1  0  0  0  0
 21 22  1  0  0  0  0
 22 23  2  0  0  0  0
 22 39  1  0  0  0  0
 23 24  1  0  0  0  0
M  END
$$$$
