CHEMBL3969156
 OpenBabel04072215373D

 53 56  0  0  0  0  0  0  0  0999 V2000
    0.6522   -0.5965    2.3778 C   0  0  0  0  0  0  0  0  0  0  0  0
    1.8309   -0.1419    1.7266 O   0  0  0  0  0  0  0  0  0  0  0  0
    2.7889   -1.0759    1.4286 C   0  0  0  0  0  0  0  0  0  0  0  0
    2.4991   -2.4424    1.2778 C   0  0  0  0  0  0  0  0  0  0  0  0
    3.4828   -3.3586    0.8777 C   0  0  0  0  0  0  0  0  0  0  0  0
    3.1363   -4.7753    0.6878 C   0  0  0  0  0  0  0  0  0  0  0  0
    2.6631   -5.3632   -0.4288 C   0  0  0  0  0  0  0  0  0  0  0  0
    2.4139   -4.6976   -1.6514 C   0  0  0  0  0  0  0  0  0  0  0  0
    3.3971   -4.4470   -2.5811 C   0  0  0  0  0  0  0  0  0  0  0  0
    3.1138   -3.2049   -3.1007 N   0  0  0  0  0  0  0  0  0  0  0  0
    4.1205   -2.3587   -3.7234 C   0  0  0  0  0  0  0  0  0  0  0  0
    4.1533   -2.4590   -5.2407 C   0  0  0  0  0  0  0  0  0  0  0  0
    2.9542   -1.9778   -5.8350 O   0  0  0  0  0  0  0  0  0  0  0  0
    1.8600   -2.7892   -2.6863 C   0  0  0  0  0  0  0  0  0  0  0  0
    1.1830   -1.5712   -2.8515 C   0  0  0  0  0  0  0  0  0  0  0  0
   -0.0814   -1.4341   -2.2688 C   0  0  0  0  0  0  0  0  0  0  0  0
   -0.6729   -2.4862   -1.5768 C   0  0  0  0  0  0  0  0  0  0  0  0
    0.0280   -3.6764   -1.3695 C   0  0  0  0  0  0  0  0  0  0  0  0
    1.3283   -3.8143   -1.8985 C   0  0  0  0  0  0  0  0  0  0  0  0
    2.4631   -6.7894   -0.1341 C   0  0  0  0  0  0  0  0  0  0  0  0
    2.0421   -7.6422   -0.8937 O   0  0  0  0  0  0  0  0  0  0  0  0
    2.8307   -6.9765    1.1553 N   0  0  0  0  0  0  0  0  0  0  0  0
    3.2250   -5.8213    1.7260 C   0  0  0  0  0  0  0  0  0  0  0  0
    3.5820   -5.6526    2.8730 O   0  0  0  0  0  0  0  0  0  0  0  0
    4.7724   -2.8907    0.5992 C   0  0  0  0  0  0  0  0  0  0  0  0
    5.0772   -1.5279    0.7324 C   0  0  0  0  0  0  0  0  0  0  0  0
    6.3326   -1.0151    0.5016 O   0  0  0  0  0  0  0  0  0  0  0  0
    7.0831   -1.6419   -0.5298 C   0  0  0  0  0  0  0  0  0  0  0  0
    4.0963   -0.6177    1.1795 C   0  0  0  0  0  0  0  0  0  0  0  0
    4.5076    0.6947    1.2613 O   0  0  0  0  0  0  0  0  0  0  0  0
    3.9365    1.4842    2.2988 C   0  0  0  0  0  0  0  0  0  0  0  0
    0.0472    0.2830    2.6196 H   0  0  0  0  0  0  0  0  0  0  0  0
    0.8953   -1.1058    3.3159 H   0  0  0  0  0  0  0  0  0  0  0  0
    0.0506   -1.2323    1.7218 H   0  0  0  0  0  0  0  0  0  0  0  0
    1.4904   -2.8118    1.4303 H   0  0  0  0  0  0  0  0  0  0  0  0
    4.3640   -4.9085   -2.7387 H   0  0  0  0  0  0  0  0  0  0  0  0
    5.0901   -2.6630   -3.3115 H   0  0  0  0  0  0  0  0  0  0  0  0
    3.9346   -1.3314   -3.3963 H   0  0  0  0  0  0  0  0  0  0  0  0
    4.3315   -3.4843   -5.5800 H   0  0  0  0  0  0  0  0  0  0  0  0
    4.9719   -1.8347   -5.6155 H   0  0  0  0  0  0  0  0  0  0  0  0
    2.2309   -2.5739   -5.5654 H   0  0  0  0  0  0  0  0  0  0  0  0
    1.6355   -0.7357   -3.3771 H   0  0  0  0  0  0  0  0  0  0  0  0
   -0.6055   -0.4848   -2.3532 H   0  0  0  0  0  0  0  0  0  0  0  0
   -1.6707   -2.3682   -1.1609 H   0  0  0  0  0  0  0  0  0  0  0  0
   -0.4195   -4.4774   -0.7873 H   0  0  0  0  0  0  0  0  0  0  0  0
    2.7843   -7.8575    1.6363 H   0  0  0  0  0  0  0  0  0  0  0  0
    5.5362   -3.5965    0.2899 H   0  0  0  0  0  0  0  0  0  0  0  0
    7.8981   -0.9662   -0.8092 H   0  0  0  0  0  0  0  0  0  0  0  0
    6.4759   -1.8165   -1.4242 H   0  0  0  0  0  0  0  0  0  0  0  0
    7.5305   -2.5737   -0.1717 H   0  0  0  0  0  0  0  0  0  0  0  0
    4.6300    2.3041    2.5142 H   0  0  0  0  0  0  0  0  0  0  0  0
    3.7954    0.9212    3.2283 H   0  0  0  0  0  0  0  0  0  0  0  0
    3.0015    1.9423    1.9624 H   0  0  0  0  0  0  0  0  0  0  0  0
  1  2  1  0  0  0  0
  1 32  1  0  0  0  0
  1 33  1  0  0  0  0
  1 34  1  0  0  0  0
  2  3  1  0  0  0  0
  3  4  1  0  0  0  0
  3 29  2  0  0  0  0
  4  5  2  0  0  0  0
  4 35  1  0  0  0  0
  5  6  1  0  0  0  0
  5 25  1  0  0  0  0
  6  7  2  0  0  0  0
  6 23  1  0  0  0  0
  7  8  1  0  0  0  0
  7 20  1  0  0  0  0
  8  9  2  0  0  0  0
  8 19  1  0  0  0  0
  9 10  1  0  0  0  0
  9 36  1  0  0  0  0
 10 11  1  0  0  0  0
 10 14  1  0  0  0  0
 11 12  1  0  0  0  0
 11 37  1  0  0  0  0
 11 38  1  0  0  0  0
 12 13  1  0  0  0  0
 12 39  1  0  0  0  0
 12 40  1  0  0  0  0
 13 41  1  0  0  0  0
 14 15  1  0  0  0  0
 14 19  2  0  0  0  0
 15 16  2  0  0  0  0
 15 42  1  0  0  0  0
 16 17  1  0  0  0  0
 16 43  1  0  0  0  0
 17 18  2  0  0  0  0
 17 44  1  0  0  0  0
 18 19  1  0  0  0  0
 18 45  1  0  0  0  0
 20 21  2  0  0  0  0
 20 22  1  0  0  0  0
 22 23  1  0  0  0  0
 22 46  1  0  0  0  0
 23 24  2  0  0  0  0
 25 26  2  0  0  0  0
 25 47  1  0  0  0  0
 26 27  1  0  0  0  0
 26 29  1  0  0  0  0
 27 28  1  0  0  0  0
 28 48  1  0  0  0  0
 28 49  1  0  0  0  0
 28 50  1  0  0  0  0
 29 30  1  0  0  0  0
 30 31  1  0  0  0  0
 31 51  1  0  0  0  0
 31 52  1  0  0  0  0
 31 53  1  0  0  0  0
M  END
$$$$
