CHEMBL410130
 OpenBabel04072215383D

 45 48  0  0  0  0  0  0  0  0999 V2000
    2.3802   -0.4625    1.4864 C   0  0  0  0  0  0  0  0  0  0  0  0
    0.8854   -0.3261    1.4630 C   0  0  0  0  0  0  0  0  0  0  0  0
    0.2950    0.8754    1.8692 C   0  0  0  0  0  0  0  0  0  0  0  0
   -1.0861    1.0123    1.8613 C   0  0  0  0  0  0  0  0  0  0  0  0
   -1.8887   -0.0512    1.4419 C   0  0  0  0  0  0  0  0  0  0  0  0
   -1.3269   -1.2576    1.0123 C   0  0  0  0  0  0  0  0  0  0  0  0
   -2.1101   -2.3578    0.5653 N   0  0  0  0  0  0  0  0  0  0  0  0
   -3.4762   -2.3372    0.3576 C   0  0  0  0  0  0  0  0  0  0  0  0
   -4.1868   -1.3412    0.4394 O   0  0  0  0  0  0  0  0  0  0  0  0
   -3.9867   -3.6030    0.0790 N   0  0  0  0  0  0  0  0  0  0  0  0
   -5.3752   -3.7756   -0.1534 C   0  0  0  0  0  0  0  0  0  0  0  0
   -6.1082   -2.8696   -0.9227 C   0  0  0  0  0  0  0  0  0  0  0  0
   -7.5039   -2.9578   -0.9985 C   0  0  0  0  0  0  0  0  0  0  0  0
   -8.2096   -3.9683   -0.3274 C   0  0  0  0  0  0  0  0  0  0  0  0
   -9.6892   -4.0204   -0.3479 C   0  0  0  0  0  0  0  0  0  0  0  0
  -10.4252   -3.7024   -1.5204 C   0  0  0  0  0  0  0  0  0  0  0  0
  -11.8179   -3.8136   -1.5928 C   0  0  0  0  0  0  0  0  0  0  0  0
  -12.5516   -4.2778   -0.5060 C   0  0  0  0  0  0  0  0  0  0  0  0
  -11.8284   -4.5487    0.6512 C   0  0  0  0  0  0  0  0  0  0  0  0
  -12.3699   -4.9892    1.8151 O   0  0  0  0  0  0  0  0  0  0  0  0
  -11.3861   -5.0806    2.7762 N   0  0  0  0  0  0  0  0  0  0  0  0
  -10.2598   -4.6803    2.1827 C   0  0  0  0  0  0  0  0  0  0  0  0
   -9.1011   -4.5242    2.8565 N   0  0  0  0  0  0  0  0  0  0  0  0
  -10.4544   -4.4008    0.7923 C   0  0  0  0  0  0  0  0  0  0  0  0
   -7.4369   -4.9377    0.3413 C   0  0  0  0  0  0  0  0  0  0  0  0
   -6.0401   -4.8423    0.4408 C   0  0  0  0  0  0  0  0  0  0  0  0
    0.0693   -1.3876    1.0297 C   0  0  0  0  0  0  0  0  0  0  0  0
    2.8579    0.4414    1.8823 H   0  0  0  0  0  0  0  0  0  0  0  0
    2.7627   -0.6265    0.4749 H   0  0  0  0  0  0  0  0  0  0  0  0
    2.6728   -1.2976    2.1301 H   0  0  0  0  0  0  0  0  0  0  0  0
    0.9080    1.7084    2.2049 H   0  0  0  0  0  0  0  0  0  0  0  0
   -1.5492    1.9409    2.1808 H   0  0  0  0  0  0  0  0  0  0  0  0
   -2.9593    0.1135    1.4661 H   0  0  0  0  0  0  0  0  0  0  0  0
   -1.6118   -3.1730    0.2469 H   0  0  0  0  0  0  0  0  0  0  0  0
   -3.5123   -4.3614    0.5473 H   0  0  0  0  0  0  0  0  0  0  0  0
   -5.6072   -2.0583   -1.4469 H   0  0  0  0  0  0  0  0  0  0  0  0
   -8.0275   -2.1942   -1.5700 H   0  0  0  0  0  0  0  0  0  0  0  0
   -9.8998   -3.3727   -2.4162 H   0  0  0  0  0  0  0  0  0  0  0  0
  -12.3327   -3.5522   -2.5152 H   0  0  0  0  0  0  0  0  0  0  0  0
  -13.6275   -4.4013   -0.5429 H   0  0  0  0  0  0  0  0  0  0  0  0
   -9.1711   -4.5398    3.8690 H   0  0  0  0  0  0  0  0  0  0  0  0
   -8.4367   -3.8303    2.5245 H   0  0  0  0  0  0  0  0  0  0  0  0
   -7.9244   -5.7735    0.8415 H   0  0  0  0  0  0  0  0  0  0  0  0
   -5.5091   -5.5698    1.0476 H   0  0  0  0  0  0  0  0  0  0  0  0
    0.5361   -2.3174    0.7145 H   0  0  0  0  0  0  0  0  0  0  0  0
  1  2  1  0  0  0  0
  1 28  1  0  0  0  0
  1 29  1  0  0  0  0
  1 30  1  0  0  0  0
  2  3  1  0  0  0  0
  2 27  2  0  0  0  0
  3  4  2  0  0  0  0
  3 31  1  0  0  0  0
  4  5  1  0  0  0  0
  4 32  1  0  0  0  0
  5  6  2  0  0  0  0
  5 33  1  0  0  0  0
  6  7  1  0  0  0  0
  6 27  1  0  0  0  0
  7  8  1  0  0  0  0
  7 34  1  0  0  0  0
  8  9  2  0  0  0  0
  8 10  1  0  0  0  0
 10 11  1  0  0  0  0
 10 35  1  0  0  0  0
 11 12  1  0  0  0  0
 11 26  2  0  0  0  0
 12 13  2  0  0  0  0
 12 36  1  0  0  0  0
 13 14  1  0  0  0  0
 13 37  1  0  0  0  0
 14 15  1  0  0  0  0
 14 25  2  0  0  0  0
 15 16  1  0  0  0  0
 15 24  2  0  0  0  0
 16 17  2  0  0  0  0
 16 38  1  0  0  0  0
 17 18  1  0  0  0  0
 17 39  1  0  0  0  0
 18 19  2  0  0  0  0
 18 40  1  0  0  0  0
 19 20  1  0  0  0  0
 19 24  1  0  0  0  0
 20 21  1  0  0  0  0
 21 22  2  0  0  0  0
 22 23  1  0  0  0  0
 22 24  1  0  0  0  0
 23 41  1  0  0  0  0
 23 42  1  0  0  0  0
 25 26  1  0  0  0  0
 25 43  1  0  0  0  0
 26 44  1  0  0  0  0
 27 45  1  0  0  0  0
M  END
$$$$
