CHEMBL3808622
 OpenBabel04072215373D

 54 58  0  0  0  0  0  0  0  0999 V2000
   -0.8006    0.3990    1.7337 C   0  0  0  0  0  0  0  0  0  0  0  0
    0.3271   -0.5963    1.4085 C   0  0  0  0  0  0  0  0  0  0  0  0
   -0.1311   -2.0177    1.7907 C   0  0  0  0  0  0  0  0  0  0  0  0
    0.5709   -0.5725   -0.1192 C   0  0  0  0  0  0  0  0  0  0  0  0
    1.5624   -0.2130    2.1820 C   0  0  0  0  0  0  0  0  0  0  0  0
    1.7840   -0.0766    3.5579 C   0  0  0  0  0  0  0  0  0  0  0  0
    3.1025    0.4345    3.6774 C   0  0  0  0  0  0  0  0  0  0  0  0
    3.7179    0.7964    4.8647 N   0  0  0  0  0  0  0  0  0  0  0  0
    5.0364    1.0971    4.9026 C   0  0  0  0  0  0  0  0  0  0  0  0
    5.9153    1.0674    4.0557 O   0  0  0  0  0  0  0  0  0  0  0  0
    5.4926    1.3640    6.2193 N   0  0  0  0  0  0  0  0  0  0  0  0
    6.7117    0.9158    6.7009 C   0  0  0  0  0  0  0  0  0  0  0  0
    6.8898    1.3307    7.9885 C   0  0  0  0  0  0  0  0  0  0  0  0
    5.7626    2.1081    8.3474 C   0  0  0  0  0  0  0  0  0  0  0  0
    5.4382    2.8401    9.5085 C   0  0  0  0  0  0  0  0  0  0  0  0
    4.2588    3.5958    9.5623 C   0  0  0  0  0  0  0  0  0  0  0  0
    4.0665    4.3268   10.7271 O   0  0  0  0  0  0  0  0  0  0  0  0
    3.3121    5.4900   10.6269 C   0  0  0  0  0  0  0  0  0  0  0  0
    3.4897    6.2762    9.5425 N   0  0  0  0  0  0  0  0  0  0  0  0
    2.4502    7.0574    9.2019 C   0  0  0  0  0  0  0  0  0  0  0  0
    1.2524    7.0827    9.8058 N   0  0  0  0  0  0  0  0  0  0  0  0
    1.1955    6.3486   10.9256 C   0  0  0  0  0  0  0  0  0  0  0  0
    2.2451    5.6317   11.4656 C   0  0  0  0  0  0  0  0  0  0  0  0
    1.7088    4.7972   12.5713 C   0  0  0  0  0  0  0  0  0  0  0  0
    0.3953    4.3914   12.0186 N   0  0  0  0  0  0  0  0  0  0  0  0
   -0.0754    5.7218   11.4875 C   0  0  0  0  0  0  0  0  0  0  0  0
    3.3708    3.5404    8.4846 C   0  0  0  0  0  0  0  0  0  0  0  0
    3.6715    2.8364    7.3080 C   0  0  0  0  0  0  0  0  0  0  0  0
    4.8754    2.1002    7.2586 C   0  0  0  0  0  0  0  0  0  0  0  0
    3.6757    0.5598    2.4784 N   0  0  0  0  0  0  0  0  0  0  0  0
    2.7553    0.1542    1.6054 N   0  0  0  0  0  0  0  0  0  0  0  0
   -1.7257    0.1450    1.2054 H   0  0  0  0  0  0  0  0  0  0  0  0
   -0.5202    1.4199    1.4476 H   0  0  0  0  0  0  0  0  0  0  0  0
   -1.0271    0.4113    2.8066 H   0  0  0  0  0  0  0  0  0  0  0  0
   -1.0378   -2.2975    1.2486 H   0  0  0  0  0  0  0  0  0  0  0  0
   -0.3507   -2.0952    2.8606 H   0  0  0  0  0  0  0  0  0  0  0  0
    0.6383   -2.7623    1.5570 H   0  0  0  0  0  0  0  0  0  0  0  0
   -0.3393   -0.8308   -0.6700 H   0  0  0  0  0  0  0  0  0  0  0  0
    1.3476   -1.2883   -0.4130 H   0  0  0  0  0  0  0  0  0  0  0  0
    0.8865    0.4208   -0.4576 H   0  0  0  0  0  0  0  0  0  0  0  0
    1.0791   -0.2790    4.3375 H   0  0  0  0  0  0  0  0  0  0  0  0
    3.1824    0.6704    5.7105 H   0  0  0  0  0  0  0  0  0  0  0  0
    7.3306    0.3188    6.0464 H   0  0  0  0  0  0  0  0  0  0  0  0
    7.7591    1.1323    8.5943 H   0  0  0  0  0  0  0  0  0  0  0  0
    6.1374    2.8675   10.3420 H   0  0  0  0  0  0  0  0  0  0  0  0
    2.5683    7.6579    8.3067 H   0  0  0  0  0  0  0  0  0  0  0  0
    1.4701    5.4218   13.4490 H   0  0  0  0  0  0  0  0  0  0  0  0
    2.3799    4.0122   12.9325 H   0  0  0  0  0  0  0  0  0  0  0  0
    0.5952    3.8048   11.1980 H   0  0  0  0  0  0  0  0  0  0  0  0
   -0.4513    6.3131   12.3289 H   0  0  0  0  0  0  0  0  0  0  0  0
   -0.8542    5.6028   10.7307 H   0  0  0  0  0  0  0  0  0  0  0  0
    2.4341    4.0895    8.5140 H   0  0  0  0  0  0  0  0  0  0  0  0
    3.0065    2.9067    6.4533 H   0  0  0  0  0  0  0  0  0  0  0  0
    3.0006    0.1834    0.6241 H   0  0  0  0  0  0  0  0  0  0  0  0
  1  2  1  0  0  0  0
  1 32  1  0  0  0  0
  1 33  1  0  0  0  0
  1 34  1  0  0  0  0
  2  3  1  0  0  0  0
  2  4  1  0  0  0  0
  2  5  1  0  0  0  0
  3 35  1  0  0  0  0
  3 36  1  0  0  0  0
  3 37  1  0  0  0  0
  4 38  1  0  0  0  0
  4 39  1  0  0  0  0
  4 40  1  0  0  0  0
  5  6  2  0  0  0  0
  5 31  1  0  0  0  0
  6  7  1  0  0  0  0
  6 41  1  0  0  0  0
  7  8  1  0  0  0  0
  7 30  2  0  0  0  0
  8  9  1  0  0  0  0
  8 42  1  0  0  0  0
  9 10  2  0  0  0  0
  9 11  1  0  0  0  0
 11 12  1  0  0  0  0
 11 29  1  0  0  0  0
 12 13  2  0  0  0  0
 12 43  1  0  0  0  0
 13 14  1  0  0  0  0
 13 44  1  0  0  0  0
 14 15  1  0  0  0  0
 14 29  2  0  0  0  0
 15 16  2  0  0  0  0
 15 45  1  0  0  0  0
 16 17  1  0  0  0  0
 16 27  1  0  0  0  0
 17 18  1  0  0  0  0
 18 19  1  0  0  0  0
 18 23  2  0  0  0  0
 19 20  2  0  0  0  0
 20 21  1  0  0  0  0
 20 46  1  0  0  0  0
 21 22  2  0  0  0  0
 22 23  1  0  0  0  0
 22 26  1  0  0  0  0
 23 24  1  0  0  0  0
 24 25  1  0  0  0  0
 24 47  1  0  0  0  0
 24 48  1  0  0  0  0
 25 26  1  0  0  0  0
 25 49  1  0  0  0  0
 26 50  1  0  0  0  0
 26 51  1  0  0  0  0
 27 28  2  0  0  0  0
 27 52  1  0  0  0  0
 28 29  1  0  0  0  0
 28 53  1  0  0  0  0
 30 31  1  0  0  0  0
 31 54  1  0  0  0  0
M  END
$$$$
