CHEMBL1668415
 OpenBabel04072215363D

 50 51  0  0  1  0  0  0  0  0999 V2000
    1.1842    0.1876   -0.5933 C   0  0  0  0  0  0  0  0  0  0  0  0
    2.5421   -0.0351   -0.2293 O   0  0  0  0  0  0  0  0  0  0  0  0
    3.1655   -1.0926   -0.8353 C   0  0  0  0  0  0  0  0  0  0  0  0
    2.8314   -1.6226   -2.0791 C   0  0  0  0  0  0  0  0  0  0  0  0
    3.5667   -2.6937   -2.5928 C   0  0  0  0  0  0  0  0  0  0  0  0
    3.2372   -3.2098   -3.8161 O   0  0  0  0  0  0  0  0  0  0  0  0
    4.6339   -3.2395   -1.8666 C   0  0  0  0  0  0  0  0  0  0  0  0
    4.9901   -2.7150   -0.6051 C   0  0  0  0  0  0  0  0  0  0  0  0
    4.2487   -1.6213   -0.1229 C   0  0  0  0  0  0  0  0  0  0  0  0
    6.1807   -3.2686    0.1550 C   0  0  0  0  0  0  0  0  0  0  0  0
    6.2047   -3.0596    1.6756 C   0  0  0  0  0  0  0  0  0  0  0  0
    7.5186   -3.4411    2.3759 C   0  0  0  0  0  0  0  0  0  0  0  0
    8.1950   -4.7315    1.9025 C   0  0  0  0  0  0  0  0  0  0  0  0
    9.3888   -4.4215    1.0018 C   0  0  0  0  0  0  0  0  0  0  0  0
    9.9101   -5.6533    0.2905 C   0  0  0  0  0  0  0  0  0  0  0  0
   10.1898   -6.6818    0.9033 O   0  0  0  0  0  0  0  0  0  0  0  0
   10.0652   -5.5541   -1.2145 C   0  0  0  0  0  0  0  0  0  0  0  0
    8.7430   -5.8983   -1.8962 C   0  0  2  0  0  0  0  0  0  0  0  0
    8.7361   -7.8413   -2.2564 Br  0  0  0  0  0  0  0  0  0  0  0  0
    8.5618   -5.1542   -3.2253 C   0  0  0  0  0  0  0  0  0  0  0  0
    7.1110   -5.2091   -3.7416 C   0  0  2  0  0  0  0  0  0  0  0  0
    7.0774   -5.0409   -5.2579 C   0  0  0  0  0  0  0  0  0  0  0  0
    6.3700   -4.1089   -3.1558 O   0  0  0  0  0  0  0  0  0  0  0  0
    5.3021   -4.4527   -2.3910 C   0  0  0  0  0  0  0  0  0  0  0  0
    4.9568   -5.5758   -2.0705 O   0  0  0  0  0  0  0  0  0  0  0  0
    0.7946    0.9872    0.0446 H   0  0  0  0  0  0  0  0  0  0  0  0
    0.5787   -0.7079   -0.4178 H   0  0  0  0  0  0  0  0  0  0  0  0
    1.0987    0.5255   -1.6302 H   0  0  0  0  0  0  0  0  0  0  0  0
    2.0170   -1.2026   -2.6582 H   0  0  0  0  0  0  0  0  0  0  0  0
    2.4499   -2.7567   -4.1604 H   0  0  0  0  0  0  0  0  0  0  0  0
    4.4855   -1.1569    0.8305 H   0  0  0  0  0  0  0  0  0  0  0  0
    7.0786   -2.8294   -0.2931 H   0  0  0  0  0  0  0  0  0  0  0  0
    6.2161   -4.3494   -0.0152 H   0  0  0  0  0  0  0  0  0  0  0  0
    5.3798   -3.6277    2.1243 H   0  0  0  0  0  0  0  0  0  0  0  0
    6.0255   -2.0089    1.9273 H   0  0  0  0  0  0  0  0  0  0  0  0
    7.3025   -3.5312    3.4481 H   0  0  0  0  0  0  0  0  0  0  0  0
    8.2186   -2.6000    2.2869 H   0  0  0  0  0  0  0  0  0  0  0  0
    7.4848   -5.4048    1.4107 H   0  0  0  0  0  0  0  0  0  0  0  0
    8.5621   -5.2808    2.7785 H   0  0  0  0  0  0  0  0  0  0  0  0
   10.2148   -3.9984    1.5848 H   0  0  0  0  0  0  0  0  0  0  0  0
    9.1141   -3.6753    0.2503 H   0  0  0  0  0  0  0  0  0  0  0  0
   10.8994   -6.1934   -1.5257 H   0  0  0  0  0  0  0  0  0  0  0  0
   10.3755   -4.5259   -1.4368 H   0  0  0  0  0  0  0  0  0  0  0  0
    7.8876   -5.7332   -1.2353 H   0  0  0  0  0  0  0  0  0  0  0  0
    9.2522   -5.5670   -3.9717 H   0  0  0  0  0  0  0  0  0  0  0  0
    8.8345   -4.0997   -3.0832 H   0  0  0  0  0  0  0  0  0  0  0  0
    6.6521   -6.1761   -3.5130 H   0  0  0  0  0  0  0  0  0  0  0  0
    7.5351   -4.0951   -5.5639 H   0  0  0  0  0  0  0  0  0  0  0  0
    6.0443   -5.0325   -5.6188 H   0  0  0  0  0  0  0  0  0  0  0  0
    7.6077   -5.8625   -5.7503 H   0  0  0  0  0  0  0  0  0  0  0  0
  1  2  1  0  0  0  0
  1 26  1  0  0  0  0
  1 27  1  0  0  0  0
  1 28  1  0  0  0  0
  2  3  1  0  0  0  0
  3  4  1  0  0  0  0
  3  9  2  0  0  0  0
  4  5  2  0  0  0  0
  4 29  1  0  0  0  0
  5  6  1  0  0  0  0
  5  7  1  0  0  0  0
  6 30  1  0  0  0  0
  7  8  2  0  0  0  0
  7 24  1  0  0  0  0
  8  9  1  0  0  0  0
  8 10  1  0  0  0  0
  9 31  1  0  0  0  0
 10 11  1  0  0  0  0
 10 32  1  0  0  0  0
 10 33  1  0  0  0  0
 11 12  1  0  0  0  0
 11 34  1  0  0  0  0
 11 35  1  0  0  0  0
 12 13  1  0  0  0  0
 12 36  1  0  0  0  0
 12 37  1  0  0  0  0
 13 14  1  0  0  0  0
 13 38  1  0  0  0  0
 13 39  1  0  0  0  0
 14 15  1  0  0  0  0
 14 40  1  0  0  0  0
 14 41  1  0  0  0  0
 15 16  2  0  0  0  0
 15 17  1  0  0  0  0
 17 18  1  0  0  0  0
 17 42  1  0  0  0  0
 17 43  1  0  0  0  0
 18 20  1  0  0  0  0
 18 19  1  0  0  0  0
 18 44  1  1  0  0  0
 20 21  1  0  0  0  0
 20 45  1  0  0  0  0
 20 46  1  0  0  0  0
 21 23  1  0  0  0  0
 21 22  1  0  0  0  0
 21 47  1  1  0  0  0
 22 48  1  0  0  0  0
 22 49  1  0  0  0  0
 22 50  1  0  0  0  0
 23 24  1  0  0  0  0
 24 25  2  0  0  0  0
M  END
$$$$
