CHEMBL263902
 OpenBabel04072215363D

 34 36  0  0  0  0  0  0  0  0999 V2000
    0.1212    1.4645    2.3950 C   0  0  0  0  0  0  0  0  0  0  0  0
   -0.1949    0.7395    1.1205 C   0  0  0  0  0  0  0  0  0  0  0  0
    0.1555    1.2800   -0.1218 C   0  0  0  0  0  0  0  0  0  0  0  0
   -0.1305    0.5896   -1.3002 C   0  0  0  0  0  0  0  0  0  0  0  0
   -0.7754   -0.6459   -1.2509 C   0  0  0  0  0  0  0  0  0  0  0  0
   -1.1497   -1.1886   -0.0185 C   0  0  0  0  0  0  0  0  0  0  0  0
   -1.8668   -2.4942    0.0719 C   0  0  0  0  0  0  0  0  0  0  0  0
   -1.6854   -3.2300    1.1254 N   0  0  0  0  0  0  0  0  0  0  0  0
   -2.3798   -4.4626    1.2534 C   0  0  0  0  0  0  0  0  0  0  0  0
   -2.9021   -4.8116    2.5055 C   0  0  0  0  0  0  0  0  0  0  0  0
   -2.8656   -3.8830    3.5614 N   0  0  0  0  0  0  0  0  0  0  0  0
   -3.5211   -5.9730    2.7617 N   0  0  0  0  0  0  0  0  0  0  0  0
   -3.6010   -6.8188    1.7280 C   0  0  0  0  0  0  0  0  0  0  0  0
   -3.1393   -6.6117    0.4861 N   0  0  0  0  0  0  0  0  0  0  0  0
   -2.5335   -5.4304    0.2573 C   0  0  0  0  0  0  0  0  0  0  0  0
   -2.0484   -5.3041   -1.0376 N   0  0  0  0  0  0  0  0  0  0  0  0
   -2.2075   -4.0747   -1.8027 C   0  0  0  0  0  0  0  0  0  0  0  0
   -2.7984   -2.8929   -1.0539 C   0  0  0  0  0  0  0  0  0  0  0  0
   -0.8454   -0.5008    1.1643 C   0  0  0  0  0  0  0  0  0  0  0  0
    0.5902    2.4342    2.1981 H   0  0  0  0  0  0  0  0  0  0  0  0
    0.8125    0.8732    3.0040 H   0  0  0  0  0  0  0  0  0  0  0  0
   -0.7962    1.6463    2.9638 H   0  0  0  0  0  0  0  0  0  0  0  0
    0.6596    2.2420   -0.1807 H   0  0  0  0  0  0  0  0  0  0  0  0
    0.1547    1.0141   -2.2596 H   0  0  0  0  0  0  0  0  0  0  0  0
   -0.9597   -1.1716   -2.1820 H   0  0  0  0  0  0  0  0  0  0  0  0
   -1.9669   -3.4082    3.5601 H   0  0  0  0  0  0  0  0  0  0  0  0
   -3.1062   -4.3546    4.4245 H   0  0  0  0  0  0  0  0  0  0  0  0
   -4.0915   -7.7688    1.9122 H   0  0  0  0  0  0  0  0  0  0  0  0
   -2.3314   -6.1425   -1.5400 H   0  0  0  0  0  0  0  0  0  0  0  0
   -2.8505   -4.2924   -2.6641 H   0  0  0  0  0  0  0  0  0  0  0  0
   -1.2254   -3.8081   -2.2104 H   0  0  0  0  0  0  0  0  0  0  0  0
   -3.7872   -3.1258   -0.6414 H   0  0  0  0  0  0  0  0  0  0  0  0
   -2.9585   -2.0603   -1.7449 H   0  0  0  0  0  0  0  0  0  0  0  0
   -1.1255   -0.9286    2.1257 H   0  0  0  0  0  0  0  0  0  0  0  0
  1  2  1  0  0  0  0
  1 20  1  0  0  0  0
  1 21  1  0  0  0  0
  1 22  1  0  0  0  0
  2  3  1  0  0  0  0
  2 19  2  0  0  0  0
  3  4  2  0  0  0  0
  3 23  1  0  0  0  0
  4  5  1  0  0  0  0
  4 24  1  0  0  0  0
  5  6  2  0  0  0  0
  5 25  1  0  0  0  0
  6  7  1  0  0  0  0
  6 19  1  0  0  0  0
  7  8  2  0  0  0  0
  7 18  1  0  0  0  0
  8  9  1  0  0  0  0
  9 10  1  0  0  0  0
  9 15  2  0  0  0  0
 10 11  1  0  0  0  0
 10 12  2  0  0  0  0
 11 26  1  0  0  0  0
 11 27  1  0  0  0  0
 12 13  1  0  0  0  0
 13 14  2  0  0  0  0
 13 28  1  0  0  0  0
 14 15  1  0  0  0  0
 15 16  1  0  0  0  0
 16 17  1  0  0  0  0
 16 29  1  0  0  0  0
 17 18  1  0  0  0  0
 17 30  1  0  0  0  0
 17 31  1  0  0  0  0
 18 32  1  0  0  0  0
 18 33  1  0  0  0  0
 19 34  1  0  0  0  0
M  END
$$$$
