CHEMBL218576
 OpenBabel04072215363D

 70 74  0  0  0  0  0  0  0  0999 V2000
    5.5197   -1.2778   11.4672 C   0  0  0  0  0  0  0  0  0  0  0  0
    5.4860   -2.5111   10.7166 N   0  0  0  0  0  0  0  0  0  0  0  0
    4.7004   -2.5167    9.5760 C   0  0  0  0  0  0  0  0  0  0  0  0
    4.1038   -3.6794    9.2992 N   0  0  0  0  0  0  0  0  0  0  0  0
    3.3847   -3.7397    8.1671 C   0  0  0  0  0  0  0  0  0  0  0  0
    3.2379   -2.6849    7.2996 C   0  0  0  0  0  0  0  0  0  0  0  0
    3.8815   -1.5163    7.6507 C   0  0  0  0  0  0  0  0  0  0  0  0
    3.8259   -0.2708    6.8554 C   0  0  0  0  0  0  0  0  0  0  0  0
    3.8296    0.9733    7.5216 C   0  0  0  0  0  0  0  0  0  0  0  0
    3.8267    2.1779    6.8213 C   0  0  0  0  0  0  0  0  0  0  0  0
    3.7864    2.1250    5.4463 C   0  0  0  0  0  0  0  0  0  0  0  0
    3.7520    0.9718    4.7546 N   0  0  0  0  0  0  0  0  0  0  0  0
    3.8108   -0.1982    5.4541 C   0  0  0  0  0  0  0  0  0  0  0  0
    3.8896   -1.3814    4.7131 O   0  0  0  0  0  0  0  0  0  0  0  0
    4.3709   -1.2999    3.4158 C   0  0  0  0  0  0  0  0  0  0  0  0
    5.4991   -0.5235    3.1046 C   0  0  0  0  0  0  0  0  0  0  0  0
    5.9239   -0.3860    1.7788 C   0  0  0  0  0  0  0  0  0  0  0  0
    6.9477    0.6207    1.3458 C   0  0  0  0  0  0  0  0  0  0  0  0
    7.2488    0.6807    0.1552 O   0  0  0  0  0  0  0  0  0  0  0  0
    7.4815    1.4253    2.3385 N   0  0  0  0  0  0  0  0  0  0  0  0
    8.2295    2.5935    2.0485 C   0  0  0  0  0  0  0  0  0  0  0  0
    9.4526    2.7182    2.7287 C   0  0  0  0  0  0  0  0  0  0  0  0
   10.3405    3.7589    2.4309 C   0  0  0  0  0  0  0  0  0  0  0  0
   11.6903    3.8471    3.0923 C   0  0  0  0  0  0  0  0  0  0  0  0
   11.9257    2.8443    3.9848 F   0  0  0  0  0  0  0  0  0  0  0  0
   12.7148    3.7953    2.1965 F   0  0  0  0  0  0  0  0  0  0  0  0
   11.8580    5.0071    3.7856 F   0  0  0  0  0  0  0  0  0  0  0  0
    9.9635    4.7055    1.4755 C   0  0  0  0  0  0  0  0  0  0  0  0
    8.7176    4.6196    0.8467 C   0  0  0  0  0  0  0  0  0  0  0  0
    7.8040    3.5833    1.1245 C   0  0  0  0  0  0  0  0  0  0  0  0
    6.5321    3.6494    0.5733 N   0  0  0  0  0  0  0  0  0  0  0  0
    6.3195    4.0140   -0.8270 C   0  0  0  0  0  0  0  0  0  0  0  0
    5.3884    5.2261   -0.8929 C   0  0  0  0  0  0  0  0  0  0  0  0
    4.0918    4.9682   -0.1231 C   0  0  0  0  0  0  0  0  0  0  0  0
    4.3842    4.5268    1.3101 C   0  0  0  0  0  0  0  0  0  0  0  0
    5.3321    3.3278    1.3422 C   0  0  0  0  0  0  0  0  0  0  0  0
    5.2784   -1.1273    0.7847 C   0  0  0  0  0  0  0  0  0  0  0  0
    4.2007   -1.9551    1.0959 C   0  0  0  0  0  0  0  0  0  0  0  0
    3.7216   -2.0394    2.4110 C   0  0  0  0  0  0  0  0  0  0  0  0
    2.5123   -2.8814    2.6994 C   0  0  0  0  0  0  0  0  0  0  0  0
    4.5955   -1.4276    8.8030 N   0  0  0  0  0  0  0  0  0  0  0  0
    6.1872   -1.4017   12.3238 H   0  0  0  0  0  0  0  0  0  0  0  0
    4.5289   -1.0179   11.8544 H   0  0  0  0  0  0  0  0  0  0  0  0
    5.9073   -0.4437   10.8721 H   0  0  0  0  0  0  0  0  0  0  0  0
    5.2267   -3.3368   11.2453 H   0  0  0  0  0  0  0  0  0  0  0  0
    2.9156   -4.6996    7.9698 H   0  0  0  0  0  0  0  0  0  0  0  0
    2.6366   -2.7855    6.4070 H   0  0  0  0  0  0  0  0  0  0  0  0
    3.8513    1.0050    8.6104 H   0  0  0  0  0  0  0  0  0  0  0  0
    3.8595    3.1286    7.3415 H   0  0  0  0  0  0  0  0  0  0  0  0
    3.7953    3.0294    4.8447 H   0  0  0  0  0  0  0  0  0  0  0  0
    5.9839    0.0255    3.9035 H   0  0  0  0  0  0  0  0  0  0  0  0
    7.6485    0.9932    3.2353 H   0  0  0  0  0  0  0  0  0  0  0  0
    9.7493    1.9583    3.4494 H   0  0  0  0  0  0  0  0  0  0  0  0
   10.6304    5.5280    1.2214 H   0  0  0  0  0  0  0  0  0  0  0  0
    8.4410    5.4153    0.1590 H   0  0  0  0  0  0  0  0  0  0  0  0
    5.8600    3.1671   -1.3515 H   0  0  0  0  0  0  0  0  0  0  0  0
    7.2512    4.2320   -1.3613 H   0  0  0  0  0  0  0  0  0  0  0  0
    5.1583    5.4661   -1.9365 H   0  0  0  0  0  0  0  0  0  0  0  0
    5.8926    6.1008   -0.4628 H   0  0  0  0  0  0  0  0  0  0  0  0
    3.5121    4.1896   -0.6337 H   0  0  0  0  0  0  0  0  0  0  0  0
    3.4768    5.8748   -0.1130 H   0  0  0  0  0  0  0  0  0  0  0  0
    3.4494    4.2731    1.8219 H   0  0  0  0  0  0  0  0  0  0  0  0
    4.8382    5.3617    1.8589 H   0  0  0  0  0  0  0  0  0  0  0  0
    4.8343    2.4550    0.9032 H   0  0  0  0  0  0  0  0  0  0  0  0
    5.5451    3.1023    2.3919 H   0  0  0  0  0  0  0  0  0  0  0  0
    5.5919   -1.0331   -0.2564 H   0  0  0  0  0  0  0  0  0  0  0  0
    3.7152   -2.5060    0.2921 H   0  0  0  0  0  0  0  0  0  0  0  0
    2.1073   -3.3245    1.7818 H   0  0  0  0  0  0  0  0  0  0  0  0
    1.7195   -2.2703    3.1415 H   0  0  0  0  0  0  0  0  0  0  0  0
    2.7698   -3.6991    3.3784 H   0  0  0  0  0  0  0  0  0  0  0  0
  1  2  1  0  0  0  0
  1 42  1  0  0  0  0
  1 43  1  0  0  0  0
  1 44  1  0  0  0  0
  2  3  1  0  0  0  0
  2 45  1  0  0  0  0
  3  4  1  0  0  0  0
  3 41  2  0  0  0  0
  4  5  2  0  0  0  0
  5  6  1  0  0  0  0
  5 46  1  0  0  0  0
  6  7  2  0  0  0  0
  6 47  1  0  0  0  0
  7  8  1  0  0  0  0
  7 41  1  0  0  0  0
  8  9  1  0  0  0  0
  8 13  2  0  0  0  0
  9 10  2  0  0  0  0
  9 48  1  0  0  0  0
 10 11  1  0  0  0  0
 10 49  1  0  0  0  0
 11 12  2  0  0  0  0
 11 50  1  0  0  0  0
 12 13  1  0  0  0  0
 13 14  1  0  0  0  0
 14 15  1  0  0  0  0
 15 16  1  0  0  0  0
 15 39  2  0  0  0  0
 16 17  2  0  0  0  0
 16 51  1  0  0  0  0
 17 18  1  0  0  0  0
 17 37  1  0  0  0  0
 18 19  2  0  0  0  0
 18 20  1  0  0  0  0
 20 21  1  0  0  0  0
 20 52  1  0  0  0  0
 21 22  1  0  0  0  0
 21 30  2  0  0  0  0
 22 23  2  0  0  0  0
 22 53  1  0  0  0  0
 23 24  1  0  0  0  0
 23 28  1  0  0  0  0
 24 25  1  0  0  0  0
 24 26  1  0  0  0  0
 24 27  1  0  0  0  0
 28 29  2  0  0  0  0
 28 54  1  0  0  0  0
 29 30  1  0  0  0  0
 29 55  1  0  0  0  0
 30 31  1  0  0  0  0
 31 32  1  0  0  0  0
 31 36  1  0  0  0  0
 32 33  1  0  0  0  0
 32 56  1  0  0  0  0
 32 57  1  0  0  0  0
 33 34  1  0  0  0  0
 33 58  1  0  0  0  0
 33 59  1  0  0  0  0
 34 35  1  0  0  0  0
 34 60  1  0  0  0  0
 34 61  1  0  0  0  0
 35 36  1  0  0  0  0
 35 62  1  0  0  0  0
 35 63  1  0  0  0  0
 36 64  1  0  0  0  0
 36 65  1  0  0  0  0
 37 38  2  0  0  0  0
 37 66  1  0  0  0  0
 38 39  1  0  0  0  0
 38 67  1  0  0  0  0
 39 40  1  0  0  0  0
 40 68  1  0  0  0  0
 40 69  1  0  0  0  0
 40 70  1  0  0  0  0
M  END
$$$$
