CHEMBL3706822
 OpenBabel04072215373D

 47 49  0  0  0  0  0  0  0  0999 V2000
    1.0906   -0.6989    0.4173 C   0  0  0  0  0  0  0  0  0  0  0  0
    2.3476   -0.1043    0.1595 O   0  0  0  0  0  0  0  0  0  0  0  0
    2.8284    0.6998    1.2418 C   0  0  0  0  0  0  0  0  0  0  0  0
    4.1520    1.2710    0.7544 C   0  0  0  0  0  0  0  0  0  0  0  0
    4.8108    2.0834    1.7053 O   0  0  0  0  0  0  0  0  0  0  0  0
    6.1671    2.2460    1.5673 C   0  0  0  0  0  0  0  0  0  0  0  0
    6.7523    2.6032    2.8068 C   0  0  0  0  0  0  0  0  0  0  0  0
    8.1217    2.7619    3.0011 C   0  0  0  0  0  0  0  0  0  0  0  0
    8.6007    3.0327    4.2191 N   0  0  0  0  0  0  0  0  0  0  0  0
    9.9288    3.1333    4.3502 C   0  0  0  0  0  0  0  0  0  0  0  0
   10.8241    3.0178    3.3642 N   0  0  0  0  0  0  0  0  0  0  0  0
   10.3375    2.7633    2.1353 C   0  0  0  0  0  0  0  0  0  0  0  0
   11.2477    2.6541    1.0443 N   0  0  0  0  0  0  0  0  0  0  0  0
   12.6262    2.5921    1.2316 C   0  0  0  0  0  0  0  0  0  0  0  0
   13.2411    1.7411    2.0578 C   0  0  0  0  0  0  0  0  0  0  0  0
   14.6949    1.7435    2.2541 C   0  0  0  0  0  0  0  0  0  0  0  0
   15.2213    0.8482    2.9030 O   0  0  0  0  0  0  0  0  0  0  0  0
   15.4399    2.8743    1.6556 C   0  0  0  0  0  0  0  0  0  0  0  0
   17.0813    3.0579    2.1947 Cl  0  0  0  0  0  0  0  0  0  0  0  0
   14.8962    3.7238    0.7688 C   0  0  0  0  0  0  0  0  0  0  0  0
   15.6820    4.7496    0.2562 O   0  0  0  0  0  0  0  0  0  0  0  0
   15.1299    5.6542   -0.6870 C   0  0  0  0  0  0  0  0  0  0  0  0
   13.4574    3.5151    0.3869 C   0  0  0  0  0  0  0  0  0  0  0  0
   12.9162    4.0864   -0.5572 O   0  0  0  0  0  0  0  0  0  0  0  0
    8.9622    2.6050    1.8959 C   0  0  0  0  0  0  0  0  0  0  0  0
    8.3949    2.2472    0.6548 C   0  0  0  0  0  0  0  0  0  0  0  0
    7.0134    2.0700    0.4673 C   0  0  0  0  0  0  0  0  0  0  0  0
    6.7714    1.5970   -0.7895 O   0  0  0  0  0  0  0  0  0  0  0  0
    5.7220    2.1176   -1.5868 C   0  0  0  0  0  0  0  0  0  0  0  0
    0.8173   -1.2921   -0.4605 H   0  0  0  0  0  0  0  0  0  0  0  0
    0.3281    0.0692    0.5697 H   0  0  0  0  0  0  0  0  0  0  0  0
    1.1521   -1.3627    1.2830 H   0  0  0  0  0  0  0  0  0  0  0  0
    2.9620    0.0996    2.1474 H   0  0  0  0  0  0  0  0  0  0  0  0
    2.1197    1.5086    1.4580 H   0  0  0  0  0  0  0  0  0  0  0  0
    3.8722    1.9035   -0.0868 H   0  0  0  0  0  0  0  0  0  0  0  0
    4.7853    0.4397    0.4289 H   0  0  0  0  0  0  0  0  0  0  0  0
    6.1041    2.7130    3.6777 H   0  0  0  0  0  0  0  0  0  0  0  0
   10.3170    3.3303    5.3440 H   0  0  0  0  0  0  0  0  0  0  0  0
   11.0064    3.3406    0.3250 H   0  0  0  0  0  0  0  0  0  0  0  0
   12.6876    1.0121    2.6404 H   0  0  0  0  0  0  0  0  0  0  0  0
   15.8887    6.4178   -0.8969 H   0  0  0  0  0  0  0  0  0  0  0  0
   14.2540    6.1712   -0.2842 H   0  0  0  0  0  0  0  0  0  0  0  0
   14.9085    5.1489   -1.6322 H   0  0  0  0  0  0  0  0  0  0  0  0
    9.0531    2.0564   -0.1920 H   0  0  0  0  0  0  0  0  0  0  0  0
    6.1109    2.3643   -2.5791 H   0  0  0  0  0  0  0  0  0  0  0  0
    5.2475    3.0126   -1.1757 H   0  0  0  0  0  0  0  0  0  0  0  0
    5.0007    1.3088   -1.7472 H   0  0  0  0  0  0  0  0  0  0  0  0
  1  2  1  0  0  0  0
  1 30  1  0  0  0  0
  1 31  1  0  0  0  0
  1 32  1  0  0  0  0
  2  3  1  0  0  0  0
  3  4  1  0  0  0  0
  3 33  1  0  0  0  0
  3 34  1  0  0  0  0
  4  5  1  0  0  0  0
  4 35  1  0  0  0  0
  4 36  1  0  0  0  0
  5  6  1  0  0  0  0
  6  7  1  0  0  0  0
  6 27  2  0  0  0  0
  7  8  2  0  0  0  0
  7 37  1  0  0  0  0
  8  9  1  0  0  0  0
  8 25  1  0  0  0  0
  9 10  2  0  0  0  0
 10 11  1  0  0  0  0
 10 38  1  0  0  0  0
 11 12  2  0  0  0  0
 12 13  1  0  0  0  0
 12 25  1  0  0  0  0
 13 14  1  0  0  0  0
 13 39  1  0  0  0  0
 14 15  2  0  0  0  0
 14 23  1  0  0  0  0
 15 16  1  0  0  0  0
 15 40  1  0  0  0  0
 16 17  2  0  0  0  0
 16 18  1  0  0  0  0
 18 19  1  0  0  0  0
 18 20  2  0  0  0  0
 20 21  1  0  0  0  0
 20 23  1  0  0  0  0
 21 22  1  0  0  0  0
 22 41  1  0  0  0  0
 22 42  1  0  0  0  0
 22 43  1  0  0  0  0
 23 24  2  0  0  0  0
 25 26  2  0  0  0  0
 26 27  1  0  0  0  0
 26 44  1  0  0  0  0
 27 28  1  0  0  0  0
 28 29  1  0  0  0  0
 29 45  1  0  0  0  0
 29 46  1  0  0  0  0
 29 47  1  0  0  0  0
M  END
$$$$
