CHEMBL4797072
 OpenBabel04072215383D

 62 66  0  0  0  0  0  0  0  0999 V2000
    2.9925   -4.9225   -3.0358 C   0  0  0  0  0  0  0  0  0  0  0  0
    1.6291   -5.5346   -2.8825 C   0  0  0  0  0  0  0  0  0  0  0  0
    1.3529   -6.7309   -3.5283 C   0  0  0  0  0  0  0  0  0  0  0  0
    0.0994   -7.3103   -3.3999 C   0  0  0  0  0  0  0  0  0  0  0  0
   -0.9273   -6.7204   -2.6273 C   0  0  0  0  0  0  0  0  0  0  0  0
   -2.1871   -7.5257   -2.5533 C   0  0  0  0  0  0  0  0  0  0  0  0
   -0.6921   -5.4800   -1.9962 C   0  0  0  0  0  0  0  0  0  0  0  0
   -1.6212   -4.7045   -1.2309 N   0  0  0  0  0  0  0  0  0  0  0  0
   -3.0036   -4.8230   -1.1103 C   0  0  0  0  0  0  0  0  0  0  0  0
   -3.7160   -5.6477   -1.6650 O   0  0  0  0  0  0  0  0  0  0  0  0
   -3.5505   -3.8103   -0.3337 N   0  0  0  0  0  0  0  0  0  0  0  0
   -4.9546   -3.8362   -0.2131 C   0  0  0  0  0  0  0  0  0  0  0  0
   -5.5200   -4.6678    0.6717 N   0  0  0  0  0  0  0  0  0  0  0  0
   -6.8648   -4.6202    0.7371 C   0  0  0  0  0  0  0  0  0  0  0  0
   -7.7017   -5.6520    1.9418 S   0  0  0  0  0  0  0  0  0  0  0  0
   -7.4652   -7.2980    1.3877 C   0  0  0  0  0  0  0  0  0  0  0  0
   -6.7463   -7.7169    0.2947 C   0  0  0  0  0  0  0  0  0  0  0  0
   -6.7860   -9.0846    0.2567 N   0  0  0  0  0  0  0  0  0  0  0  0
   -7.5386   -9.5708    1.3011 C   0  0  0  0  0  0  0  0  0  0  0  0
   -7.8363  -10.8940    1.6532 C   0  0  0  0  0  0  0  0  0  0  0  0
   -8.6359  -11.1039    2.7781 C   0  0  0  0  0  0  0  0  0  0  0  0
   -9.1242  -10.0311    3.5194 C   0  0  0  0  0  0  0  0  0  0  0  0
   -8.8127   -8.7114    3.1554 C   0  0  0  0  0  0  0  0  0  0  0  0
   -7.9967   -8.4664    2.0272 C   0  0  0  0  0  0  0  0  0  0  0  0
   -7.6252   -3.7622   -0.0320 C   0  0  0  0  0  0  0  0  0  0  0  0
   -6.9597   -2.9435   -0.9213 C   0  0  0  0  0  0  0  0  0  0  0  0
   -7.6471   -2.1113   -1.7797 N   0  0  0  0  0  0  0  0  0  0  0  0
   -7.1459   -1.8919   -3.1339 C   0  0  0  0  0  0  0  0  0  0  0  0
   -6.9357   -0.3990   -3.3744 C   0  0  0  0  0  0  0  0  0  0  0  0
   -8.1885    0.4066   -3.0273 C   0  0  0  0  0  0  0  0  0  0  0  0
   -8.6823    0.0835   -1.6172 C   0  0  0  0  0  0  0  0  0  0  0  0
   -8.8771   -1.4212   -1.4155 C   0  0  0  0  0  0  0  0  0  0  0  0
   -5.6144   -2.9536   -0.9796 N   0  0  0  0  0  0  0  0  0  0  0  0
    0.6121   -4.9190   -2.1192 C   0  0  0  0  0  0  0  0  0  0  0  0
    3.6502   -5.5631   -3.6349 H   0  0  0  0  0  0  0  0  0  0  0  0
    3.4723   -4.7905   -2.0597 H   0  0  0  0  0  0  0  0  0  0  0  0
    2.9245   -3.9574   -3.5492 H   0  0  0  0  0  0  0  0  0  0  0  0
    2.1068   -7.2341   -4.1326 H   0  0  0  0  0  0  0  0  0  0  0  0
   -0.0820   -8.2585   -3.9076 H   0  0  0  0  0  0  0  0  0  0  0  0
   -2.0263   -8.5576   -2.8830 H   0  0  0  0  0  0  0  0  0  0  0  0
   -2.9423   -7.1050   -3.2230 H   0  0  0  0  0  0  0  0  0  0  0  0
   -2.5353   -7.6102   -1.5197 H   0  0  0  0  0  0  0  0  0  0  0  0
   -1.2244   -3.9286   -0.7196 H   0  0  0  0  0  0  0  0  0  0  0  0
   -3.2805   -2.9145   -0.7084 H   0  0  0  0  0  0  0  0  0  0  0  0
   -6.1847   -7.1708   -0.4538 H   0  0  0  0  0  0  0  0  0  0  0  0
   -6.3200   -9.6583   -0.4322 H   0  0  0  0  0  0  0  0  0  0  0  0
   -7.4573  -11.7324    1.0767 H   0  0  0  0  0  0  0  0  0  0  0  0
   -8.8791  -12.1206    3.0800 H   0  0  0  0  0  0  0  0  0  0  0  0
   -9.7470  -10.2160    4.3899 H   0  0  0  0  0  0  0  0  0  0  0  0
   -9.1983   -7.8863    3.7466 H   0  0  0  0  0  0  0  0  0  0  0  0
   -8.7046   -3.7668    0.0362 H   0  0  0  0  0  0  0  0  0  0  0  0
   -7.8918   -2.2711   -3.8453 H   0  0  0  0  0  0  0  0  0  0  0  0
   -6.2197   -2.4379   -3.3473 H   0  0  0  0  0  0  0  0  0  0  0  0
   -6.6666   -0.2267   -4.4229 H   0  0  0  0  0  0  0  0  0  0  0  0
   -6.0973   -0.0465   -2.7621 H   0  0  0  0  0  0  0  0  0  0  0  0
   -8.9814    0.1840   -3.7518 H   0  0  0  0  0  0  0  0  0  0  0  0
   -7.9720    1.4779   -3.1076 H   0  0  0  0  0  0  0  0  0  0  0  0
   -9.6233    0.6098   -1.4231 H   0  0  0  0  0  0  0  0  0  0  0  0
   -7.9489    0.4538   -0.8895 H   0  0  0  0  0  0  0  0  0  0  0  0
   -9.6993   -1.7828   -2.0448 H   0  0  0  0  0  0  0  0  0  0  0  0
   -9.1665   -1.5914   -0.3726 H   0  0  0  0  0  0  0  0  0  0  0  0
    0.8416   -3.9767   -1.6348 H   0  0  0  0  0  0  0  0  0  0  0  0
  1  2  1  0  0  0  0
  1 35  1  0  0  0  0
  1 36  1  0  0  0  0
  1 37  1  0  0  0  0
  2  3  1  0  0  0  0
  2 34  2  0  0  0  0
  3  4  2  0  0  0  0
  3 38  1  0  0  0  0
  4  5  1  0  0  0  0
  4 39  1  0  0  0  0
  5  6  1  0  0  0  0
  5  7  2  0  0  0  0
  6 40  1  0  0  0  0
  6 41  1  0  0  0  0
  6 42  1  0  0  0  0
  7  8  1  0  0  0  0
  7 34  1  0  0  0  0
  8  9  1  0  0  0  0
  8 43  1  0  0  0  0
  9 10  2  0  0  0  0
  9 11  1  0  0  0  0
 11 12  1  0  0  0  0
 11 44  1  0  0  0  0
 12 13  1  0  0  0  0
 12 33  2  0  0  0  0
 13 14  2  0  0  0  0
 14 15  1  0  0  0  0
 14 25  1  0  0  0  0
 15 16  1  0  0  0  0
 16 17  2  0  0  0  0
 16 24  1  0  0  0  0
 17 18  1  0  0  0  0
 17 45  1  0  0  0  0
 18 19  1  0  0  0  0
 18 46  1  0  0  0  0
 19 20  1  0  0  0  0
 19 24  2  0  0  0  0
 20 21  2  0  0  0  0
 20 47  1  0  0  0  0
 21 22  1  0  0  0  0
 21 48  1  0  0  0  0
 22 23  2  0  0  0  0
 22 49  1  0  0  0  0
 23 24  1  0  0  0  0
 23 50  1  0  0  0  0
 25 26  2  0  0  0  0
 25 51  1  0  0  0  0
 26 27  1  0  0  0  0
 26 33  1  0  0  0  0
 27 28  1  0  0  0  0
 27 32  1  0  0  0  0
 28 29  1  0  0  0  0
 28 52  1  0  0  0  0
 28 53  1  0  0  0  0
 29 30  1  0  0  0  0
 29 54  1  0  0  0  0
 29 55  1  0  0  0  0
 30 31  1  0  0  0  0
 30 56  1  0  0  0  0
 30 57  1  0  0  0  0
 31 32  1  0  0  0  0
 31 58  1  0  0  0  0
 31 59  1  0  0  0  0
 32 60  1  0  0  0  0
 32 61  1  0  0  0  0
 34 62  1  0  0  0  0
M  END
$$$$
