CHEMBL3981432
 OpenBabel04072215373D

 58 61  0  0  1  0  0  0  0  0999 V2000
    3.3247   -1.0400    1.0247 C   0  0  0  0  0  0  0  0  0  0  0  0
    2.6013   -0.0655    0.2777 O   0  0  0  0  0  0  0  0  0  0  0  0
    3.2031    0.5261   -0.7972 C   0  0  0  0  0  0  0  0  0  0  0  0
    4.2185   -0.0979   -1.5235 C   0  0  0  0  0  0  0  0  0  0  0  0
    4.7663    0.4681   -2.7038 C   0  0  0  0  0  0  0  0  0  0  0  0
    5.7620   -0.1438   -3.4829 C   0  0  0  0  0  0  0  0  0  0  0  0
    6.1768   -1.4574   -3.1477 N   0  0  0  0  0  0  0  0  0  0  0  0
    7.4548   -2.0459   -3.2367 C   0  0  0  0  0  0  0  0  0  0  0  0
    8.6062   -1.2521   -3.1790 C   0  0  0  0  0  0  0  0  0  0  0  0
    9.8675   -1.8275   -3.0310 C   0  0  0  0  0  0  0  0  0  0  0  0
   10.0036   -3.2149   -2.9523 C   0  0  0  0  0  0  0  0  0  0  0  0
   11.7521   -3.8839   -2.6159 Br  0  0  0  0  0  0  0  0  0  0  0  0
    8.8789   -4.0422   -3.0758 C   0  0  0  0  0  0  0  0  0  0  0  0
    9.0496   -5.7713   -3.0416 Cl  0  0  0  0  0  0  0  0  0  0  0  0
    7.6068   -3.4521   -3.2074 C   0  0  0  0  0  0  0  0  0  0  0  0
    6.1690   -4.4322   -3.3207 Cl  0  0  0  0  0  0  0  0  0  0  0  0
    6.3045    0.4544   -4.5539 N   0  0  0  0  0  0  0  0  0  0  0  0
    5.7971    1.6493   -4.8808 C   0  0  0  0  0  0  0  0  0  0  0  0
    4.8288    2.3031   -4.2315 N   0  0  0  0  0  0  0  0  0  0  0  0
    4.3175    1.7093   -3.1433 C   0  0  0  0  0  0  0  0  0  0  0  0
    3.3180    2.3366   -2.4052 C   0  0  0  0  0  0  0  0  0  0  0  0
    2.7369    1.7666   -1.2487 C   0  0  0  0  0  0  0  0  0  0  0  0
    1.7507    2.5607   -0.7301 O   0  0  0  0  0  0  0  0  0  0  0  0
    1.1018    2.2125    0.4970 C   0  0  0  0  0  0  0  0  0  0  0  0
    0.1082    3.3404    0.8632 C   0  0  3  0  0  0  0  0  0  0  0  0
    0.8072    4.6759    1.1867 C   0  0  0  0  0  0  0  0  0  0  0  0
    1.5057    4.6484    2.4897 N   0  0  0  0  0  0  0  0  0  0  0  0
    2.2357    5.8975    2.6942 C   0  0  0  0  0  0  0  0  0  0  0  0
    0.5771    4.2587    3.5902 C   0  0  0  0  0  0  0  0  0  0  0  0
    1.3843    3.9666    4.8741 C   0  0  0  0  0  0  0  0  0  0  0  0
   -0.4828    5.3347    3.9227 C   0  0  0  0  0  0  0  0  0  0  0  0
   -0.1525    2.9298    3.2008 C   0  0  0  0  0  0  0  0  0  0  0  0
   -0.7970    2.9806    1.9242 O   0  0  0  0  0  0  0  0  0  0  0  0
    2.6023   -1.6034    1.6214 H   0  0  0  0  0  0  0  0  0  0  0  0
    4.0239   -0.5442    1.7040 H   0  0  0  0  0  0  0  0  0  0  0  0
    3.8484   -1.7823    0.4162 H   0  0  0  0  0  0  0  0  0  0  0  0
    4.6220   -1.0551   -1.2119 H   0  0  0  0  0  0  0  0  0  0  0  0
    5.4132   -2.1211   -3.2629 H   0  0  0  0  0  0  0  0  0  0  0  0
    8.5266   -0.1671   -3.2007 H   0  0  0  0  0  0  0  0  0  0  0  0
   10.7347   -1.1758   -2.9467 H   0  0  0  0  0  0  0  0  0  0  0  0
    6.2131    2.1301   -5.7570 H   0  0  0  0  0  0  0  0  0  0  0  0
    2.9591    3.3055   -2.7452 H   0  0  0  0  0  0  0  0  0  0  0  0
    1.8399    2.0829    1.2961 H   0  0  0  0  0  0  0  0  0  0  0  0
    0.5353    1.2825    0.3706 H   0  0  0  0  0  0  0  0  0  0  0  0
   -0.5225    3.5160   -0.0179 H   0  0  0  0  0  0  0  0  0  0  0  0
    0.0565    5.4763    1.1861 H   0  0  0  0  0  0  0  0  0  0  0  0
    1.5173    4.9127    0.3854 H   0  0  0  0  0  0  0  0  0  0  0  0
    2.9339    6.0648    1.8655 H   0  0  0  0  0  0  0  0  0  0  0  0
    2.8538    5.8594    3.5958 H   0  0  0  0  0  0  0  0  0  0  0  0
    1.5792    6.7714    2.7531 H   0  0  0  0  0  0  0  0  0  0  0  0
    1.8382    4.8710    5.2927 H   0  0  0  0  0  0  0  0  0  0  0  0
    2.1857    3.2435    4.6821 H   0  0  0  0  0  0  0  0  0  0  0  0
    0.7409    3.5426    5.6542 H   0  0  0  0  0  0  0  0  0  0  0  0
   -0.0244    6.2732    4.2511 H   0  0  0  0  0  0  0  0  0  0  0  0
   -1.1293    4.9999    4.7432 H   0  0  0  0  0  0  0  0  0  0  0  0
   -1.1360    5.5553    3.0725 H   0  0  0  0  0  0  0  0  0  0  0  0
   -0.9330    2.7072    3.9387 H   0  0  0  0  0  0  0  0  0  0  0  0
    0.5375    2.0785    3.2153 H   0  0  0  0  0  0  0  0  0  0  0  0
  1  2  1  0  0  0  0
  1 34  1  0  0  0  0
  1 35  1  0  0  0  0
  1 36  1  0  0  0  0
  2  3  1  0  0  0  0
  3  4  1  0  0  0  0
  3 22  2  0  0  0  0
  4  5  2  0  0  0  0
  4 37  1  0  0  0  0
  5  6  1  0  0  0  0
  5 20  1  0  0  0  0
  6  7  1  0  0  0  0
  6 17  2  0  0  0  0
  7  8  1  0  0  0  0
  7 38  1  0  0  0  0
  8  9  1  0  0  0  0
  8 15  2  0  0  0  0
  9 10  2  0  0  0  0
  9 39  1  0  0  0  0
 10 11  1  0  0  0  0
 10 40  1  0  0  0  0
 11 12  1  0  0  0  0
 11 13  2  0  0  0  0
 13 14  1  0  0  0  0
 13 15  1  0  0  0  0
 15 16  1  0  0  0  0
 17 18  1  0  0  0  0
 18 19  2  0  0  0  0
 18 41  1  0  0  0  0
 19 20  1  0  0  0  0
 20 21  2  0  0  0  0
 21 22  1  0  0  0  0
 21 42  1  0  0  0  0
 22 23  1  0  0  0  0
 23 24  1  0  0  0  0
 24 25  1  0  0  0  0
 24 43  1  0  0  0  0
 24 44  1  0  0  0  0
 25 26  1  0  0  0  0
 25 33  1  0  0  0  0
 25 45  1  0  0  0  0
 26 27  1  0  0  0  0
 26 46  1  0  0  0  0
 26 47  1  0  0  0  0
 27 28  1  0  0  0  0
 27 29  1  0  0  0  0
 28 48  1  0  0  0  0
 28 49  1  0  0  0  0
 28 50  1  0  0  0  0
 29 30  1  0  0  0  0
 29 31  1  0  0  0  0
 29 32  1  0  0  0  0
 30 51  1  0  0  0  0
 30 52  1  0  0  0  0
 30 53  1  0  0  0  0
 31 54  1  0  0  0  0
 31 55  1  0  0  0  0
 31 56  1  0  0  0  0
 32 33  1  0  0  0  0
 32 57  1  0  0  0  0
 32 58  1  0  0  0  0
M  END
$$$$
