CHEMBL2113191
 OpenBabel04072215363D

 54 57  0  0  0  0  0  0  0  0999 V2000
    1.0853   -0.7700    0.4112 C   0  0  0  0  0  0  0  0  0  0  0  0
    2.3343   -0.1149    0.3115 O   0  0  0  0  0  0  0  0  0  0  0  0
    2.8151    0.3791    1.5650 C   0  0  0  0  0  0  0  0  0  0  0  0
    4.1238    1.0809    1.2383 C   0  0  0  0  0  0  0  0  0  0  0  0
    4.7782    1.6107    2.3702 O   0  0  0  0  0  0  0  0  0  0  0  0
    6.1365    1.7891    2.3001 C   0  0  0  0  0  0  0  0  0  0  0  0
    6.6947    1.7895    3.5978 C   0  0  0  0  0  0  0  0  0  0  0  0
    8.0538    1.9225    3.8560 C   0  0  0  0  0  0  0  0  0  0  0  0
    8.4882    1.8651    5.1193 N   0  0  0  0  0  0  0  0  0  0  0  0
    9.7978    2.0496    5.3074 C   0  0  0  0  0  0  0  0  0  0  0  0
   10.6898    2.3290    4.3576 N   0  0  0  0  0  0  0  0  0  0  0  0
   10.2722    2.2980    3.0899 C   0  0  0  0  0  0  0  0  0  0  0  0
   11.2028    2.4866    2.0443 N   0  0  0  0  0  0  0  0  0  0  0  0
   12.5574    2.1596    1.9545 C   0  0  0  0  0  0  0  0  0  0  0  0
   13.2911    2.6019    0.9218 C   0  0  0  0  0  0  0  0  0  0  0  0
   14.6695    2.1751    0.6684 C   0  0  0  0  0  0  0  0  0  0  0  0
   15.3310    2.7312   -0.1891 O   0  0  0  0  0  0  0  0  0  0  0  0
   15.1569    1.0060    1.4314 C   0  0  0  0  0  0  0  0  0  0  0  0
   16.5865    0.2279    0.8402 Cl  0  0  0  0  0  0  0  0  0  0  0  0
   14.5050    0.5549    2.5097 C   0  0  0  0  0  0  0  0  0  0  0  0
   14.9961   -0.5580    3.1864 O   0  0  0  0  0  0  0  0  0  0  0  0
   14.7385   -0.6558    4.5891 C   0  0  0  0  0  0  0  0  0  0  0  0
   15.7862   -1.5489    5.1751 C   0  0  0  0  0  0  0  0  0  0  0  0
   15.9208   -2.9714    4.6974 C   0  0  0  0  0  0  0  0  0  0  0  0
   15.4226   -2.6917    6.0880 C   0  0  0  0  0  0  0  0  0  0  0  0
   13.2502    1.2516    2.9477 C   0  0  0  0  0  0  0  0  0  0  0  0
   12.8358    1.0663    4.0841 O   0  0  0  0  0  0  0  0  0  0  0  0
    8.9140    2.0991    2.7735 C   0  0  0  0  0  0  0  0  0  0  0  0
    8.3771    2.0556    1.4632 C   0  0  0  0  0  0  0  0  0  0  0  0
    7.0004    1.9217    1.2075 C   0  0  0  0  0  0  0  0  0  0  0  0
    6.7811    1.8293   -0.1363 O   0  0  0  0  0  0  0  0  0  0  0  0
    5.7155    2.5207   -0.7663 C   0  0  0  0  0  0  0  0  0  0  0  0
    0.8131   -1.1184   -0.5892 H   0  0  0  0  0  0  0  0  0  0  0  0
    0.3170   -0.0753    0.7600 H   0  0  0  0  0  0  0  0  0  0  0  0
    1.1589   -1.6340    1.0760 H   0  0  0  0  0  0  0  0  0  0  0  0
    2.9690   -0.4381    2.2770 H   0  0  0  0  0  0  0  0  0  0  0  0
    2.0983    1.0890    1.9961 H   0  0  0  0  0  0  0  0  0  0  0  0
    3.8304    1.9143    0.6003 H   0  0  0  0  0  0  0  0  0  0  0  0
    4.7637    0.3771    0.6959 H   0  0  0  0  0  0  0  0  0  0  0  0
    6.0319    1.6507    4.4518 H   0  0  0  0  0  0  0  0  0  0  0  0
   10.1766    1.9630    6.3199 H   0  0  0  0  0  0  0  0  0  0  0  0
   10.8809    3.1847    1.3842 H   0  0  0  0  0  0  0  0  0  0  0  0
   12.8880    3.2721    0.1694 H   0  0  0  0  0  0  0  0  0  0  0  0
   13.7371   -1.0733    4.7503 H   0  0  0  0  0  0  0  0  0  0  0  0
   14.8280    0.3199    5.0814 H   0  0  0  0  0  0  0  0  0  0  0  0
   16.7013   -1.0031    5.3737 H   0  0  0  0  0  0  0  0  0  0  0  0
   16.9263   -3.3553    4.5716 H   0  0  0  0  0  0  0  0  0  0  0  0
   15.2117   -3.3348    3.9618 H   0  0  0  0  0  0  0  0  0  0  0  0
   16.0866   -2.9034    6.9180 H   0  0  0  0  0  0  0  0  0  0  0  0
   14.3767   -2.8876    6.2960 H   0  0  0  0  0  0  0  0  0  0  0  0
    9.0469    2.1090    0.6068 H   0  0  0  0  0  0  0  0  0  0  0  0
    6.0932    3.0242   -1.6617 H   0  0  0  0  0  0  0  0  0  0  0  0
    5.2345    3.2725   -0.1348 H   0  0  0  0  0  0  0  0  0  0  0  0
    5.0022    1.7742   -1.1329 H   0  0  0  0  0  0  0  0  0  0  0  0
  1  2  1  0  0  0  0
  1 33  1  0  0  0  0
  1 34  1  0  0  0  0
  1 35  1  0  0  0  0
  2  3  1  0  0  0  0
  3  4  1  0  0  0  0
  3 36  1  0  0  0  0
  3 37  1  0  0  0  0
  4  5  1  0  0  0  0
  4 38  1  0  0  0  0
  4 39  1  0  0  0  0
  5  6  1  0  0  0  0
  6  7  1  0  0  0  0
  6 30  2  0  0  0  0
  7  8  2  0  0  0  0
  7 40  1  0  0  0  0
  8  9  1  0  0  0  0
  8 28  1  0  0  0  0
  9 10  2  0  0  0  0
 10 11  1  0  0  0  0
 10 41  1  0  0  0  0
 11 12  2  0  0  0  0
 12 13  1  0  0  0  0
 12 28  1  0  0  0  0
 13 14  1  0  0  0  0
 13 42  1  0  0  0  0
 14 15  2  0  0  0  0
 14 26  1  0  0  0  0
 15 16  1  0  0  0  0
 15 43  1  0  0  0  0
 16 17  2  0  0  0  0
 16 18  1  0  0  0  0
 18 19  1  0  0  0  0
 18 20  2  0  0  0  0
 20 21  1  0  0  0  0
 20 26  1  0  0  0  0
 21 22  1  0  0  0  0
 22 23  1  0  0  0  0
 22 44  1  0  0  0  0
 22 45  1  0  0  0  0
 23 24  1  0  0  0  0
 23 25  1  0  0  0  0
 23 46  1  0  0  0  0
 24 25  1  0  0  0  0
 24 47  1  0  0  0  0
 24 48  1  0  0  0  0
 25 49  1  0  0  0  0
 25 50  1  0  0  0  0
 26 27  2  0  0  0  0
 28 29  2  0  0  0  0
 29 30  1  0  0  0  0
 29 51  1  0  0  0  0
 30 31  1  0  0  0  0
 31 32  1  0  0  0  0
 32 52  1  0  0  0  0
 32 53  1  0  0  0  0
 32 54  1  0  0  0  0
M  END
$$$$
