CHEMBL375284
 OpenBabel04072215373D

 44 47  0  0  0  0  0  0  0  0999 V2000
    2.3860   -0.4603    1.4926 C   0  0  0  0  0  0  0  0  0  0  0  0
    0.8904   -0.3329    1.4632 C   0  0  0  0  0  0  0  0  0  0  0  0
    0.2939    0.8632    1.8734 C   0  0  0  0  0  0  0  0  0  0  0  0
   -1.0872    0.9934    1.8603 C   0  0  0  0  0  0  0  0  0  0  0  0
   -1.8814   -0.0738    1.4346 C   0  0  0  0  0  0  0  0  0  0  0  0
   -1.3171   -1.2763    1.0047 C   0  0  0  0  0  0  0  0  0  0  0  0
   -2.0972   -2.3855    0.5664 N   0  0  0  0  0  0  0  0  0  0  0  0
   -3.4646   -2.3619    0.3655 C   0  0  0  0  0  0  0  0  0  0  0  0
   -4.1606   -1.3464    0.4263 O   0  0  0  0  0  0  0  0  0  0  0  0
   -4.0052   -3.6194    0.1251 N   0  0  0  0  0  0  0  0  0  0  0  0
   -5.4107   -3.7443   -0.0288 C   0  0  0  0  0  0  0  0  0  0  0  0
   -6.1364   -2.8574   -0.8279 C   0  0  0  0  0  0  0  0  0  0  0  0
   -7.5357   -2.8892   -0.8493 C   0  0  0  0  0  0  0  0  0  0  0  0
   -8.2576   -3.8250   -0.0930 C   0  0  0  0  0  0  0  0  0  0  0  0
   -9.7351   -3.9009   -0.1621 C   0  0  0  0  0  0  0  0  0  0  0  0
  -10.4423   -3.6421   -1.3611 C   0  0  0  0  0  0  0  0  0  0  0  0
  -11.8135   -3.8774   -1.4878 C   0  0  0  0  0  0  0  0  0  0  0  0
  -12.5434   -4.4320   -0.4395 C   0  0  0  0  0  0  0  0  0  0  0  0
  -11.8614   -4.6377    0.7607 C   0  0  0  0  0  0  0  0  0  0  0  0
  -12.2751   -5.1817    1.9486 N   0  0  0  0  0  0  0  0  0  0  0  0
  -11.3759   -5.0803    2.9403 N   0  0  0  0  0  0  0  0  0  0  0  0
  -10.3174   -4.5369    2.3337 C   0  0  0  0  0  0  0  0  0  0  0  0
  -10.5157   -4.3243    0.9445 C   0  0  0  0  0  0  0  0  0  0  0  0
   -7.4994   -4.7478    0.6588 C   0  0  0  0  0  0  0  0  0  0  0  0
   -6.0956   -4.7198    0.6853 C   0  0  0  0  0  0  0  0  0  0  0  0
    0.0781   -1.4006    1.0259 C   0  0  0  0  0  0  0  0  0  0  0  0
    2.8560    0.4621    1.8528 H   0  0  0  0  0  0  0  0  0  0  0  0
    2.7710   -0.6571    0.4877 H   0  0  0  0  0  0  0  0  0  0  0  0
    2.6837   -1.2682    2.1669 H   0  0  0  0  0  0  0  0  0  0  0  0
    0.8980    1.7037    2.2105 H   0  0  0  0  0  0  0  0  0  0  0  0
   -1.5555    1.9189    2.1810 H   0  0  0  0  0  0  0  0  0  0  0  0
   -2.9530    0.0904    1.4638 H   0  0  0  0  0  0  0  0  0  0  0  0
   -1.6034   -3.2023    0.2433 H   0  0  0  0  0  0  0  0  0  0  0  0
   -3.5368   -4.3753    0.6038 H   0  0  0  0  0  0  0  0  0  0  0  0
   -5.6229   -2.1069   -1.4254 H   0  0  0  0  0  0  0  0  0  0  0  0
   -8.0484   -2.1508   -1.4620 H   0  0  0  0  0  0  0  0  0  0  0  0
   -9.9103   -3.2804   -2.2391 H   0  0  0  0  0  0  0  0  0  0  0  0
  -12.3080   -3.6617   -2.4327 H   0  0  0  0  0  0  0  0  0  0  0  0
  -13.5957   -4.6703   -0.5516 H   0  0  0  0  0  0  0  0  0  0  0  0
  -13.1613   -5.6320    2.1456 H   0  0  0  0  0  0  0  0  0  0  0  0
   -9.4378   -4.3171    2.9250 H   0  0  0  0  0  0  0  0  0  0  0  0
   -7.9958   -5.5197    1.2431 H   0  0  0  0  0  0  0  0  0  0  0  0
   -5.5691   -5.4266    1.3199 H   0  0  0  0  0  0  0  0  0  0  0  0
    0.5560   -2.3237    0.7032 H   0  0  0  0  0  0  0  0  0  0  0  0
  1  2  1  0  0  0  0
  1 27  1  0  0  0  0
  1 28  1  0  0  0  0
  1 29  1  0  0  0  0
  2  3  1  0  0  0  0
  2 26  2  0  0  0  0
  3  4  2  0  0  0  0
  3 30  1  0  0  0  0
  4  5  1  0  0  0  0
  4 31  1  0  0  0  0
  5  6  2  0  0  0  0
  5 32  1  0  0  0  0
  6  7  1  0  0  0  0
  6 26  1  0  0  0  0
  7  8  1  0  0  0  0
  7 33  1  0  0  0  0
  8  9  2  0  0  0  0
  8 10  1  0  0  0  0
 10 11  1  0  0  0  0
 10 34  1  0  0  0  0
 11 12  1  0  0  0  0
 11 25  2  0  0  0  0
 12 13  2  0  0  0  0
 12 35  1  0  0  0  0
 13 14  1  0  0  0  0
 13 36  1  0  0  0  0
 14 15  1  0  0  0  0
 14 24  2  0  0  0  0
 15 16  1  0  0  0  0
 15 23  2  0  0  0  0
 16 17  2  0  0  0  0
 16 37  1  0  0  0  0
 17 18  1  0  0  0  0
 17 38  1  0  0  0  0
 18 19  2  0  0  0  0
 18 39  1  0  0  0  0
 19 20  1  0  0  0  0
 19 23  1  0  0  0  0
 20 21  1  0  0  0  0
 20 40  1  0  0  0  0
 21 22  2  0  0  0  0
 22 23  1  0  0  0  0
 22 41  1  0  0  0  0
 24 25  1  0  0  0  0
 24 42  1  0  0  0  0
 25 43  1  0  0  0  0
 26 44  1  0  0  0  0
M  END
$$$$
