CHEMBL3896249
 OpenBabel04072215373D

 90 94  0  0  0  0  0  0  0  0999 V2000
    7.4784   -5.4826    4.5992 C   0  0  0  0  0  0  0  0  0  0  0  0
    7.3963   -4.5674    3.5046 O   0  0  0  0  0  0  0  0  0  0  0  0
    6.6470   -4.9596    2.4215 C   0  0  0  0  0  0  0  0  0  0  0  0
    5.6791   -5.9628    2.4618 C   0  0  0  0  0  0  0  0  0  0  0  0
    4.9382   -6.2562    1.3202 C   0  0  0  0  0  0  0  0  0  0  0  0
    3.9531   -7.2050    1.2329 O   0  0  0  0  0  0  0  0  0  0  0  0
    3.7208   -8.0065    2.3861 C   0  0  0  0  0  0  0  0  0  0  0  0
    5.1575   -5.5312    0.1386 C   0  0  0  0  0  0  0  0  0  0  0  0
    6.1033   -4.4978    0.0599 C   0  0  0  0  0  0  0  0  0  0  0  0
    6.2183   -3.6403   -1.0653 N   0  0  0  0  0  0  0  0  0  0  0  0
    4.9426   -3.3563   -1.8405 C   0  0  0  0  0  0  0  0  0  0  0  0
    3.7201   -2.7656   -1.0814 C   0  0  0  0  0  0  0  0  0  0  0  0
    3.7174   -1.3794   -0.5852 N   0  0  0  0  0  0  0  0  0  0  0  0
    3.8534   -0.2836   -1.5524 C   0  0  0  0  0  0  0  0  0  0  0  0
    2.8534   -0.3049   -2.7145 C   0  0  0  0  0  0  0  0  0  0  0  0
    3.6686    1.0440   -0.7972 C   0  0  0  0  0  0  0  0  0  0  0  0
    7.2990   -3.5825   -2.0276 C   0  0  0  0  0  0  0  0  0  0  0  0
    7.5143   -2.3115   -2.5760 C   0  0  0  0  0  0  0  0  0  0  0  0
    8.0043   -2.1915   -3.8510 C   0  0  0  0  0  0  0  0  0  0  0  0
    8.4736   -3.2679   -4.5600 C   0  0  0  0  0  0  0  0  0  0  0  0
    8.7326   -3.0115   -5.8522 N   0  0  0  0  0  0  0  0  0  0  0  0
    9.4248   -3.9416   -6.5155 C   0  0  0  0  0  0  0  0  0  0  0  0
    9.9387   -5.0549   -5.8753 C   0  0  0  0  0  0  0  0  0  0  0  0
   11.2033   -5.5457   -6.4268 C   0  0  0  0  0  0  0  0  0  0  0  0
   11.6033   -6.7216   -7.0949 C   0  0  0  0  0  0  0  0  0  0  0  0
   12.8753   -6.6701   -7.5247 N   0  0  0  0  0  0  0  0  0  0  0  0
   13.3203   -5.4745   -7.0870 N   0  0  0  0  0  0  0  0  0  0  0  0
   14.7443   -5.1144   -7.1189 C   0  0  0  0  0  0  0  0  0  0  0  0
   15.6940   -6.3060   -7.3426 C   0  0  0  0  0  0  0  0  0  0  0  0
   15.7091   -7.2382   -6.1354 C   0  0  0  0  0  0  0  0  0  0  0  0
   16.0222   -6.5126   -4.9068 N   0  0  0  0  0  0  0  0  0  0  0  0
   16.7918   -7.1642   -3.9517 C   0  0  0  0  0  0  0  0  0  0  0  0
   17.3003   -8.2631   -4.1558 O   0  0  0  0  0  0  0  0  0  0  0  0
   16.9436   -6.4647   -2.7909 O   0  0  0  0  0  0  0  0  0  0  0  0
   17.7575   -7.0328   -1.7235 C   0  0  0  0  0  0  0  0  0  0  0  0
   19.2203   -7.2023   -2.1612 C   0  0  0  0  0  0  0  0  0  0  0  0
   17.7301   -6.0124   -0.5723 C   0  0  0  0  0  0  0  0  0  0  0  0
   17.1541   -8.3448   -1.2012 C   0  0  0  0  0  0  0  0  0  0  0  0
   15.2102   -5.3348   -4.6264 C   0  0  0  0  0  0  0  0  0  0  0  0
   15.1976   -4.3897   -5.8295 C   0  0  0  0  0  0  0  0  0  0  0  0
   12.2936   -4.7028   -6.6130 C   0  0  0  0  0  0  0  0  0  0  0  0
    9.5167   -5.4032   -4.6051 N   0  0  0  0  0  0  0  0  0  0  0  0
    8.6881   -4.5063   -3.9261 C   0  0  0  0  0  0  0  0  0  0  0  0
    7.9996   -4.6573   -2.6619 C   0  0  0  0  0  0  0  0  0  0  0  0
    6.8535   -4.2385    1.2251 C   0  0  0  0  0  0  0  0  0  0  0  0
    8.1171   -5.0386    5.3700 H   0  0  0  0  0  0  0  0  0  0  0  0
    7.9407   -6.4241    4.2830 H   0  0  0  0  0  0  0  0  0  0  0  0
    6.5032   -5.6637    5.0651 H   0  0  0  0  0  0  0  0  0  0  0  0
    5.4835   -6.4946    3.3833 H   0  0  0  0  0  0  0  0  0  0  0  0
    2.9625   -8.7519    2.1286 H   0  0  0  0  0  0  0  0  0  0  0  0
    3.3288   -7.4039    3.2126 H   0  0  0  0  0  0  0  0  0  0  0  0
    4.6263   -8.5452    2.6854 H   0  0  0  0  0  0  0  0  0  0  0  0
    4.5426   -5.7817   -0.7196 H   0  0  0  0  0  0  0  0  0  0  0  0
    4.6302   -4.2820   -2.3433 H   0  0  0  0  0  0  0  0  0  0  0  0
    5.1254   -2.6518   -2.6600 H   0  0  0  0  0  0  0  0  0  0  0  0
    3.4722   -3.4035   -0.2283 H   0  0  0  0  0  0  0  0  0  0  0  0
    2.8603   -2.8674   -1.7559 H   0  0  0  0  0  0  0  0  0  0  0  0
    4.4145   -1.2862    0.1537 H   0  0  0  0  0  0  0  0  0  0  0  0
    4.8675   -0.2944   -1.9651 H   0  0  0  0  0  0  0  0  0  0  0  0
    1.8164   -0.3069   -2.3599 H   0  0  0  0  0  0  0  0  0  0  0  0
    3.0009   -1.1718   -3.3641 H   0  0  0  0  0  0  0  0  0  0  0  0
    2.9790    0.5884   -3.3408 H   0  0  0  0  0  0  0  0  0  0  0  0
    2.6509    1.1440   -0.3990 H   0  0  0  0  0  0  0  0  0  0  0  0
    3.8437    1.8979   -1.4630 H   0  0  0  0  0  0  0  0  0  0  0  0
    4.3693    1.1335    0.0395 H   0  0  0  0  0  0  0  0  0  0  0  0
    7.1197   -1.4407   -2.0642 H   0  0  0  0  0  0  0  0  0  0  0  0
    7.9834   -1.2146   -4.3350 H   0  0  0  0  0  0  0  0  0  0  0  0
    9.6660   -3.7021   -7.5424 H   0  0  0  0  0  0  0  0  0  0  0  0
   11.0261   -7.6084   -7.3196 H   0  0  0  0  0  0  0  0  0  0  0  0
   14.8481   -4.4249   -7.9680 H   0  0  0  0  0  0  0  0  0  0  0  0
   16.7129   -5.9207   -7.4935 H   0  0  0  0  0  0  0  0  0  0  0  0
   15.4379   -6.8633   -8.2503 H   0  0  0  0  0  0  0  0  0  0  0  0
   16.4429   -8.0317   -6.3121 H   0  0  0  0  0  0  0  0  0  0  0  0
   14.7426   -7.7307   -5.9871 H   0  0  0  0  0  0  0  0  0  0  0  0
   19.6338   -6.2475   -2.5065 H   0  0  0  0  0  0  0  0  0  0  0  0
   19.3341   -7.9054   -2.9905 H   0  0  0  0  0  0  0  0  0  0  0  0
   19.8416   -7.5693   -1.3372 H   0  0  0  0  0  0  0  0  0  0  0  0
   18.1393   -5.0470   -0.8905 H   0  0  0  0  0  0  0  0  0  0  0  0
   18.3136   -6.3640    0.2868 H   0  0  0  0  0  0  0  0  0  0  0  0
   16.7046   -5.8236   -0.2365 H   0  0  0  0  0  0  0  0  0  0  0  0
   17.1600   -9.1386   -1.9531 H   0  0  0  0  0  0  0  0  0  0  0  0
   16.1075   -8.1989   -0.9110 H   0  0  0  0  0  0  0  0  0  0  0  0
   17.7068   -8.7192   -0.3327 H   0  0  0  0  0  0  0  0  0  0  0  0
   15.5811   -4.8023   -3.7447 H   0  0  0  0  0  0  0  0  0  0  0  0
   14.1978   -5.6812   -4.3904 H   0  0  0  0  0  0  0  0  0  0  0  0
   16.2152   -4.0048   -5.9812 H   0  0  0  0  0  0  0  0  0  0  0  0
   14.5712   -3.5179   -5.6144 H   0  0  0  0  0  0  0  0  0  0  0  0
   12.4349   -3.6532   -6.3907 H   0  0  0  0  0  0  0  0  0  0  0  0
    7.9521   -5.6549   -2.2132 H   0  0  0  0  0  0  0  0  0  0  0  0
    7.5729   -3.4221    1.2314 H   0  0  0  0  0  0  0  0  0  0  0  0
  1  2  1  0  0  0  0
  1 46  1  0  0  0  0
  1 47  1  0  0  0  0
  1 48  1  0  0  0  0
  2  3  1  0  0  0  0
  3  4  1  0  0  0  0
  3 45  2  0  0  0  0
  4  5  2  0  0  0  0
  4 49  1  0  0  0  0
  5  6  1  0  0  0  0
  5  8  1  0  0  0  0
  6  7  1  0  0  0  0
  7 50  1  0  0  0  0
  7 51  1  0  0  0  0
  7 52  1  0  0  0  0
  8  9  2  0  0  0  0
  8 53  1  0  0  0  0
  9 10  1  0  0  0  0
  9 45  1  0  0  0  0
 10 11  1  0  0  0  0
 10 17  1  0  0  0  0
 11 12  1  0  0  0  0
 11 54  1  0  0  0  0
 11 55  1  0  0  0  0
 12 13  1  0  0  0  0
 12 56  1  0  0  0  0
 12 57  1  0  0  0  0
 13 14  1  0  0  0  0
 13 58  1  0  0  0  0
 14 15  1  0  0  0  0
 14 16  1  0  0  0  0
 14 59  1  0  0  0  0
 15 60  1  0  0  0  0
 15 61  1  0  0  0  0
 15 62  1  0  0  0  0
 16 63  1  0  0  0  0
 16 64  1  0  0  0  0
 16 65  1  0  0  0  0
 17 18  1  0  0  0  0
 17 44  2  0  0  0  0
 18 19  2  0  0  0  0
 18 66  1  0  0  0  0
 19 20  1  0  0  0  0
 19 67  1  0  0  0  0
 20 21  1  0  0  0  0
 20 43  2  0  0  0  0
 21 22  2  0  0  0  0
 22 23  1  0  0  0  0
 22 68  1  0  0  0  0
 23 24  1  0  0  0  0
 23 42  2  0  0  0  0
 24 25  1  0  0  0  0
 24 41  2  0  0  0  0
 25 26  2  0  0  0  0
 25 69  1  0  0  0  0
 26 27  1  0  0  0  0
 27 28  1  0  0  0  0
 27 41  1  0  0  0  0
 28 29  1  0  0  0  0
 28 40  1  0  0  0  0
 28 70  1  0  0  0  0
 29 30  1  0  0  0  0
 29 71  1  0  0  0  0
 29 72  1  0  0  0  0
 30 31  1  0  0  0  0
 30 73  1  0  0  0  0
 30 74  1  0  0  0  0
 31 32  1  0  0  0  0
 31 39  1  0  0  0  0
 32 33  2  0  0  0  0
 32 34  1  0  0  0  0
 34 35  1  0  0  0  0
 35 36  1  0  0  0  0
 35 37  1  0  0  0  0
 35 38  1  0  0  0  0
 36 75  1  0  0  0  0
 36 76  1  0  0  0  0
 36 77  1  0  0  0  0
 37 78  1  0  0  0  0
 37 79  1  0  0  0  0
 37 80  1  0  0  0  0
 38 81  1  0  0  0  0
 38 82  1  0  0  0  0
 38 83  1  0  0  0  0
 39 40  1  0  0  0  0
 39 84  1  0  0  0  0
 39 85  1  0  0  0  0
 40 86  1  0  0  0  0
 40 87  1  0  0  0  0
 41 88  1  0  0  0  0
 42 43  1  0  0  0  0
 43 44  1  0  0  0  0
 44 89  1  0  0  0  0
 45 90  1  0  0  0  0
M  END
$$$$
