CHEMBL2386795
 OpenBabel04072215363D

 80 84  0  0  0  0  0  0  0  0999 V2000
   -1.4824   -1.9987    2.2307 C   0  0  0  0  0  0  0  0  0  0  0  0
   -0.9153   -1.0285    1.2322 C   0  0  0  0  0  0  0  0  0  0  0  0
   -1.5819    0.2133    1.0890 C   0  0  0  0  0  0  0  0  0  0  0  0
   -1.1404    1.1980    0.1951 C   0  0  0  0  0  0  0  0  0  0  0  0
   -1.8335    2.4785    0.0654 C   0  0  0  0  0  0  0  0  0  0  0  0
   -1.5646    3.5156   -0.8700 C   0  0  0  0  0  0  0  0  0  0  0  0
   -2.4494    4.5212   -0.5805 C   0  0  0  0  0  0  0  0  0  0  0  0
   -2.6076    5.7575   -1.1926 N   0  0  0  0  0  0  0  0  0  0  0  0
   -1.8116    6.2035   -2.3028 C   0  0  0  0  0  0  0  0  0  0  0  0
   -0.9031    5.5167   -2.7460 O   0  0  0  0  0  0  0  0  0  0  0  0
   -2.1359    7.5281   -2.8960 C   0  0  0  0  0  0  0  0  0  0  0  0
   -3.1628    8.3447   -2.4117 C   0  0  0  0  0  0  0  0  0  0  0  0
   -3.4363    9.5661   -3.0287 C   0  0  0  0  0  0  0  0  0  0  0  0
   -2.6573   10.0087   -4.0966 C   0  0  0  0  0  0  0  0  0  0  0  0
   -2.8018   11.2014   -4.7387 O   0  0  0  0  0  0  0  0  0  0  0  0
   -3.4816   12.2403   -4.0313 C   0  0  0  0  0  0  0  0  0  0  0  0
   -2.6562   13.5242   -4.1518 C   0  0  0  0  0  0  0  0  0  0  0  0
   -3.1907   14.6202   -3.3257 N   0  0  0  0  0  0  0  0  0  0  0  0
   -4.5226   15.0891   -3.7694 C   0  0  0  0  0  0  0  0  0  0  0  0
   -4.4959   15.8542   -5.1017 C   0  0  0  0  0  0  0  0  0  0  0  0
   -3.5919   16.9638   -5.0460 O   0  0  0  0  0  0  0  0  0  0  0  0
   -2.2718   16.5405   -4.6821 C   0  0  0  0  0  0  0  0  0  0  0  0
   -2.2757   15.7849   -3.3424 C   0  0  0  0  0  0  0  0  0  0  0  0
   -1.6454    9.1909   -4.5934 C   0  0  0  0  0  0  0  0  0  0  0  0
   -1.3825    7.9567   -3.9994 C   0  0  0  0  0  0  0  0  0  0  0  0
   -3.1875    4.0570    0.4708 N   0  0  0  0  0  0  0  0  0  0  0  0
   -2.8451    2.8299    0.8765 N   0  0  0  0  0  0  0  0  0  0  0  0
   -0.0020    0.9363   -0.5548 C   0  0  0  0  0  0  0  0  0  0  0  0
    0.6727   -0.2733   -0.4101 C   0  0  0  0  0  0  0  0  0  0  0  0
    0.2356   -1.2862    0.4542 C   0  0  0  0  0  0  0  0  0  0  0  0
    0.9235   -2.5336    0.5389 N   0  0  0  0  0  0  0  0  0  0  0  0
    1.9038   -2.9460   -0.3516 C   0  0  0  0  0  0  0  0  0  0  0  0
    2.2915   -2.2817   -1.3084 O   0  0  0  0  0  0  0  0  0  0  0  0
    2.4145   -4.2048   -0.0958 N   0  0  0  0  0  0  0  0  0  0  0  0
    3.4145   -4.6667   -0.9474 C   0  0  0  0  0  0  0  0  0  0  0  0
    4.4948   -3.9174   -1.4704 C   0  0  0  0  0  0  0  0  0  0  0  0
    5.0650   -4.7251   -2.4233 C   0  0  0  0  0  0  0  0  0  0  0  0
    6.1788   -4.5018   -3.4147 C   0  0  0  0  0  0  0  0  0  0  0  0
    7.5140   -4.4184   -2.6554 C   0  0  0  0  0  0  0  0  0  0  0  0
    6.2669   -5.6268   -4.4592 C   0  0  0  0  0  0  0  0  0  0  0  0
    5.9526   -3.1724   -4.1683 C   0  0  0  0  0  0  0  0  0  0  0  0
    4.4425   -5.9393   -2.3797 O   0  0  0  0  0  0  0  0  0  0  0  0
    3.4374   -5.9181   -1.4149 N   0  0  0  0  0  0  0  0  0  0  0  0
   -2.4764   -1.6797    2.5716 H   0  0  0  0  0  0  0  0  0  0  0  0
   -0.8358   -2.0556    3.1108 H   0  0  0  0  0  0  0  0  0  0  0  0
   -1.6065   -2.9910    1.7894 H   0  0  0  0  0  0  0  0  0  0  0  0
   -2.4720    0.4130    1.6853 H   0  0  0  0  0  0  0  0  0  0  0  0
   -0.8118    3.5036   -1.6446 H   0  0  0  0  0  0  0  0  0  0  0  0
   -3.3342    6.3467   -0.8184 H   0  0  0  0  0  0  0  0  0  0  0  0
   -3.7826    8.0844   -1.5630 H   0  0  0  0  0  0  0  0  0  0  0  0
   -4.2718   10.1492   -2.6503 H   0  0  0  0  0  0  0  0  0  0  0  0
   -3.6061   12.0391   -2.9631 H   0  0  0  0  0  0  0  0  0  0  0  0
   -4.4695   12.3514   -4.4889 H   0  0  0  0  0  0  0  0  0  0  0  0
   -2.5498   13.7890   -5.2096 H   0  0  0  0  0  0  0  0  0  0  0  0
   -1.6403   13.2841   -3.8069 H   0  0  0  0  0  0  0  0  0  0  0  0
   -4.9066   15.7595   -2.9895 H   0  0  0  0  0  0  0  0  0  0  0  0
   -5.2403   14.2640   -3.8197 H   0  0  0  0  0  0  0  0  0  0  0  0
   -5.4934   16.2519   -5.3130 H   0  0  0  0  0  0  0  0  0  0  0  0
   -4.2203   15.2023   -5.9385 H   0  0  0  0  0  0  0  0  0  0  0  0
   -1.6502   17.4368   -4.5954 H   0  0  0  0  0  0  0  0  0  0  0  0
   -1.8531   15.9308   -5.4907 H   0  0  0  0  0  0  0  0  0  0  0  0
   -2.6069   16.4725   -2.5532 H   0  0  0  0  0  0  0  0  0  0  0  0
   -1.2584   15.4785   -3.0718 H   0  0  0  0  0  0  0  0  0  0  0  0
   -1.0520    9.5200   -5.4472 H   0  0  0  0  0  0  0  0  0  0  0  0
   -0.5830    7.3381   -4.4068 H   0  0  0  0  0  0  0  0  0  0  0  0
   -3.9405    4.5187    0.9666 H   0  0  0  0  0  0  0  0  0  0  0  0
    0.4076    1.6522   -1.2616 H   0  0  0  0  0  0  0  0  0  0  0  0
    1.5754   -0.3637   -1.0027 H   0  0  0  0  0  0  0  0  0  0  0  0
    0.6488   -3.1712    1.2677 H   0  0  0  0  0  0  0  0  0  0  0  0
    1.7682   -4.9220    0.1931 H   0  0  0  0  0  0  0  0  0  0  0  0
    4.7646   -2.8962   -1.2449 H   0  0  0  0  0  0  0  0  0  0  0  0
    7.7342   -5.3600   -2.1392 H   0  0  0  0  0  0  0  0  0  0  0  0
    7.4963   -3.6255   -1.8980 H   0  0  0  0  0  0  0  0  0  0  0  0
    8.3462   -4.2056   -3.3359 H   0  0  0  0  0  0  0  0  0  0  0  0
    6.4570   -6.5992   -3.9904 H   0  0  0  0  0  0  0  0  0  0  0  0
    7.0814   -5.4400   -5.1693 H   0  0  0  0  0  0  0  0  0  0  0  0
    5.3392   -5.7111   -5.0373 H   0  0  0  0  0  0  0  0  0  0  0  0
    5.8924   -2.3189   -3.4828 H   0  0  0  0  0  0  0  0  0  0  0  0
    5.0212   -3.1945   -4.7467 H   0  0  0  0  0  0  0  0  0  0  0  0
    6.7723   -2.9694   -4.8678 H   0  0  0  0  0  0  0  0  0  0  0  0
  1  2  1  0  0  0  0
  1 44  1  0  0  0  0
  1 45  1  0  0  0  0
  1 46  1  0  0  0  0
  2  3  1  0  0  0  0
  2 30  2  0  0  0  0
  3  4  2  0  0  0  0
  3 47  1  0  0  0  0
  4  5  1  0  0  0  0
  4 28  1  0  0  0  0
  5  6  1  0  0  0  0
  5 27  2  0  0  0  0
  6  7  2  0  0  0  0
  6 48  1  0  0  0  0
  7  8  1  0  0  0  0
  7 26  1  0  0  0  0
  8  9  1  0  0  0  0
  8 49  1  0  0  0  0
  9 10  2  0  0  0  0
  9 11  1  0  0  0  0
 11 12  1  0  0  0  0
 11 25  2  0  0  0  0
 12 13  2  0  0  0  0
 12 50  1  0  0  0  0
 13 14  1  0  0  0  0
 13 51  1  0  0  0  0
 14 15  1  0  0  0  0
 14 24  2  0  0  0  0
 15 16  1  0  0  0  0
 16 17  1  0  0  0  0
 16 52  1  0  0  0  0
 16 53  1  0  0  0  0
 17 18  1  0  0  0  0
 17 54  1  0  0  0  0
 17 55  1  0  0  0  0
 18 19  1  0  0  0  0
 18 23  1  0  0  0  0
 19 20  1  0  0  0  0
 19 56  1  0  0  0  0
 19 57  1  0  0  0  0
 20 21  1  0  0  0  0
 20 58  1  0  0  0  0
 20 59  1  0  0  0  0
 21 22  1  0  0  0  0
 22 23  1  0  0  0  0
 22 60  1  0  0  0  0
 22 61  1  0  0  0  0
 23 62  1  0  0  0  0
 23 63  1  0  0  0  0
 24 25  1  0  0  0  0
 24 64  1  0  0  0  0
 25 65  1  0  0  0  0
 26 27  1  0  0  0  0
 26 66  1  0  0  0  0
 28 29  2  0  0  0  0
 28 67  1  0  0  0  0
 29 30  1  0  0  0  0
 29 68  1  0  0  0  0
 30 31  1  0  0  0  0
 31 32  1  0  0  0  0
 31 69  1  0  0  0  0
 32 33  2  0  0  0  0
 32 34  1  0  0  0  0
 34 35  1  0  0  0  0
 34 70  1  0  0  0  0
 35 36  1  0  0  0  0
 35 43  2  0  0  0  0
 36 37  2  0  0  0  0
 36 71  1  0  0  0  0
 37 38  1  0  0  0  0
 37 42  1  0  0  0  0
 38 39  1  0  0  0  0
 38 40  1  0  0  0  0
 38 41  1  0  0  0  0
 39 72  1  0  0  0  0
 39 73  1  0  0  0  0
 39 74  1  0  0  0  0
 40 75  1  0  0  0  0
 40 76  1  0  0  0  0
 40 77  1  0  0  0  0
 41 78  1  0  0  0  0
 41 79  1  0  0  0  0
 41 80  1  0  0  0  0
 42 43  1  0  0  0  0
M  END
$$$$
