CHEMBL2016897
 OpenBabel04072215363D

 49 53  0  0  1  0  0  0  0  0999 V2000
   -2.7987    0.1992   -1.7319 O   0  0  0  0  0  0  0  0  0  0  0  0
   -1.8650    0.0174   -0.9503 C   0  0  0  0  0  0  0  0  0  0  0  0
   -0.8408    0.9275   -0.8468 N   0  0  0  0  0  0  0  0  0  0  0  0
    0.2665    0.7576   -0.0030 C   0  0  0  0  0  0  0  0  0  0  0  0
    1.2802    1.7128    0.0339 C   0  0  0  0  0  0  0  0  0  0  0  0
    2.3856    1.5120    0.8656 C   0  0  0  0  0  0  0  0  0  0  0  0
    2.4747    0.3634    1.6545 C   0  0  0  0  0  0  0  0  0  0  0  0
    1.4549   -0.5872    1.6223 C   0  0  0  0  0  0  0  0  0  0  0  0
    0.3468   -0.3894    0.7939 C   0  0  0  0  0  0  0  0  0  0  0  0
   -0.7287   -1.3646    0.7383 C   0  0  0  0  0  0  0  0  0  0  0  0
   -1.7886   -1.2009   -0.0773 C   0  0  0  0  0  0  0  0  0  0  0  0
   -2.7857   -2.2171   -0.0723 C   0  0  0  0  0  0  0  0  0  0  0  0
   -2.8733   -3.2820    0.7109 N   0  0  0  0  0  0  0  0  0  0  0  0
   -3.9644   -3.9654    0.2730 C   0  0  0  0  0  0  0  0  0  0  0  0
   -4.5635   -3.3295   -0.7800 C   0  0  0  0  0  0  0  0  0  0  0  0
   -3.8226   -2.1990   -0.9829 N   0  0  0  0  0  0  0  0  0  0  0  0
   -5.7304   -3.8250   -1.5382 C   0  0  0  0  0  0  0  0  0  0  0  0
   -6.4595   -4.8465   -0.7656 N   0  0  3  0  0  0  0  0  0  0  0  0
   -7.8175   -4.4841   -0.3407 C   0  0  0  0  0  0  0  0  0  0  0  0
   -7.9281   -3.2607    0.5777 C   0  0  0  0  0  0  0  0  0  0  0  0
   -7.6047   -3.6020    2.0230 C   0  0  0  0  0  0  0  0  0  0  0  0
   -8.5011   -4.6260    2.5599 N   0  0  0  0  0  0  0  0  0  0  0  0
   -8.5296   -5.8429    1.7530 C   0  0  0  0  0  0  0  0  0  0  0  0
   -8.6911   -5.6122    0.2470 C   0  0  0  0  0  0  0  0  0  0  0  0
   -5.6246   -5.7878   -0.0008 C   0  0  0  0  0  0  0  0  0  0  0  0
   -4.4515   -5.2316    0.8448 C   0  0  0  0  0  0  0  0  0  0  0  0
   -0.9082    1.7463   -1.4388 H   0  0  0  0  0  0  0  0  0  0  0  0
    1.2279    2.6096   -0.5756 H   0  0  0  0  0  0  0  0  0  0  0  0
    3.1821    2.2511    0.8978 H   0  0  0  0  0  0  0  0  0  0  0  0
    3.3391    0.2061    2.2955 H   0  0  0  0  0  0  0  0  0  0  0  0
    1.5331   -1.4782    2.2415 H   0  0  0  0  0  0  0  0  0  0  0  0
   -0.6539   -2.2397    1.3798 H   0  0  0  0  0  0  0  0  0  0  0  0
   -3.9683   -1.4736   -1.6822 H   0  0  0  0  0  0  0  0  0  0  0  0
   -5.3756   -4.2901   -2.4658 H   0  0  0  0  0  0  0  0  0  0  0  0
   -6.3799   -2.9940   -1.8418 H   0  0  0  0  0  0  0  0  0  0  0  0
   -8.3229   -4.2088   -1.2789 H   0  0  0  0  0  0  0  0  0  0  0  0
   -8.9594   -2.8817    0.5268 H   0  0  0  0  0  0  0  0  0  0  0  0
   -7.2989   -2.4343    0.2320 H   0  0  0  0  0  0  0  0  0  0  0  0
   -7.7132   -2.6984    2.6329 H   0  0  0  0  0  0  0  0  0  0  0  0
   -6.5634   -3.9094    2.1281 H   0  0  0  0  0  0  0  0  0  0  0  0
   -9.4428   -4.2435    2.6257 H   0  0  0  0  0  0  0  0  0  0  0  0
   -9.3730   -6.4550    2.0955 H   0  0  0  0  0  0  0  0  0  0  0  0
   -7.6469   -6.4473    1.9798 H   0  0  0  0  0  0  0  0  0  0  0  0
   -9.7420   -5.3408    0.0685 H   0  0  0  0  0  0  0  0  0  0  0  0
   -8.5360   -6.5495   -0.3019 H   0  0  0  0  0  0  0  0  0  0  0  0
   -5.1874   -6.4728   -0.7392 H   0  0  0  0  0  0  0  0  0  0  0  0
   -6.2078   -6.4533    0.6326 H   0  0  0  0  0  0  0  0  0  0  0  0
   -3.6358   -5.9631    0.8634 H   0  0  0  0  0  0  0  0  0  0  0  0
   -4.7587   -5.0646    1.8815 H   0  0  0  0  0  0  0  0  0  0  0  0
  1  2  2  0  0  0  0
  2  3  1  0  0  0  0
  2 11  1  0  0  0  0
  3  4  1  0  0  0  0
  3 27  1  0  0  0  0
  4  5  1  0  0  0  0
  4  9  2  0  0  0  0
  5  6  2  0  0  0  0
  5 28  1  0  0  0  0
  6  7  1  0  0  0  0
  6 29  1  0  0  0  0
  7  8  2  0  0  0  0
  7 30  1  0  0  0  0
  8  9  1  0  0  0  0
  8 31  1  0  0  0  0
  9 10  1  0  0  0  0
 10 11  2  0  0  0  0
 10 32  1  0  0  0  0
 11 12  1  0  0  0  0
 12 13  2  0  0  0  0
 12 16  1  0  0  0  0
 13 14  1  0  0  0  0
 14 15  2  0  0  0  0
 14 26  1  0  0  0  0
 15 16  1  0  0  0  0
 15 17  1  0  0  0  0
 16 33  1  0  0  0  0
 17 18  1  0  0  0  0
 17 34  1  0  0  0  0
 17 35  1  0  0  0  0
 18 19  1  0  0  0  0
 18 25  1  0  0  0  0
 19 20  1  0  0  0  0
 19 24  1  0  0  0  0
 19 36  1  0  0  0  0
 20 21  1  0  0  0  0
 20 37  1  0  0  0  0
 20 38  1  0  0  0  0
 21 22  1  0  0  0  0
 21 39  1  0  0  0  0
 21 40  1  0  0  0  0
 22 23  1  0  0  0  0
 22 41  1  0  0  0  0
 23 24  1  0  0  0  0
 23 42  1  0  0  0  0
 23 43  1  0  0  0  0
 24 44  1  0  0  0  0
 24 45  1  0  0  0  0
 25 26  1  0  0  0  0
 25 46  1  0  0  0  0
 25 47  1  0  0  0  0
 26 48  1  0  0  0  0
 26 49  1  0  0  0  0
M  END
$$$$
