CHEMBL4059958
 OpenBabel04072215373D

 50 53  0  0  0  0  0  0  0  0999 V2000
    0.7034   -0.4989    0.3949 C   0  0  0  0  0  0  0  0  0  0  0  0
    2.2028   -0.2618    0.2849 C   0  0  0  0  0  0  0  0  0  0  0  0
    2.6524    0.7747    1.2820 C   0  0  0  0  0  0  0  0  0  0  0  0
    2.6731    2.1222    0.8999 C   0  0  0  0  0  0  0  0  0  0  0  0
    3.0152    3.1013    1.8199 C   0  0  0  0  0  0  0  0  0  0  0  0
    3.3107    2.7430    3.1327 C   0  0  0  0  0  0  0  0  0  0  0  0
    3.2387    1.4106    3.5608 C   0  0  0  0  0  0  0  0  0  0  0  0
    3.3861    1.0314    4.9248 N   0  0  0  0  0  0  0  0  0  0  0  0
    3.2128    1.9142    5.9788 C   0  0  0  0  0  0  0  0  0  0  0  0
    2.9477    3.1015    5.8273 O   0  0  0  0  0  0  0  0  0  0  0  0
    3.3484    1.3155    7.2276 N   0  0  0  0  0  0  0  0  0  0  0  0
    3.1229    2.0279    8.4382 C   0  0  0  0  0  0  0  0  0  0  0  0
    2.3728    3.2030    8.4759 C   0  0  0  0  0  0  0  0  0  0  0  0
    2.3583    4.0147    9.6086 C   0  0  0  0  0  0  0  0  0  0  0  0
    3.0107    3.6450   10.7932 C   0  0  0  0  0  0  0  0  0  0  0  0
    3.0325    4.5767   11.9403 C   0  0  0  0  0  0  0  0  0  0  0  0
    1.9286    5.4332   12.1831 C   0  0  0  0  0  0  0  0  0  0  0  0
    1.9517    6.3612   13.2111 C   0  0  0  0  0  0  0  0  0  0  0  0
    2.9622    6.5180   14.0788 N   0  0  0  0  0  0  0  0  0  0  0  0
    3.9925    5.6893   13.8358 C   0  0  0  0  0  0  0  0  0  0  0  0
    5.1295    5.6559   14.5794 N   0  0  0  0  0  0  0  0  0  0  0  0
    6.0444    4.7819   14.1391 N   0  0  0  0  0  0  0  0  0  0  0  0
    5.4803    4.2622   13.0311 C   0  0  0  0  0  0  0  0  0  0  0  0
    6.3205    3.3182   12.2326 C   0  0  0  0  0  0  0  0  0  0  0  0
    6.2559    1.9834   12.7397 O   0  0  0  0  0  0  0  0  0  0  0  0
    4.1374    4.7403   12.8239 C   0  0  0  0  0  0  0  0  0  0  0  0
    3.5891    2.3653   10.8010 C   0  0  0  0  0  0  0  0  0  0  0  0
    3.6810    1.5814    9.6328 C   0  0  0  0  0  0  0  0  0  0  0  0
    2.9547    0.4221    2.6119 C   0  0  0  0  0  0  0  0  0  0  0  0
    0.3715   -1.2068   -0.3702 H   0  0  0  0  0  0  0  0  0  0  0  0
    0.1420    0.4331    0.2620 H   0  0  0  0  0  0  0  0  0  0  0  0
    0.4404   -0.9078    1.3764 H   0  0  0  0  0  0  0  0  0  0  0  0
    2.4482    0.0725   -0.7311 H   0  0  0  0  0  0  0  0  0  0  0  0
    2.7509   -1.1975    0.4417 H   0  0  0  0  0  0  0  0  0  0  0  0
    2.4073    2.4172   -0.1123 H   0  0  0  0  0  0  0  0  0  0  0  0
    3.0275    4.1497    1.5337 H   0  0  0  0  0  0  0  0  0  0  0  0
    3.5784    3.5489    3.8089 H   0  0  0  0  0  0  0  0  0  0  0  0
    3.3141    0.0483    5.1373 H   0  0  0  0  0  0  0  0  0  0  0  0
    3.9211    0.4825    7.2800 H   0  0  0  0  0  0  0  0  0  0  0  0
    1.8072    3.5533    7.6162 H   0  0  0  0  0  0  0  0  0  0  0  0
    1.8364    4.9656    9.5200 H   0  0  0  0  0  0  0  0  0  0  0  0
    1.0392    5.3913   11.5602 H   0  0  0  0  0  0  0  0  0  0  0  0
    1.1096    7.0333   13.3600 H   0  0  0  0  0  0  0  0  0  0  0  0
    5.3312    6.2240   15.3920 H   0  0  0  0  0  0  0  0  0  0  0  0
    7.3724    3.6247   12.2765 H   0  0  0  0  0  0  0  0  0  0  0  0
    6.0468    3.3182   11.1760 H   0  0  0  0  0  0  0  0  0  0  0  0
    6.5215    2.0592   13.6751 H   0  0  0  0  0  0  0  0  0  0  0  0
    4.0118    1.9622   11.7175 H   0  0  0  0  0  0  0  0  0  0  0  0
    4.2322    0.6450    9.6784 H   0  0  0  0  0  0  0  0  0  0  0  0
    2.9089   -0.6236    2.9043 H   0  0  0  0  0  0  0  0  0  0  0  0
  1  2  1  0  0  0  0
  1 30  1  0  0  0  0
  1 31  1  0  0  0  0
  1 32  1  0  0  0  0
  2  3  1  0  0  0  0
  2 33  1  0  0  0  0
  2 34  1  0  0  0  0
  3  4  1  0  0  0  0
  3 29  2  0  0  0  0
  4  5  2  0  0  0  0
  4 35  1  0  0  0  0
  5  6  1  0  0  0  0
  5 36  1  0  0  0  0
  6  7  2  0  0  0  0
  6 37  1  0  0  0  0
  7  8  1  0  0  0  0
  7 29  1  0  0  0  0
  8  9  1  0  0  0  0
  8 38  1  0  0  0  0
  9 10  2  0  0  0  0
  9 11  1  0  0  0  0
 11 12  1  0  0  0  0
 11 39  1  0  0  0  0
 12 13  1  0  0  0  0
 12 28  2  0  0  0  0
 13 14  2  0  0  0  0
 13 40  1  0  0  0  0
 14 15  1  0  0  0  0
 14 41  1  0  0  0  0
 15 16  1  0  0  0  0
 15 27  2  0  0  0  0
 16 17  1  0  0  0  0
 16 26  2  0  0  0  0
 17 18  2  0  0  0  0
 17 42  1  0  0  0  0
 18 19  1  0  0  0  0
 18 43  1  0  0  0  0
 19 20  2  0  0  0  0
 20 21  1  0  0  0  0
 20 26  1  0  0  0  0
 21 22  1  0  0  0  0
 21 44  1  0  0  0  0
 22 23  2  0  0  0  0
 23 24  1  0  0  0  0
 23 26  1  0  0  0  0
 24 25  1  0  0  0  0
 24 45  1  0  0  0  0
 24 46  1  0  0  0  0
 25 47  1  0  0  0  0
 27 28  1  0  0  0  0
 27 48  1  0  0  0  0
 28 49  1  0  0  0  0
 29 50  1  0  0  0  0
M  END
$$$$
