CHEMBL3977286
 OpenBabel04072215373D

 42 45  0  0  0  0  0  0  0  0999 V2000
    1.0538   -0.6692   -0.1848 O   0  0  0  0  0  0  0  0  0  0  0  0
    2.1835   -0.2564    0.0411 C   0  0  0  0  0  0  0  0  0  0  0  0
    2.7290   -0.1053    1.3114 N   0  0  0  0  0  0  0  0  0  0  0  0
    2.0362   -0.3490    2.5257 C   0  0  0  0  0  0  0  0  0  0  0  0
    0.8603   -1.1010    2.6023 C   0  0  0  0  0  0  0  0  0  0  0  0
    0.1264   -1.1718    3.7933 C   0  0  0  0  0  0  0  0  0  0  0  0
    0.5715   -0.5088    4.9351 C   0  0  0  0  0  0  0  0  0  0  0  0
   -0.2449   -0.4921    6.1145 C   0  0  0  0  0  0  0  0  0  0  0  0
   -0.9795   -0.4839    7.0681 C   0  0  0  0  0  0  0  0  0  0  0  0
   -1.8901   -0.5497    8.1874 C   0  0  0  0  0  0  0  0  0  0  0  0
   -2.3516   -1.8555    8.7149 C   0  0  0  0  0  0  0  0  0  0  0  0
   -3.1889   -1.8271    9.7592 C   0  0  0  0  0  0  0  0  0  0  0  0
   -3.5854   -0.5799   10.2900 C   0  0  0  0  0  0  0  0  0  0  0  0
   -4.3803   -0.2820   11.2962 N   0  0  0  0  0  0  0  0  0  0  0  0
   -4.3959    1.0920   11.3437 C   0  0  0  0  0  0  0  0  0  0  0  0
   -3.6059    1.6282   10.3560 C   0  0  0  0  0  0  0  0  0  0  0  0
   -3.0779    0.5601    9.6812 N   0  0  0  0  0  0  0  0  0  0  0  0
   -2.2168    0.6266    8.6195 N   0  0  0  0  0  0  0  0  0  0  0  0
    1.7944    0.1633    4.8960 C   0  0  0  0  0  0  0  0  0  0  0  0
    2.5288    0.2338    3.6999 C   0  0  0  0  0  0  0  0  0  0  0  0
    3.0736    0.1335   -0.9522 N   0  0  0  0  0  0  0  0  0  0  0  0
    2.7552    0.2157   -2.3325 C   0  0  0  0  0  0  0  0  0  0  0  0
    1.4395    0.3195   -2.8066 C   0  0  0  0  0  0  0  0  0  0  0  0
    1.1674    0.3325   -4.1773 C   0  0  0  0  0  0  0  0  0  0  0  0
    2.2139    0.2543   -5.0843 C   0  0  0  0  0  0  0  0  0  0  0  0
    1.9329    0.2378   -6.3953 F   0  0  0  0  0  0  0  0  0  0  0  0
    3.5298    0.1944   -4.6322 C   0  0  0  0  0  0  0  0  0  0  0  0
    4.8331    0.1007   -5.7550 Cl  0  0  0  0  0  0  0  0  0  0  0  0
    3.8049    0.1917   -3.2591 C   0  0  0  0  0  0  0  0  0  0  0  0
    3.5543    0.4709    1.3760 H   0  0  0  0  0  0  0  0  0  0  0  0
    0.4674   -1.6320    1.7401 H   0  0  0  0  0  0  0  0  0  0  0  0
   -0.8096   -1.7255    3.7994 H   0  0  0  0  0  0  0  0  0  0  0  0
   -2.0062   -2.7690    8.2520 H   0  0  0  0  0  0  0  0  0  0  0  0
   -3.5749   -2.7338   10.2096 H   0  0  0  0  0  0  0  0  0  0  0  0
   -4.9791    1.6165   12.0898 H   0  0  0  0  0  0  0  0  0  0  0  0
   -3.3740    2.6444   10.0775 H   0  0  0  0  0  0  0  0  0  0  0  0
    2.1694    0.6665    5.7842 H   0  0  0  0  0  0  0  0  0  0  0  0
    3.4606    0.7929    3.6975 H   0  0  0  0  0  0  0  0  0  0  0  0
    4.0529    0.1039   -0.7102 H   0  0  0  0  0  0  0  0  0  0  0  0
    0.5945    0.3943   -2.1264 H   0  0  0  0  0  0  0  0  0  0  0  0
    0.1436    0.3927   -4.5344 H   0  0  0  0  0  0  0  0  0  0  0  0
    4.8376    0.1368   -2.9278 H   0  0  0  0  0  0  0  0  0  0  0  0
  1  2  2  0  0  0  0
  2  3  1  0  0  0  0
  2 21  1  0  0  0  0
  3  4  1  0  0  0  0
  3 30  1  0  0  0  0
  4  5  1  0  0  0  0
  4 20  2  0  0  0  0
  5  6  2  0  0  0  0
  5 31  1  0  0  0  0
  6  7  1  0  0  0  0
  6 32  1  0  0  0  0
  7  8  1  0  0  0  0
  7 19  2  0  0  0  0
  8  9  3  0  0  0  0
  9 10  1  0  0  0  0
 10 11  1  0  0  0  0
 10 18  2  0  0  0  0
 11 12  2  0  0  0  0
 11 33  1  0  0  0  0
 12 13  1  0  0  0  0
 12 34  1  0  0  0  0
 13 14  2  0  0  0  0
 13 17  1  0  0  0  0
 14 15  1  0  0  0  0
 15 16  2  0  0  0  0
 15 35  1  0  0  0  0
 16 17  1  0  0  0  0
 16 36  1  0  0  0  0
 17 18  1  0  0  0  0
 19 20  1  0  0  0  0
 19 37  1  0  0  0  0
 20 38  1  0  0  0  0
 21 22  1  0  0  0  0
 21 39  1  0  0  0  0
 22 23  1  0  0  0  0
 22 29  2  0  0  0  0
 23 24  2  0  0  0  0
 23 40  1  0  0  0  0
 24 25  1  0  0  0  0
 24 41  1  0  0  0  0
 25 26  1  0  0  0  0
 25 27  2  0  0  0  0
 27 28  1  0  0  0  0
 27 29  1  0  0  0  0
 29 42  1  0  0  0  0
M  END
$$$$
