CHEMBL1290031
 OpenBabel04072215363D

 48 52  0  0  0  0  0  0  0  0999 V2000
    0.9839   -0.5185   -0.0181 O   0  0  0  0  0  0  0  0  0  0  0  0
    2.1543   -0.1476   -0.0303 C   0  0  0  0  0  0  0  0  0  0  0  0
    2.7466    0.7466    0.8481 N   0  0  0  0  0  0  0  0  0  0  0  0
    2.1079    1.3311    1.9679 C   0  0  0  0  0  0  0  0  0  0  0  0
    0.8973    0.8566    2.4729 C   0  0  0  0  0  0  0  0  0  0  0  0
    0.2789    1.4779    3.5573 C   0  0  0  0  0  0  0  0  0  0  0  0
    0.8956    2.5492    4.2006 C   0  0  0  0  0  0  0  0  0  0  0  0
    0.3313    3.1724    5.2945 O   0  0  0  0  0  0  0  0  0  0  0  0
   -0.1983    2.3438    6.2854 C   0  0  0  0  0  0  0  0  0  0  0  0
    0.2767    1.0794    6.4051 N   0  0  0  0  0  0  0  0  0  0  0  0
   -0.2637    0.2784    7.3272 C   0  0  0  0  0  0  0  0  0  0  0  0
   -1.2047    0.5943    8.2137 N   0  0  0  0  0  0  0  0  0  0  0  0
   -1.6112    1.8702    8.1056 C   0  0  0  0  0  0  0  0  0  0  0  0
   -2.7754    2.4836    9.1847 S   0  0  0  0  0  0  0  0  0  0  0  0
   -2.7544    4.0030    8.4302 C   0  0  0  0  0  0  0  0  0  0  0  0
   -1.8894    4.0571    7.3500 C   0  0  0  0  0  0  0  0  0  0  0  0
   -1.1803    2.8093    7.1753 C   0  0  0  0  0  0  0  0  0  0  0  0
   -1.7827    5.2934    6.5019 C   0  0  0  0  0  0  0  0  0  0  0  0
   -2.3559    6.5313    7.2150 C   0  0  0  0  0  0  0  0  0  0  0  0
   -3.7081    6.2357    7.8795 C   0  0  0  0  0  0  0  0  0  0  0  0
   -3.5847    5.1382    8.9431 C   0  0  0  0  0  0  0  0  0  0  0  0
    2.1027    3.0433    3.7028 C   0  0  0  0  0  0  0  0  0  0  0  0
    2.7128    2.4283    2.5969 C   0  0  0  0  0  0  0  0  0  0  0  0
    3.0091   -0.6629   -1.1281 C   0  0  0  0  0  0  0  0  0  0  0  0
    2.3974   -0.9049   -2.3665 C   0  0  0  0  0  0  0  0  0  0  0  0
    3.1297   -1.4436   -3.4188 C   0  0  0  0  0  0  0  0  0  0  0  0
    4.4771   -1.7535   -3.2321 C   0  0  0  0  0  0  0  0  0  0  0  0
    5.0887   -1.5259   -1.9958 C   0  0  0  0  0  0  0  0  0  0  0  0
    4.3589   -0.9800   -0.9390 C   0  0  0  0  0  0  0  0  0  0  0  0
    3.6594    1.1078    0.6055 H   0  0  0  0  0  0  0  0  0  0  0  0
    0.4054   -0.0175    2.0599 H   0  0  0  0  0  0  0  0  0  0  0  0
   -0.6691    1.0830    3.9092 H   0  0  0  0  0  0  0  0  0  0  0  0
    0.1020   -0.7432    7.3494 H   0  0  0  0  0  0  0  0  0  0  0  0
   -2.3451    5.1231    5.5748 H   0  0  0  0  0  0  0  0  0  0  0  0
   -0.7416    5.4881    6.2251 H   0  0  0  0  0  0  0  0  0  0  0  0
   -2.4671    7.3503    6.4956 H   0  0  0  0  0  0  0  0  0  0  0  0
   -1.6483    6.8716    7.9819 H   0  0  0  0  0  0  0  0  0  0  0  0
   -4.4274    5.9238    7.1115 H   0  0  0  0  0  0  0  0  0  0  0  0
   -4.1075    7.1458    8.3414 H   0  0  0  0  0  0  0  0  0  0  0  0
   -4.5840    4.7987    9.2383 H   0  0  0  0  0  0  0  0  0  0  0  0
   -3.0995    5.5518    9.8364 H   0  0  0  0  0  0  0  0  0  0  0  0
    2.5783    3.8973    4.1799 H   0  0  0  0  0  0  0  0  0  0  0  0
    3.6569    2.8290    2.2323 H   0  0  0  0  0  0  0  0  0  0  0  0
    1.3396   -0.6833   -2.5040 H   0  0  0  0  0  0  0  0  0  0  0  0
    2.6490   -1.6368   -4.3732 H   0  0  0  0  0  0  0  0  0  0  0  0
    5.0461   -2.1930   -4.0477 H   0  0  0  0  0  0  0  0  0  0  0  0
    6.1321   -1.7966   -1.8558 H   0  0  0  0  0  0  0  0  0  0  0  0
    4.8353   -0.8536    0.0279 H   0  0  0  0  0  0  0  0  0  0  0  0
  1  2  2  0  0  0  0
  2  3  1  0  0  0  0
  2 24  1  0  0  0  0
  3  4  1  0  0  0  0
  3 30  1  0  0  0  0
  4  5  1  0  0  0  0
  4 23  2  0  0  0  0
  5  6  2  0  0  0  0
  5 31  1  0  0  0  0
  6  7  1  0  0  0  0
  6 32  1  0  0  0  0
  7  8  1  0  0  0  0
  7 22  2  0  0  0  0
  8  9  1  0  0  0  0
  9 10  1  0  0  0  0
  9 17  2  0  0  0  0
 10 11  2  0  0  0  0
 11 12  1  0  0  0  0
 11 33  1  0  0  0  0
 12 13  2  0  0  0  0
 13 14  1  0  0  0  0
 13 17  1  0  0  0  0
 14 15  1  0  0  0  0
 15 16  2  0  0  0  0
 15 21  1  0  0  0  0
 16 17  1  0  0  0  0
 16 18  1  0  0  0  0
 18 19  1  0  0  0  0
 18 34  1  0  0  0  0
 18 35  1  0  0  0  0
 19 20  1  0  0  0  0
 19 36  1  0  0  0  0
 19 37  1  0  0  0  0
 20 21  1  0  0  0  0
 20 38  1  0  0  0  0
 20 39  1  0  0  0  0
 21 40  1  0  0  0  0
 21 41  1  0  0  0  0
 22 23  1  0  0  0  0
 22 42  1  0  0  0  0
 23 43  1  0  0  0  0
 24 25  1  0  0  0  0
 24 29  2  0  0  0  0
 25 26  2  0  0  0  0
 25 44  1  0  0  0  0
 26 27  1  0  0  0  0
 26 45  1  0  0  0  0
 27 28  2  0  0  0  0
 27 46  1  0  0  0  0
 28 29  1  0  0  0  0
 28 47  1  0  0  0  0
 29 48  1  0  0  0  0
M  END
$$$$
