CHEMBL404223
 OpenBabel04072215373D

 42 45  0  0  0  0  0  0  0  0999 V2000
    1.3487   -0.2066   -1.7023 N   0  0  0  0  0  0  0  0  0  0  0  0
    2.6597   -0.2616   -1.4172 C   0  0  0  0  0  0  0  0  0  0  0  0
    3.4713    0.7268   -1.7894 N   0  0  0  0  0  0  0  0  0  0  0  0
    4.6583    0.3648   -1.2808 N   0  0  0  0  0  0  0  0  0  0  0  0
    4.6374   -0.8175   -0.6105 C   0  0  0  0  0  0  0  0  0  0  0  0
    5.6975   -1.3677    0.0095 N   0  0  0  0  0  0  0  0  0  0  0  0
    5.4019   -2.5406    0.5971 C   0  0  0  0  0  0  0  0  0  0  0  0
    4.1602   -3.1592    0.5710 C   0  0  0  0  0  0  0  0  0  0  0  0
    3.0622   -2.5520   -0.0857 C   0  0  0  0  0  0  0  0  0  0  0  0
    1.7283   -3.1755   -0.0550 C   0  0  0  0  0  0  0  0  0  0  0  0
    1.2806   -3.8165    1.1100 C   0  0  0  0  0  0  0  0  0  0  0  0
    0.0084   -4.3813    1.1982 C   0  0  0  0  0  0  0  0  0  0  0  0
   -0.8928   -4.2810    0.1434 C   0  0  0  0  0  0  0  0  0  0  0  0
   -2.2286   -4.7390    0.2483 N   0  0  0  0  0  0  0  0  0  0  0  0
   -2.8747   -4.9253    1.4572 C   0  0  0  0  0  0  0  0  0  0  0  0
   -2.4221   -4.5755    2.5435 O   0  0  0  0  0  0  0  0  0  0  0  0
   -4.0821   -5.5984    1.3107 N   0  0  0  0  0  0  0  0  0  0  0  0
   -4.7917   -5.9440    2.4867 C   0  0  0  0  0  0  0  0  0  0  0  0
   -5.0392   -4.9865    3.4812 C   0  0  0  0  0  0  0  0  0  0  0  0
   -5.5355   -5.3794    4.7227 C   0  0  0  0  0  0  0  0  0  0  0  0
   -5.8028   -6.7227    4.9670 C   0  0  0  0  0  0  0  0  0  0  0  0
   -5.6156   -7.6693    3.9563 C   0  0  0  0  0  0  0  0  0  0  0  0
   -5.1361   -7.2786    2.7037 C   0  0  0  0  0  0  0  0  0  0  0  0
   -0.4570   -3.7083   -1.0488 C   0  0  0  0  0  0  0  0  0  0  0  0
    0.8476   -3.1894   -1.1496 C   0  0  0  0  0  0  0  0  0  0  0  0
    3.3327   -1.3004   -0.6976 C   0  0  0  0  0  0  0  0  0  0  0  0
    1.0296    0.6897   -2.0550 H   0  0  0  0  0  0  0  0  0  0  0  0
    0.6909   -0.6226   -1.0516 H   0  0  0  0  0  0  0  0  0  0  0  0
    5.4582    0.9683   -1.4118 H   0  0  0  0  0  0  0  0  0  0  0  0
    6.2303   -3.0045    1.1298 H   0  0  0  0  0  0  0  0  0  0  0  0
    4.0503   -4.1158    1.0746 H   0  0  0  0  0  0  0  0  0  0  0  0
    1.9140   -3.8735    1.9958 H   0  0  0  0  0  0  0  0  0  0  0  0
   -0.2450   -4.8890    2.1261 H   0  0  0  0  0  0  0  0  0  0  0  0
   -2.8243   -4.6429   -0.5613 H   0  0  0  0  0  0  0  0  0  0  0  0
   -4.0607   -6.2985    0.5829 H   0  0  0  0  0  0  0  0  0  0  0  0
   -4.7904   -3.9427    3.3144 H   0  0  0  0  0  0  0  0  0  0  0  0
   -5.6828   -4.6375    5.5045 H   0  0  0  0  0  0  0  0  0  0  0  0
   -6.1346   -7.0376    5.9529 H   0  0  0  0  0  0  0  0  0  0  0  0
   -5.8021   -8.7205    4.1613 H   0  0  0  0  0  0  0  0  0  0  0  0
   -4.9485   -8.0364    1.9495 H   0  0  0  0  0  0  0  0  0  0  0  0
   -1.1204   -3.6236   -1.9041 H   0  0  0  0  0  0  0  0  0  0  0  0
    1.1563   -2.7640   -2.1034 H   0  0  0  0  0  0  0  0  0  0  0  0
  1  2  1  0  0  0  0
  1 27  1  0  0  0  0
  1 28  1  0  0  0  0
  2  3  2  0  0  0  0
  2 26  1  0  0  0  0
  3  4  1  0  0  0  0
  4  5  1  0  0  0  0
  4 29  1  0  0  0  0
  5  6  1  0  0  0  0
  5 26  2  0  0  0  0
  6  7  2  0  0  0  0
  7  8  1  0  0  0  0
  7 30  1  0  0  0  0
  8  9  2  0  0  0  0
  8 31  1  0  0  0  0
  9 10  1  0  0  0  0
  9 26  1  0  0  0  0
 10 11  1  0  0  0  0
 10 25  2  0  0  0  0
 11 12  2  0  0  0  0
 11 32  1  0  0  0  0
 12 13  1  0  0  0  0
 12 33  1  0  0  0  0
 13 14  1  0  0  0  0
 13 24  2  0  0  0  0
 14 15  1  0  0  0  0
 14 34  1  0  0  0  0
 15 16  2  0  0  0  0
 15 17  1  0  0  0  0
 17 18  1  0  0  0  0
 17 35  1  0  0  0  0
 18 19  1  0  0  0  0
 18 23  2  0  0  0  0
 19 20  2  0  0  0  0
 19 36  1  0  0  0  0
 20 21  1  0  0  0  0
 20 37  1  0  0  0  0
 21 22  2  0  0  0  0
 21 38  1  0  0  0  0
 22 23  1  0  0  0  0
 22 39  1  0  0  0  0
 23 40  1  0  0  0  0
 24 25  1  0  0  0  0
 24 41  1  0  0  0  0
 25 42  1  0  0  0  0
M  END
$$$$
