CHEMBL374690
 OpenBabel04072215373D

 57 61  0  0  0  0  0  0  0  0999 V2000
    1.1297   -1.3316    0.5677 C   0  0  0  0  0  0  0  0  0  0  0  0
    2.3485   -1.7659    1.2249 N   0  0  0  0  0  0  0  0  0  0  0  0
    2.4492   -1.6375    2.6696 C   0  0  0  0  0  0  0  0  0  0  0  0
    3.3538   -2.2945    0.4231 C   0  0  0  0  0  0  0  0  0  0  0  0
    3.2095   -2.4304   -0.7953 O   0  0  0  0  0  0  0  0  0  0  0  0
    4.6404   -2.7641    1.1002 C   0  0  0  0  0  0  0  0  0  0  0  0
    5.3597   -1.6759    1.6730 O   0  0  0  0  0  0  0  0  0  0  0  0
    6.6757   -1.9344    1.9595 C   0  0  0  0  0  0  0  0  0  0  0  0
    7.5105   -0.7999    2.0572 C   0  0  0  0  0  0  0  0  0  0  0  0
    8.8878   -0.9186    2.2971 C   0  0  0  0  0  0  0  0  0  0  0  0
    9.3921   -2.1904    2.4442 C   0  0  0  0  0  0  0  0  0  0  0  0
    8.5589   -3.3384    2.3720 C   0  0  0  0  0  0  0  0  0  0  0  0
    7.1989   -3.2155    2.1473 C   0  0  0  0  0  0  0  0  0  0  0  0
    9.3184   -4.6606    2.5386 C   0  0  0  0  0  0  0  0  0  0  0  0
   10.6744   -4.0802    2.7097 C   0  0  0  0  0  0  0  0  0  0  0  0
   12.0056   -4.4674    2.8995 C   0  0  0  0  0  0  0  0  0  0  0  0
   12.4728   -5.8599    2.9900 C   0  0  0  0  0  0  0  0  0  0  0  0
   11.6857   -6.9842    2.8455 C   0  0  0  0  0  0  0  0  0  0  0  0
   12.5691   -8.4356    3.0154 S   0  0  0  0  0  0  0  0  0  0  0  0
   14.0225   -7.5829    3.2836 C   0  0  0  0  0  0  0  0  0  0  0  0
   15.2560   -8.2532    3.5225 C   0  0  0  0  0  0  0  0  0  0  0  0
   16.3689   -8.8933    3.7502 C   0  0  0  0  0  0  0  0  0  0  0  0
   17.6662   -9.6396    4.0157 C   0  0  0  0  0  0  0  0  0  0  0  0
   17.6143  -10.9078    3.3733 O   0  0  0  0  0  0  0  0  0  0  0  0
   18.7085  -11.7130    3.5399 C   0  0  0  0  0  0  0  0  0  0  0  0
   19.8680  -11.3851    4.2468 C   0  0  0  0  0  0  0  0  0  0  0  0
   20.9175  -12.3027    4.3412 C   0  0  0  0  0  0  0  0  0  0  0  0
   20.8140  -13.5503    3.7301 C   0  0  0  0  0  0  0  0  0  0  0  0
   19.6606  -13.8825    3.0231 C   0  0  0  0  0  0  0  0  0  0  0  0
   18.6125  -12.9654    2.9289 C   0  0  0  0  0  0  0  0  0  0  0  0
   13.8371   -6.2157    3.2423 C   0  0  0  0  0  0  0  0  0  0  0  0
   12.8106   -3.3871    2.9836 N   0  0  0  0  0  0  0  0  0  0  0  0
   11.9733   -2.3228    2.8281 N   0  0  0  0  0  0  0  0  0  0  0  0
   10.6970   -2.7132    2.6626 C   0  0  0  0  0  0  0  0  0  0  0  0
    0.4216   -0.9014    1.2794 H   0  0  0  0  0  0  0  0  0  0  0  0
    0.6696   -2.1916    0.0709 H   0  0  0  0  0  0  0  0  0  0  0  0
    1.3820   -0.5826   -0.1895 H   0  0  0  0  0  0  0  0  0  0  0  0
    1.5351   -1.2127    3.0922 H   0  0  0  0  0  0  0  0  0  0  0  0
    3.2886   -0.9846    2.9202 H   0  0  0  0  0  0  0  0  0  0  0  0
    2.6164   -2.6259    3.1067 H   0  0  0  0  0  0  0  0  0  0  0  0
    5.2378   -3.2545    0.3196 H   0  0  0  0  0  0  0  0  0  0  0  0
    4.3811   -3.5054    1.8651 H   0  0  0  0  0  0  0  0  0  0  0  0
    7.0757    0.1885    1.9195 H   0  0  0  0  0  0  0  0  0  0  0  0
    9.5180   -0.0388    2.3458 H   0  0  0  0  0  0  0  0  0  0  0  0
    6.5871   -4.1085    2.1127 H   0  0  0  0  0  0  0  0  0  0  0  0
    9.2374   -5.2656    1.6321 H   0  0  0  0  0  0  0  0  0  0  0  0
    8.9783   -5.1948    3.4288 H   0  0  0  0  0  0  0  0  0  0  0  0
   10.6281   -7.0500    2.6447 H   0  0  0  0  0  0  0  0  0  0  0  0
   17.7694   -9.7605    5.1007 H   0  0  0  0  0  0  0  0  0  0  0  0
   18.4912   -9.0372    3.6174 H   0  0  0  0  0  0  0  0  0  0  0  0
   19.9935  -10.4258    4.7374 H   0  0  0  0  0  0  0  0  0  0  0  0
   21.8167  -12.0406    4.8932 H   0  0  0  0  0  0  0  0  0  0  0  0
   21.6320  -14.2620    3.8054 H   0  0  0  0  0  0  0  0  0  0  0  0
   19.5751  -14.8543    2.5449 H   0  0  0  0  0  0  0  0  0  0  0  0
   17.7145  -13.2280    2.3749 H   0  0  0  0  0  0  0  0  0  0  0  0
   14.6354   -5.4962    3.3865 H   0  0  0  0  0  0  0  0  0  0  0  0
   12.3653   -1.3862    2.8489 H   0  0  0  0  0  0  0  0  0  0  0  0
  1  2  1  0  0  0  0
  1 35  1  0  0  0  0
  1 36  1  0  0  0  0
  1 37  1  0  0  0  0
  2  3  1  0  0  0  0
  2  4  1  0  0  0  0
  3 38  1  0  0  0  0
  3 39  1  0  0  0  0
  3 40  1  0  0  0  0
  4  5  2  0  0  0  0
  4  6  1  0  0  0  0
  6  7  1  0  0  0  0
  6 41  1  0  0  0  0
  6 42  1  0  0  0  0
  7  8  1  0  0  0  0
  8  9  1  0  0  0  0
  8 13  2  0  0  0  0
  9 10  2  0  0  0  0
  9 43  1  0  0  0  0
 10 11  1  0  0  0  0
 10 44  1  0  0  0  0
 11 12  2  0  0  0  0
 11 34  1  0  0  0  0
 12 13  1  0  0  0  0
 12 14  1  0  0  0  0
 13 45  1  0  0  0  0
 14 15  1  0  0  0  0
 14 46  1  0  0  0  0
 14 47  1  0  0  0  0
 15 16  1  0  0  0  0
 15 34  2  0  0  0  0
 16 17  1  0  0  0  0
 16 32  2  0  0  0  0
 17 18  2  0  0  0  0
 17 31  1  0  0  0  0
 18 19  1  0  0  0  0
 18 48  1  0  0  0  0
 19 20  1  0  0  0  0
 20 21  1  0  0  0  0
 20 31  2  0  0  0  0
 21 22  3  0  0  0  0
 22 23  1  0  0  0  0
 23 24  1  0  0  0  0
 23 49  1  0  0  0  0
 23 50  1  0  0  0  0
 24 25  1  0  0  0  0
 25 26  1  0  0  0  0
 25 30  2  0  0  0  0
 26 27  2  0  0  0  0
 26 51  1  0  0  0  0
 27 28  1  0  0  0  0
 27 52  1  0  0  0  0
 28 29  2  0  0  0  0
 28 53  1  0  0  0  0
 29 30  1  0  0  0  0
 29 54  1  0  0  0  0
 30 55  1  0  0  0  0
 31 56  1  0  0  0  0
 32 33  1  0  0  0  0
 33 34  1  0  0  0  0
 33 57  1  0  0  0  0
M  END
$$$$
