CHEMBL1242853
 OpenBabel04072215363D

 57 61  0  0  0  0  0  0  0  0999 V2000
    3.8630    0.7099    1.4599 C   0  0  0  0  0  0  0  0  0  0  0  0
    2.8129    0.5477    0.3481 C   0  0  0  0  0  0  0  0  0  0  0  0
    2.3874   -0.9184    0.1574 C   0  0  0  0  0  0  0  0  0  0  0  0
    1.5663    1.3383    0.7959 C   0  0  0  0  0  0  0  0  0  0  0  0
    3.2985    1.1171   -0.9085 O   0  0  0  0  0  0  0  0  0  0  0  0
    4.3996    0.5247   -1.4467 C   0  0  0  0  0  0  0  0  0  0  0  0
    5.0241   -0.4268   -1.0051 O   0  0  0  0  0  0  0  0  0  0  0  0
    4.8512    1.1110   -2.6539 N   0  0  0  0  0  0  0  0  0  0  0  0
    5.9618    0.6061   -3.3368 C   0  0  0  0  0  0  0  0  0  0  0  0
    6.2134    1.3601   -4.4453 C   0  0  0  0  0  0  0  0  0  0  0  0
    5.2323    2.3750   -4.4895 C   0  0  0  0  0  0  0  0  0  0  0  0
    5.0094    3.4283   -5.4001 C   0  0  0  0  0  0  0  0  0  0  0  0
    3.9087    4.2789   -5.2454 C   0  0  0  0  0  0  0  0  0  0  0  0
    3.6839    5.3662   -6.2102 C   0  0  0  0  0  0  0  0  0  0  0  0
    4.0409    5.2091   -7.5029 N   0  0  0  0  0  0  0  0  0  0  0  0
    3.6217    6.3382   -8.1155 N   0  0  0  0  0  0  0  0  0  0  0  0
    3.7245    6.4783   -9.5558 C   0  0  0  0  0  0  0  0  0  0  0  0
    2.9606    5.4073  -10.3397 C   0  0  0  0  0  0  0  0  0  0  0  0
    3.5988    5.3852  -11.7276 C   0  0  0  0  0  0  0  0  0  0  0  0
    4.9362    6.1127  -11.6047 C   0  0  0  0  0  0  0  0  0  0  0  0
    5.1437    6.3707  -10.1161 C   0  0  0  0  0  0  0  0  0  0  0  0
    3.0699    7.2438   -7.2484 C   0  0  0  0  0  0  0  0  0  0  0  0
    2.5735    8.4560   -7.5556 N   0  0  0  0  0  0  0  0  0  0  0  0
    2.0966    9.0822   -6.4685 C   0  0  0  0  0  0  0  0  0  0  0  0
    2.0894    8.6428   -5.1950 N   0  0  0  0  0  0  0  0  0  0  0  0
    2.6013    7.4229   -4.9290 C   0  0  0  0  0  0  0  0  0  0  0  0
    2.5780    7.0335   -3.5976 N   0  0  0  0  0  0  0  0  0  0  0  0
    3.1098    6.6576   -5.9924 C   0  0  0  0  0  0  0  0  0  0  0  0
    3.0317    4.0425   -4.1814 C   0  0  0  0  0  0  0  0  0  0  0  0
    3.2611    3.0392   -3.2247 C   0  0  0  0  0  0  0  0  0  0  0  0
    4.3728    2.2016   -3.3973 C   0  0  0  0  0  0  0  0  0  0  0  0
    3.5060    0.2966    2.4089 H   0  0  0  0  0  0  0  0  0  0  0  0
    4.0996    1.7700    1.6096 H   0  0  0  0  0  0  0  0  0  0  0  0
    4.8090    0.2172    1.2265 H   0  0  0  0  0  0  0  0  0  0  0  0
    1.9915   -1.3463    1.0838 H   0  0  0  0  0  0  0  0  0  0  0  0
    3.2118   -1.5607   -0.1614 H   0  0  0  0  0  0  0  0  0  0  0  0
    1.6211   -0.9986   -0.6222 H   0  0  0  0  0  0  0  0  0  0  0  0
    1.1849    0.9560    1.7522 H   0  0  0  0  0  0  0  0  0  0  0  0
    0.7562    1.2728    0.0617 H   0  0  0  0  0  0  0  0  0  0  0  0
    1.7923    2.4022    0.9281 H   0  0  0  0  0  0  0  0  0  0  0  0
    6.4689   -0.2692   -2.9472 H   0  0  0  0  0  0  0  0  0  0  0  0
    7.0126    1.1905   -5.1541 H   0  0  0  0  0  0  0  0  0  0  0  0
    5.6921    3.5607   -6.2368 H   0  0  0  0  0  0  0  0  0  0  0  0
    3.3194    7.4620   -9.8258 H   0  0  0  0  0  0  0  0  0  0  0  0
    1.8882    5.6290  -10.3926 H   0  0  0  0  0  0  0  0  0  0  0  0
    3.0624    4.4172   -9.8781 H   0  0  0  0  0  0  0  0  0  0  0  0
    2.9604    5.8877  -12.4612 H   0  0  0  0  0  0  0  0  0  0  0  0
    3.7373    4.3545  -12.0721 H   0  0  0  0  0  0  0  0  0  0  0  0
    4.8897    7.0610  -12.1534 H   0  0  0  0  0  0  0  0  0  0  0  0
    5.7572    5.5295  -12.0346 H   0  0  0  0  0  0  0  0  0  0  0  0
    5.7264    7.2820   -9.9439 H   0  0  0  0  0  0  0  0  0  0  0  0
    5.6951    5.5351   -9.6694 H   0  0  0  0  0  0  0  0  0  0  0  0
    1.6647   10.0635   -6.6307 H   0  0  0  0  0  0  0  0  0  0  0  0
    2.3664    7.8132   -2.9859 H   0  0  0  0  0  0  0  0  0  0  0  0
    3.3408    6.4370   -3.3047 H   0  0  0  0  0  0  0  0  0  0  0  0
    2.1265    4.6369   -4.0752 H   0  0  0  0  0  0  0  0  0  0  0  0
    2.5639    2.9210   -2.4001 H   0  0  0  0  0  0  0  0  0  0  0  0
  1  2  1  0  0  0  0
  1 32  1  0  0  0  0
  1 33  1  0  0  0  0
  1 34  1  0  0  0  0
  2  3  1  0  0  0  0
  2  4  1  0  0  0  0
  2  5  1  0  0  0  0
  3 35  1  0  0  0  0
  3 36  1  0  0  0  0
  3 37  1  0  0  0  0
  4 38  1  0  0  0  0
  4 39  1  0  0  0  0
  4 40  1  0  0  0  0
  5  6  1  0  0  0  0
  6  7  2  0  0  0  0
  6  8  1  0  0  0  0
  8  9  1  0  0  0  0
  8 31  1  0  0  0  0
  9 10  2  0  0  0  0
  9 41  1  0  0  0  0
 10 11  1  0  0  0  0
 10 42  1  0  0  0  0
 11 12  1  0  0  0  0
 11 31  2  0  0  0  0
 12 13  2  0  0  0  0
 12 43  1  0  0  0  0
 13 14  1  0  0  0  0
 13 29  1  0  0  0  0
 14 15  2  0  0  0  0
 14 28  1  0  0  0  0
 15 16  1  0  0  0  0
 16 17  1  0  0  0  0
 16 22  1  0  0  0  0
 17 18  1  0  0  0  0
 17 21  1  0  0  0  0
 17 44  1  0  0  0  0
 18 19  1  0  0  0  0
 18 45  1  0  0  0  0
 18 46  1  0  0  0  0
 19 20  1  0  0  0  0
 19 47  1  0  0  0  0
 19 48  1  0  0  0  0
 20 21  1  0  0  0  0
 20 49  1  0  0  0  0
 20 50  1  0  0  0  0
 21 51  1  0  0  0  0
 21 52  1  0  0  0  0
 22 23  1  0  0  0  0
 22 28  2  0  0  0  0
 23 24  2  0  0  0  0
 24 25  1  0  0  0  0
 24 53  1  0  0  0  0
 25 26  2  0  0  0  0
 26 27  1  0  0  0  0
 26 28  1  0  0  0  0
 27 54  1  0  0  0  0
 27 55  1  0  0  0  0
 29 30  2  0  0  0  0
 29 56  1  0  0  0  0
 30 31  1  0  0  0  0
 30 57  1  0  0  0  0
M  END
$$$$
