CHEMBL360118
 OpenBabel04072215363D

 69 72  0  0  0  0  0  0  0  0999 V2000
   -0.8631   -1.4153   -3.4106 C   0  0  0  0  0  0  0  0  0  0  0  0
    0.2013   -0.7069   -2.6228 C   0  0  0  0  0  0  0  0  0  0  0  0
    0.2231    0.6894   -2.5316 C   0  0  0  0  0  0  0  0  0  0  0  0
    1.1951    1.3524   -1.7561 C   0  0  0  0  0  0  0  0  0  0  0  0
    2.1670    0.6320   -1.0448 C   0  0  0  0  0  0  0  0  0  0  0  0
    3.1604    1.3047   -0.2938 N   0  0  0  0  0  0  0  0  0  0  0  0
    4.4388    0.8406   -0.0588 C   0  0  0  0  0  0  0  0  0  0  0  0
    4.9533    0.0418   -0.9547 N   0  0  0  0  0  0  0  0  0  0  0  0
    6.2098   -0.4669   -0.8123 C   0  0  0  0  0  0  0  0  0  0  0  0
    6.9929   -0.2655    0.1801 N   0  0  0  0  0  0  0  0  0  0  0  0
    6.4906    0.5530    1.1205 N   0  0  0  0  0  0  0  0  0  0  0  0
    7.1611    0.8684    2.2464 C   0  0  0  0  0  0  0  0  0  0  0  0
    6.4054    1.7311    2.9935 C   0  0  0  0  0  0  0  0  0  0  0  0
    6.8203    2.2443    4.2200 N   0  0  0  0  0  0  0  0  0  0  0  0
    7.8274    1.6772    4.9868 C   0  0  0  0  0  0  0  0  0  0  0  0
    8.5054    0.6911    4.6950 O   0  0  0  0  0  0  0  0  0  0  0  0
    7.9787    2.2948    6.2108 N   0  0  0  0  0  0  0  0  0  0  0  0
    8.9723    1.8128    7.1576 C   0  0  0  0  0  0  0  0  0  0  0  0
   10.3380    2.4684    6.9584 C   0  0  0  0  0  0  0  0  0  0  0  0
   10.3097    3.9907    7.1724 C   0  0  0  0  0  0  0  0  0  0  0  0
    9.8479    4.4132    8.5101 N   0  0  0  0  0  0  0  0  0  0  0  0
   10.7496    3.9583    9.5827 C   0  0  0  0  0  0  0  0  0  0  0  0
   10.2451    4.3723   10.9669 C   0  0  0  0  0  0  0  0  0  0  0  0
   10.0415    5.8776   11.0486 C   0  0  0  0  0  0  0  0  0  0  0  0
    9.1408    6.3418    9.9118 C   0  0  0  0  0  0  0  0  0  0  0  0
    9.6708    5.8757    8.5532 C   0  0  0  0  0  0  0  0  0  0  0  0
    5.1811    1.9781    2.2513 C   0  0  0  0  0  0  0  0  0  0  0  0
    4.0257    2.8598    2.7087 C   0  0  0  0  0  0  0  0  0  0  0  0
    3.4577    2.4449    4.0724 C   0  0  0  0  0  0  0  0  0  0  0  0
    4.3708    4.3523    2.7642 C   0  0  0  0  0  0  0  0  0  0  0  0
    5.2715    1.1776    1.0903 C   0  0  0  0  0  0  0  0  0  0  0  0
    2.1593   -0.7688   -1.1844 C   0  0  0  0  0  0  0  0  0  0  0  0
    1.1947   -1.4228   -1.9566 C   0  0  0  0  0  0  0  0  0  0  0  0
    1.2114   -2.7862   -2.0714 O   0  0  0  0  0  0  0  0  0  0  0  0
   -1.5775   -0.7093   -3.8458 H   0  0  0  0  0  0  0  0  0  0  0  0
   -1.4262   -2.0917   -2.7594 H   0  0  0  0  0  0  0  0  0  0  0  0
   -0.4189   -1.9909   -4.2288 H   0  0  0  0  0  0  0  0  0  0  0  0
   -0.5182    1.2776   -3.0700 H   0  0  0  0  0  0  0  0  0  0  0  0
    1.1883    2.4359   -1.7422 H   0  0  0  0  0  0  0  0  0  0  0  0
    2.8774    2.1918    0.1034 H   0  0  0  0  0  0  0  0  0  0  0  0
    6.5615   -1.1228   -1.6281 H   0  0  0  0  0  0  0  0  0  0  0  0
    8.1459    0.4564    2.4062 H   0  0  0  0  0  0  0  0  0  0  0  0
    6.3226    3.0310    4.5964 H   0  0  0  0  0  0  0  0  0  0  0  0
    7.6408    3.2353    6.3346 H   0  0  0  0  0  0  0  0  0  0  0  0
    9.0802    0.7269    7.0468 H   0  0  0  0  0  0  0  0  0  0  0  0
    8.5893    1.9938    8.1668 H   0  0  0  0  0  0  0  0  0  0  0  0
   10.7008    2.2607    5.9435 H   0  0  0  0  0  0  0  0  0  0  0  0
   11.0637    1.9997    7.6333 H   0  0  0  0  0  0  0  0  0  0  0  0
    9.6291    4.4121    6.4209 H   0  0  0  0  0  0  0  0  0  0  0  0
   11.3014    4.4038    6.9483 H   0  0  0  0  0  0  0  0  0  0  0  0
   11.7648    4.3477    9.4333 H   0  0  0  0  0  0  0  0  0  0  0  0
   10.8137    2.8657    9.5878 H   0  0  0  0  0  0  0  0  0  0  0  0
   10.9634    4.0539   11.7311 H   0  0  0  0  0  0  0  0  0  0  0  0
    9.2995    3.8592   11.1856 H   0  0  0  0  0  0  0  0  0  0  0  0
   11.0125    6.3831   10.9805 H   0  0  0  0  0  0  0  0  0  0  0  0
    9.6033    6.1477   12.0156 H   0  0  0  0  0  0  0  0  0  0  0  0
    9.0632    7.4347    9.9262 H   0  0  0  0  0  0  0  0  0  0  0  0
    8.1281    5.9473   10.0648 H   0  0  0  0  0  0  0  0  0  0  0  0
   10.6124    6.3940    8.3281 H   0  0  0  0  0  0  0  0  0  0  0  0
    8.9431    6.1794    7.7903 H   0  0  0  0  0  0  0  0  0  0  0  0
    3.2108    2.7672    1.9866 H   0  0  0  0  0  0  0  0  0  0  0  0
    4.1935    2.5601    4.8747 H   0  0  0  0  0  0  0  0  0  0  0  0
    3.1252    1.4030    4.0692 H   0  0  0  0  0  0  0  0  0  0  0  0
    2.6001    3.0745    4.3392 H   0  0  0  0  0  0  0  0  0  0  0  0
    5.0764    4.5859    3.5689 H   0  0  0  0  0  0  0  0  0  0  0  0
    3.4622    4.9370    2.9595 H   0  0  0  0  0  0  0  0  0  0  0  0
    4.7949    4.7050    1.8200 H   0  0  0  0  0  0  0  0  0  0  0  0
    2.9050   -1.3616   -0.6634 H   0  0  0  0  0  0  0  0  0  0  0  0
    2.0102   -3.1233   -1.6328 H   0  0  0  0  0  0  0  0  0  0  0  0
  1  2  1  0  0  0  0
  1 35  1  0  0  0  0
  1 36  1  0  0  0  0
  1 37  1  0  0  0  0
  2  3  1  0  0  0  0
  2 33  2  0  0  0  0
  3  4  2  0  0  0  0
  3 38  1  0  0  0  0
  4  5  1  0  0  0  0
  4 39  1  0  0  0  0
  5  6  1  0  0  0  0
  5 32  2  0  0  0  0
  6  7  1  0  0  0  0
  6 40  1  0  0  0  0
  7  8  2  0  0  0  0
  7 31  1  0  0  0  0
  8  9  1  0  0  0  0
  9 10  2  0  0  0  0
  9 41  1  0  0  0  0
 10 11  1  0  0  0  0
 11 12  1  0  0  0  0
 11 31  1  0  0  0  0
 12 13  2  0  0  0  0
 12 42  1  0  0  0  0
 13 14  1  0  0  0  0
 13 27  1  0  0  0  0
 14 15  1  0  0  0  0
 14 43  1  0  0  0  0
 15 16  2  0  0  0  0
 15 17  1  0  0  0  0
 17 18  1  0  0  0  0
 17 44  1  0  0  0  0
 18 19  1  0  0  0  0
 18 45  1  0  0  0  0
 18 46  1  0  0  0  0
 19 20  1  0  0  0  0
 19 47  1  0  0  0  0
 19 48  1  0  0  0  0
 20 21  1  0  0  0  0
 20 49  1  0  0  0  0
 20 50  1  0  0  0  0
 21 22  1  0  0  0  0
 21 26  1  0  0  0  0
 22 23  1  0  0  0  0
 22 51  1  0  0  0  0
 22 52  1  0  0  0  0
 23 24  1  0  0  0  0
 23 53  1  0  0  0  0
 23 54  1  0  0  0  0
 24 25  1  0  0  0  0
 24 55  1  0  0  0  0
 24 56  1  0  0  0  0
 25 26  1  0  0  0  0
 25 57  1  0  0  0  0
 25 58  1  0  0  0  0
 26 59  1  0  0  0  0
 26 60  1  0  0  0  0
 27 28  1  0  0  0  0
 27 31  2  0  0  0  0
 28 29  1  0  0  0  0
 28 30  1  0  0  0  0
 28 61  1  0  0  0  0
 29 62  1  0  0  0  0
 29 63  1  0  0  0  0
 29 64  1  0  0  0  0
 30 65  1  0  0  0  0
 30 66  1  0  0  0  0
 30 67  1  0  0  0  0
 32 33  1  0  0  0  0
 32 68  1  0  0  0  0
 33 34  1  0  0  0  0
 34 69  1  0  0  0  0
M  END
$$$$
