CHEMBL225261
 OpenBabel04072215363D

 64 69  0  0  0  0  0  0  0  0999 V2000
    0.4347    1.2036    0.1719 N   0  0  0  0  0  0  0  0  0  0  0  0
    1.7393    1.4282   -0.1223 C   0  0  0  0  0  0  0  0  0  0  0  0
    2.1037    1.4009   -1.2917 O   0  0  0  0  0  0  0  0  0  0  0  0
    2.5575    1.6819    0.9448 N   0  0  0  0  0  0  0  0  0  0  0  0
    2.1598    1.6383    2.3523 C   0  0  0  0  0  0  0  0  0  0  0  0
    2.4960    2.9801    3.0248 C   0  0  0  0  0  0  0  0  0  0  0  0
    3.9334    3.3304    2.9525 N   0  0  0  0  0  0  0  0  0  0  0  0
    4.8140    2.4028    3.6952 C   0  0  0  0  0  0  0  0  0  0  0  0
    4.5424    2.2833    5.1873 C   0  0  0  0  0  0  0  0  0  0  0  0
    3.6175    1.3188    5.6730 C   0  0  0  0  0  0  0  0  0  0  0  0
    3.3234    1.1874    7.0324 C   0  0  0  0  0  0  0  0  0  0  0  0
    4.0142    1.9953    7.8976 C   0  0  0  0  0  0  0  0  0  0  0  0
    4.9878    2.9310    7.4577 C   0  0  0  0  0  0  0  0  0  0  0  0
    5.2387    3.0943    6.1017 C   0  0  0  0  0  0  0  0  0  0  0  0
    5.6880    3.6574    8.6213 C   0  0  0  0  0  0  0  0  0  0  0  0
    4.9264    3.0226    9.7354 C   0  0  0  0  0  0  0  0  0  0  0  0
    4.8043    3.0267   11.1326 C   0  0  0  0  0  0  0  0  0  0  0  0
    5.5875    3.8670   12.0471 C   0  0  0  0  0  0  0  0  0  0  0  0
    6.5321    4.7956   11.6636 C   0  0  0  0  0  0  0  0  0  0  0  0
    7.2449    5.5938   12.9916 S   0  0  0  0  0  0  0  0  0  0  0  0
    6.3069    4.6958   14.1038 C   0  0  0  0  0  0  0  0  0  0  0  0
    6.4313    4.8782   15.5105 C   0  0  0  0  0  0  0  0  0  0  0  0
    6.5764    5.0992   16.6758 C   0  0  0  0  0  0  0  0  0  0  0  0
    6.7471    5.4657   18.0823 C   0  0  0  0  0  0  0  0  0  0  0  0
    7.7077    4.6137   18.6987 O   0  0  0  0  0  0  0  0  0  0  0  0
    7.9354    4.8540   20.0287 C   0  0  0  0  0  0  0  0  0  0  0  0
    7.3381    5.8707   20.7794 C   0  0  0  0  0  0  0  0  0  0  0  0
    7.6469    6.0263   22.1302 C   0  0  0  0  0  0  0  0  0  0  0  0
    8.5498    5.1637   22.7426 C   0  0  0  0  0  0  0  0  0  0  0  0
    9.1449    4.1416   22.0047 C   0  0  0  0  0  0  0  0  0  0  0  0
    8.8418    3.9899   20.6491 C   0  0  0  0  0  0  0  0  0  0  0  0
    5.4540    3.8181   13.4695 C   0  0  0  0  0  0  0  0  0  0  0  0
    3.8587    2.1544   11.5411 N   0  0  0  0  0  0  0  0  0  0  0  0
    3.3759    1.6131   10.3917 N   0  0  0  0  0  0  0  0  0  0  0  0
    4.0072    2.1059    9.3115 C   0  0  0  0  0  0  0  0  0  0  0  0
    4.3120    3.3511    1.5082 C   0  0  0  0  0  0  0  0  0  0  0  0
    3.9556    2.0648    0.7194 C   0  0  0  0  0  0  0  0  0  0  0  0
   -0.1371    1.1211   -0.6589 H   0  0  0  0  0  0  0  0  0  0  0  0
    0.0248    1.7977    0.8750 H   0  0  0  0  0  0  0  0  0  0  0  0
    2.7028    0.8057    2.8093 H   0  0  0  0  0  0  0  0  0  0  0  0
    1.0998    1.4152    2.4848 H   0  0  0  0  0  0  0  0  0  0  0  0
    2.1292    3.0062    4.0548 H   0  0  0  0  0  0  0  0  0  0  0  0
    1.9310    3.7704    2.5076 H   0  0  0  0  0  0  0  0  0  0  0  0
    5.8469    2.7589    3.5813 H   0  0  0  0  0  0  0  0  0  0  0  0
    4.8131    1.3931    3.2697 H   0  0  0  0  0  0  0  0  0  0  0  0
    3.1196    0.6464    4.9798 H   0  0  0  0  0  0  0  0  0  0  0  0
    2.5991    0.4613    7.3817 H   0  0  0  0  0  0  0  0  0  0  0  0
    5.9746    3.8146    5.7574 H   0  0  0  0  0  0  0  0  0  0  0  0
    5.5274    4.7361    8.5654 H   0  0  0  0  0  0  0  0  0  0  0  0
    6.7495    3.3955    8.6546 H   0  0  0  0  0  0  0  0  0  0  0  0
    6.8514    5.0582   10.6670 H   0  0  0  0  0  0  0  0  0  0  0  0
    5.7808    5.3690   18.5877 H   0  0  0  0  0  0  0  0  0  0  0  0
    7.0902    6.5105   18.1297 H   0  0  0  0  0  0  0  0  0  0  0  0
    6.6227    6.5628   20.3489 H   0  0  0  0  0  0  0  0  0  0  0  0
    7.1752    6.8221   22.7005 H   0  0  0  0  0  0  0  0  0  0  0  0
    8.7863    5.2864   23.7960 H   0  0  0  0  0  0  0  0  0  0  0  0
    9.8427    3.4615   22.4841 H   0  0  0  0  0  0  0  0  0  0  0  0
    9.3097    3.1929   20.0782 H   0  0  0  0  0  0  0  0  0  0  0  0
    4.7679    3.1607   13.9979 H   0  0  0  0  0  0  0  0  0  0  0  0
    2.6245    0.9343   10.4462 H   0  0  0  0  0  0  0  0  0  0  0  0
    5.3785    3.5794    1.3973 H   0  0  0  0  0  0  0  0  0  0  0  0
    3.7804    4.1911    1.0392 H   0  0  0  0  0  0  0  0  0  0  0  0
    4.5849    1.2273    1.0425 H   0  0  0  0  0  0  0  0  0  0  0  0
    4.1524    2.2222   -0.3462 H   0  0  0  0  0  0  0  0  0  0  0  0
  1  2  1  0  0  0  0
  1 38  1  0  0  0  0
  1 39  1  0  0  0  0
  2  3  2  0  0  0  0
  2  4  1  0  0  0  0
  4  5  1  0  0  0  0
  4 37  1  0  0  0  0
  5  6  1  0  0  0  0
  5 40  1  0  0  0  0
  5 41  1  0  0  0  0
  6  7  1  0  0  0  0
  6 42  1  0  0  0  0
  6 43  1  0  0  0  0
  7  8  1  0  0  0  0
  7 36  1  0  0  0  0
  8  9  1  0  0  0  0
  8 44  1  0  0  0  0
  8 45  1  0  0  0  0
  9 10  1  0  0  0  0
  9 14  2  0  0  0  0
 10 11  2  0  0  0  0
 10 46  1  0  0  0  0
 11 12  1  0  0  0  0
 11 47  1  0  0  0  0
 12 13  2  0  0  0  0
 12 35  1  0  0  0  0
 13 14  1  0  0  0  0
 13 15  1  0  0  0  0
 14 48  1  0  0  0  0
 15 16  1  0  0  0  0
 15 49  1  0  0  0  0
 15 50  1  0  0  0  0
 16 17  1  0  0  0  0
 16 35  2  0  0  0  0
 17 18  1  0  0  0  0
 17 33  2  0  0  0  0
 18 19  2  0  0  0  0
 18 32  1  0  0  0  0
 19 20  1  0  0  0  0
 19 51  1  0  0  0  0
 20 21  1  0  0  0  0
 21 22  1  0  0  0  0
 21 32  2  0  0  0  0
 22 23  3  0  0  0  0
 23 24  1  0  0  0  0
 24 25  1  0  0  0  0
 24 52  1  0  0  0  0
 24 53  1  0  0  0  0
 25 26  1  0  0  0  0
 26 27  1  0  0  0  0
 26 31  2  0  0  0  0
 27 28  2  0  0  0  0
 27 54  1  0  0  0  0
 28 29  1  0  0  0  0
 28 55  1  0  0  0  0
 29 30  2  0  0  0  0
 29 56  1  0  0  0  0
 30 31  1  0  0  0  0
 30 57  1  0  0  0  0
 31 58  1  0  0  0  0
 32 59  1  0  0  0  0
 33 34  1  0  0  0  0
 34 35  1  0  0  0  0
 34 60  1  0  0  0  0
 36 37  1  0  0  0  0
 36 61  1  0  0  0  0
 36 62  1  0  0  0  0
 37 63  1  0  0  0  0
 37 64  1  0  0  0  0
M  END
$$$$
