CHEMBL3928601
 OpenBabel04072215373D

 58 61  0  0  1  0  0  0  0  0999 V2000
    2.7181   -1.2028   -0.4527 C   0  0  0  0  0  0  0  0  0  0  0  0
    2.6002   -0.1504    0.5106 O   0  0  0  0  0  0  0  0  0  0  0  0
    3.3192    0.9922    0.2703 C   0  0  0  0  0  0  0  0  0  0  0  0
    4.3842    1.0457   -0.6374 C   0  0  0  0  0  0  0  0  0  0  0  0
    5.0204    2.2719   -0.9523 C   0  0  0  0  0  0  0  0  0  0  0  0
    6.0459    2.4400   -1.8896 C   0  0  0  0  0  0  0  0  0  0  0  0
    6.5031    1.3179   -2.6365 N   0  0  0  0  0  0  0  0  0  0  0  0
    7.7442    1.3125   -3.3076 C   0  0  0  0  0  0  0  0  0  0  0  0
    8.9023    1.7349   -2.6387 C   0  0  0  0  0  0  0  0  0  0  0  0
   10.1197    1.8303   -3.3040 C   0  0  0  0  0  0  0  0  0  0  0  0
   10.2000    1.4879   -4.6525 C   0  0  0  0  0  0  0  0  0  0  0  0
   11.7258    1.6813   -5.4369 Cl  0  0  0  0  0  0  0  0  0  0  0  0
    9.0619    1.0213   -5.3217 C   0  0  0  0  0  0  0  0  0  0  0  0
    9.0904    0.5709   -6.9896 Cl  0  0  0  0  0  0  0  0  0  0  0  0
    7.8383    0.9251   -4.6465 C   0  0  0  0  0  0  0  0  0  0  0  0
    6.6219    3.6374   -2.1206 N   0  0  0  0  0  0  0  0  0  0  0  0
    6.1683    4.6762   -1.4214 C   0  0  0  0  0  0  0  0  0  0  0  0
    5.1936    4.6304   -0.5085 N   0  0  0  0  0  0  0  0  0  0  0  0
    4.6411    3.4369   -0.2917 C   0  0  0  0  0  0  0  0  0  0  0  0
    3.6439    3.3553    0.6572 C   0  0  0  0  0  0  0  0  0  0  0  0
    2.9590    2.1646    0.9542 C   0  0  0  0  0  0  0  0  0  0  0  0
    1.9625    2.1142    1.9169 O   0  0  0  0  0  0  0  0  0  0  0  0
    1.3090    3.3783    2.1079 C   0  0  0  0  0  0  0  0  0  0  0  0
    0.2443    3.4185    3.2031 C   0  0  3  0  0  0  0  0  0  0  0  0
   -0.8882    2.3941    3.0681 C   0  0  0  0  0  0  0  0  0  0  0  0
   -1.8905    2.7913    2.0614 N   0  0  0  0  0  0  0  0  0  0  0  0
   -2.9566    1.7954    1.9955 C   0  0  0  0  0  0  0  0  0  0  0  0
   -2.4277    4.1153    2.4419 C   0  0  0  0  0  0  0  0  0  0  0  0
   -1.3092    5.1876    2.4855 C   0  0  0  0  0  0  0  0  0  0  0  0
   -0.8203    5.5436    1.0699 C   0  0  0  0  0  0  0  0  0  0  0  0
   -1.8577    6.4865    3.0992 C   0  0  0  0  0  0  0  0  0  0  0  0
   -0.2414    4.7747    3.3689 O   0  0  0  0  0  0  0  0  0  0  0  0
    3.5324   -1.8765   -0.1675 H   0  0  0  0  0  0  0  0  0  0  0  0
    2.8643   -0.8414   -1.4771 H   0  0  0  0  0  0  0  0  0  0  0  0
    1.7843   -1.7709   -0.4562 H   0  0  0  0  0  0  0  0  0  0  0  0
    4.7530    0.1415   -1.1113 H   0  0  0  0  0  0  0  0  0  0  0  0
    5.7380    0.9625   -3.1998 H   0  0  0  0  0  0  0  0  0  0  0  0
    8.8448    2.0249   -1.5897 H   0  0  0  0  0  0  0  0  0  0  0  0
   10.9914    2.1940   -2.7655 H   0  0  0  0  0  0  0  0  0  0  0  0
    6.9553    0.5866   -5.1810 H   0  0  0  0  0  0  0  0  0  0  0  0
    6.6273    5.6388   -1.6027 H   0  0  0  0  0  0  0  0  0  0  0  0
    3.4266    4.2916    1.1603 H   0  0  0  0  0  0  0  0  0  0  0  0
    0.9025    3.6802    1.1454 H   0  0  0  0  0  0  0  0  0  0  0  0
    2.0294    4.1340    2.4359 H   0  0  0  0  0  0  0  0  0  0  0  0
    0.7630    3.1816    4.1418 H   0  0  0  0  0  0  0  0  0  0  0  0
   -1.3782    2.3028    4.0486 H   0  0  0  0  0  0  0  0  0  0  0  0
   -0.4684    1.4101    2.8294 H   0  0  0  0  0  0  0  0  0  0  0  0
   -2.5485    0.8213    1.7038 H   0  0  0  0  0  0  0  0  0  0  0  0
   -3.6906    2.0729    1.2320 H   0  0  0  0  0  0  0  0  0  0  0  0
   -3.4777    1.6781    2.9525 H   0  0  0  0  0  0  0  0  0  0  0  0
   -2.9081    4.0490    3.4278 H   0  0  0  0  0  0  0  0  0  0  0  0
   -3.1960    4.4242    1.7224 H   0  0  0  0  0  0  0  0  0  0  0  0
   -1.5704    6.1321    0.5284 H   0  0  0  0  0  0  0  0  0  0  0  0
   -0.6457    4.6618    0.4497 H   0  0  0  0  0  0  0  0  0  0  0  0
    0.1108    6.1198    1.1054 H   0  0  0  0  0  0  0  0  0  0  0  0
   -2.6811    6.8998    2.5065 H   0  0  0  0  0  0  0  0  0  0  0  0
   -1.0678    7.2454    3.1643 H   0  0  0  0  0  0  0  0  0  0  0  0
   -2.2138    6.3212    4.1212 H   0  0  0  0  0  0  0  0  0  0  0  0
  1  2  1  0  0  0  0
  1 33  1  0  0  0  0
  1 34  1  0  0  0  0
  1 35  1  0  0  0  0
  2  3  1  0  0  0  0
  3  4  1  0  0  0  0
  3 21  2  0  0  0  0
  4  5  2  0  0  0  0
  4 36  1  0  0  0  0
  5  6  1  0  0  0  0
  5 19  1  0  0  0  0
  6  7  1  0  0  0  0
  6 16  2  0  0  0  0
  7  8  1  0  0  0  0
  7 37  1  0  0  0  0
  8  9  1  0  0  0  0
  8 15  2  0  0  0  0
  9 10  2  0  0  0  0
  9 38  1  0  0  0  0
 10 11  1  0  0  0  0
 10 39  1  0  0  0  0
 11 12  1  0  0  0  0
 11 13  2  0  0  0  0
 13 14  1  0  0  0  0
 13 15  1  0  0  0  0
 15 40  1  0  0  0  0
 16 17  1  0  0  0  0
 17 18  2  0  0  0  0
 17 41  1  0  0  0  0
 18 19  1  0  0  0  0
 19 20  2  0  0  0  0
 20 21  1  0  0  0  0
 20 42  1  0  0  0  0
 21 22  1  0  0  0  0
 22 23  1  0  0  0  0
 23 24  1  0  0  0  0
 23 43  1  0  0  0  0
 23 44  1  0  0  0  0
 24 25  1  0  0  0  0
 24 32  1  0  0  0  0
 24 45  1  0  0  0  0
 25 26  1  0  0  0  0
 25 46  1  0  0  0  0
 25 47  1  0  0  0  0
 26 27  1  0  0  0  0
 26 28  1  0  0  0  0
 27 48  1  0  0  0  0
 27 49  1  0  0  0  0
 27 50  1  0  0  0  0
 28 29  1  0  0  0  0
 28 51  1  0  0  0  0
 28 52  1  0  0  0  0
 29 30  1  0  0  0  0
 29 31  1  0  0  0  0
 29 32  1  0  0  0  0
 30 53  1  0  0  0  0
 30 54  1  0  0  0  0
 30 55  1  0  0  0  0
 31 56  1  0  0  0  0
 31 57  1  0  0  0  0
 31 58  1  0  0  0  0
M  END
$$$$
