CHEMBL3893398
 OpenBabel04072215373D

 68 71  0  0  0  0  0  0  0  0999 V2000
    0.6234    3.8114    1.4522 C   0  0  0  0  0  0  0  0  0  0  0  0
    1.9924    4.1792    1.2603 O   0  0  0  0  0  0  0  0  0  0  0  0
    2.9039    3.1615    1.0965 C   0  0  0  0  0  0  0  0  0  0  0  0
    2.5797    1.8076    1.1636 C   0  0  0  0  0  0  0  0  0  0  0  0
    3.5601    0.8482    0.9182 C   0  0  0  0  0  0  0  0  0  0  0  0
    3.3573   -0.5083    0.9116 O   0  0  0  0  0  0  0  0  0  0  0  0
    2.0570   -0.9739    1.2640 C   0  0  0  0  0  0  0  0  0  0  0  0
    4.8695    1.2535    0.6090 C   0  0  0  0  0  0  0  0  0  0  0  0
    5.2444    2.6073    0.5337 C   0  0  0  0  0  0  0  0  0  0  0  0
    6.5016    3.0289    0.0180 N   0  0  0  0  0  0  0  0  0  0  0  0
    7.0910    2.1661   -1.0835 C   0  0  0  0  0  0  0  0  0  0  0  0
    6.2525    1.8659   -2.3390 C   0  0  0  0  0  0  0  0  0  0  0  0
    5.9244    2.9997   -3.3198 C   0  0  0  0  0  0  0  0  0  0  0  0
    7.1409    3.6308   -3.8885 N   0  0  0  0  0  0  0  0  0  0  0  0
    6.8814    4.7421   -5.1381 S   0  0  0  0  0  0  0  0  0  0  0  0
    8.1699    5.2928   -5.4939 O   0  0  0  0  0  0  0  0  0  0  0  0
    6.0451    4.1030   -6.1272 O   0  0  0  0  0  0  0  0  0  0  0  0
    5.9745    5.9416   -4.3617 N   0  0  0  0  0  0  0  0  0  0  0  0
    6.6420    6.5861   -3.2142 C   0  0  0  0  0  0  0  0  0  0  0  0
    5.4274    6.9619   -5.2885 C   0  0  0  0  0  0  0  0  0  0  0  0
    7.6084    3.6918    0.6883 C   0  0  0  0  0  0  0  0  0  0  0  0
    8.3750    4.4948   -0.1572 C   0  0  0  0  0  0  0  0  0  0  0  0
    9.7062    4.7233    0.0996 C   0  0  0  0  0  0  0  0  0  0  0  0
   10.2954    4.3382    1.2672 C   0  0  0  0  0  0  0  0  0  0  0  0
   11.6206    4.4786    1.2762 N   0  0  0  0  0  0  0  0  0  0  0  0
   12.2288    4.3449    2.4554 C   0  0  0  0  0  0  0  0  0  0  0  0
   11.5206    4.1422    3.6198 C   0  0  0  0  0  0  0  0  0  0  0  0
   12.2483    4.4496    4.8520 C   0  0  0  0  0  0  0  0  0  0  0  0
   12.2283    5.6350    5.6394 C   0  0  0  0  0  0  0  0  0  0  0  0
   13.2282    5.6956    6.5264 N   0  0  0  0  0  0  0  0  0  0  0  0
   13.9059    4.5561    6.3126 N   0  0  0  0  0  0  0  0  0  0  0  0
   14.9225    4.1205    7.2430 C   0  0  0  0  0  0  0  0  0  0  0  0
   13.4513    3.8643    5.2213 C   0  0  0  0  0  0  0  0  0  0  0  0
   10.1727    3.8476    3.5991 N   0  0  0  0  0  0  0  0  0  0  0  0
    9.5100    3.8697    2.3655 C   0  0  0  0  0  0  0  0  0  0  0  0
    8.1434    3.4774    1.9960 C   0  0  0  0  0  0  0  0  0  0  0  0
    4.2317    3.5518    0.8061 C   0  0  0  0  0  0  0  0  0  0  0  0
    0.0177    4.7232    1.4644 H   0  0  0  0  0  0  0  0  0  0  0  0
    0.4825    3.3094    2.4167 H   0  0  0  0  0  0  0  0  0  0  0  0
    0.2467    3.1874    0.6317 H   0  0  0  0  0  0  0  0  0  0  0  0
    1.5690    1.4985    1.3847 H   0  0  0  0  0  0  0  0  0  0  0  0
    2.0781   -2.0675    1.2593 H   0  0  0  0  0  0  0  0  0  0  0  0
    1.3091   -0.6542    0.5290 H   0  0  0  0  0  0  0  0  0  0  0  0
    1.7808   -0.6508    2.2727 H   0  0  0  0  0  0  0  0  0  0  0  0
    5.5900    0.4717    0.3898 H   0  0  0  0  0  0  0  0  0  0  0  0
    7.3962    1.2127   -0.6343 H   0  0  0  0  0  0  0  0  0  0  0  0
    8.0272    2.5814   -1.4751 H   0  0  0  0  0  0  0  0  0  0  0  0
    5.3175    1.3634   -2.0717 H   0  0  0  0  0  0  0  0  0  0  0  0
    6.8301    1.1192   -2.9073 H   0  0  0  0  0  0  0  0  0  0  0  0
    5.2850    3.7445   -2.8443 H   0  0  0  0  0  0  0  0  0  0  0  0
    5.3645    2.5396   -4.1491 H   0  0  0  0  0  0  0  0  0  0  0  0
    7.7856    2.9445   -4.2850 H   0  0  0  0  0  0  0  0  0  0  0  0
    6.8180    5.8502   -2.4337 H   0  0  0  0  0  0  0  0  0  0  0  0
    5.9942    7.3527   -2.7760 H   0  0  0  0  0  0  0  0  0  0  0  0
    7.5836    7.0566   -3.5088 H   0  0  0  0  0  0  0  0  0  0  0  0
    4.8085    6.4987   -6.0606 H   0  0  0  0  0  0  0  0  0  0  0  0
    6.2323    7.5376   -5.7567 H   0  0  0  0  0  0  0  0  0  0  0  0
    4.7826    7.6602   -4.7403 H   0  0  0  0  0  0  0  0  0  0  0  0
    7.9896    4.7962   -1.1214 H   0  0  0  0  0  0  0  0  0  0  0  0
   10.3253    5.1920   -0.6680 H   0  0  0  0  0  0  0  0  0  0  0  0
   13.3024    4.4814    2.4424 H   0  0  0  0  0  0  0  0  0  0  0  0
   11.5642    6.4876    5.5600 H   0  0  0  0  0  0  0  0  0  0  0  0
   15.0294    4.8496    8.0514 H   0  0  0  0  0  0  0  0  0  0  0  0
   15.8727    3.9969    6.7179 H   0  0  0  0  0  0  0  0  0  0  0  0
   14.5908    3.1645    7.6577 H   0  0  0  0  0  0  0  0  0  0  0  0
   14.0111    3.0283    4.8253 H   0  0  0  0  0  0  0  0  0  0  0  0
    7.5516    2.9518    2.7458 H   0  0  0  0  0  0  0  0  0  0  0  0
    4.4493    4.6136    0.7164 H   0  0  0  0  0  0  0  0  0  0  0  0
  1  2  1  0  0  0  0
  1 38  1  0  0  0  0
  1 39  1  0  0  0  0
  1 40  1  0  0  0  0
  2  3  1  0  0  0  0
  3  4  1  0  0  0  0
  3 37  2  0  0  0  0
  4  5  2  0  0  0  0
  4 41  1  0  0  0  0
  5  6  1  0  0  0  0
  5  8  1  0  0  0  0
  6  7  1  0  0  0  0
  7 42  1  0  0  0  0
  7 43  1  0  0  0  0
  7 44  1  0  0  0  0
  8  9  2  0  0  0  0
  8 45  1  0  0  0  0
  9 10  1  0  0  0  0
  9 37  1  0  0  0  0
 10 11  1  0  0  0  0
 10 21  1  0  0  0  0
 11 12  1  0  0  0  0
 11 46  1  0  0  0  0
 11 47  1  0  0  0  0
 12 13  1  0  0  0  0
 12 48  1  0  0  0  0
 12 49  1  0  0  0  0
 13 14  1  0  0  0  0
 13 50  1  0  0  0  0
 13 51  1  0  0  0  0
 14 15  1  0  0  0  0
 14 52  1  0  0  0  0
 15 16  2  0  0  0  0
 15 17  2  0  0  0  0
 15 18  1  0  0  0  0
 18 19  1  0  0  0  0
 18 20  1  0  0  0  0
 19 53  1  0  0  0  0
 19 54  1  0  0  0  0
 19 55  1  0  0  0  0
 20 56  1  0  0  0  0
 20 57  1  0  0  0  0
 20 58  1  0  0  0  0
 21 22  1  0  0  0  0
 21 36  2  0  0  0  0
 22 23  2  0  0  0  0
 22 59  1  0  0  0  0
 23 24  1  0  0  0  0
 23 60  1  0  0  0  0
 24 25  1  0  0  0  0
 24 35  2  0  0  0  0
 25 26  2  0  0  0  0
 26 27  1  0  0  0  0
 26 61  1  0  0  0  0
 27 28  1  0  0  0  0
 27 34  2  0  0  0  0
 28 29  1  0  0  0  0
 28 33  2  0  0  0  0
 29 30  2  0  0  0  0
 29 62  1  0  0  0  0
 30 31  1  0  0  0  0
 31 32  1  0  0  0  0
 31 33  1  0  0  0  0
 32 63  1  0  0  0  0
 32 64  1  0  0  0  0
 32 65  1  0  0  0  0
 33 66  1  0  0  0  0
 34 35  1  0  0  0  0
 35 36  1  0  0  0  0
 36 67  1  0  0  0  0
 37 68  1  0  0  0  0
M  END
$$$$
