CHEMBL3660302
 OpenBabel04072215373D

 55 58  0  0  0  0  0  0  0  0999 V2000
    0.8730    1.6263   -5.2226 C   0  0  0  0  0  0  0  0  0  0  0  0
    2.2516    1.2680   -5.3061 O   0  0  0  0  0  0  0  0  0  0  0  0
    2.4882    0.0744   -5.9161 C   0  0  0  0  0  0  0  0  0  0  0  0
    1.6305   -0.6606   -6.3852 O   0  0  0  0  0  0  0  0  0  0  0  0
    3.9036   -0.1989   -5.9431 C   0  0  0  0  0  0  0  0  0  0  0  0
    4.9654    0.5159   -5.4161 C   0  0  0  0  0  0  0  0  0  0  0  0
    6.1719   -0.1989   -5.6697 C   0  0  0  0  0  0  0  0  0  0  0  0
    7.5441    0.1241   -5.2906 C   0  0  0  0  0  0  0  0  0  0  0  0
    7.8058    1.2162   -4.4748 C   0  0  0  0  0  0  0  0  0  0  0  0
    9.1312    1.5678   -4.2294 C   0  0  0  0  0  0  0  0  0  0  0  0
    9.5052    2.6852   -3.5154 O   0  0  0  0  0  0  0  0  0  0  0  0
    8.7380    3.8252   -3.6257 C   0  0  0  0  0  0  0  0  0  0  0  0
    8.6107    4.5982   -2.4766 C   0  0  0  0  0  0  0  0  0  0  0  0
    7.7968    5.7363   -2.4864 C   0  0  0  0  0  0  0  0  0  0  0  0
    7.1065    6.1108   -3.6412 C   0  0  0  0  0  0  0  0  0  0  0  0
    6.2023    7.2011   -3.6892 N   0  0  0  0  0  0  0  0  0  0  0  0
    5.9684    8.1146   -2.6790 C   0  0  0  0  0  0  0  0  0  0  0  0
    6.5977    8.1842   -1.6292 O   0  0  0  0  0  0  0  0  0  0  0  0
    4.8975    8.9452   -2.9809 N   0  0  0  0  0  0  0  0  0  0  0  0
    4.5162    9.9637   -2.0712 C   0  0  0  0  0  0  0  0  0  0  0  0
    5.4624   10.8099   -1.4821 C   0  0  0  0  0  0  0  0  0  0  0  0
    5.0743   11.7597   -0.5274 C   0  0  0  0  0  0  0  0  0  0  0  0
    6.0884   12.6726    0.0973 C   0  0  0  0  0  0  0  0  0  0  0  0
    3.7253   11.8442   -0.1573 C   0  0  0  0  0  0  0  0  0  0  0  0
    2.7744   11.0163   -0.7583 C   0  0  0  0  0  0  0  0  0  0  0  0
    3.1723   10.1008   -1.7276 C   0  0  0  0  0  0  0  0  0  0  0  0
    2.2559    9.2945   -2.2865 F   0  0  0  0  0  0  0  0  0  0  0  0
    7.2851    5.3617   -4.8086 C   0  0  0  0  0  0  0  0  0  0  0  0
    8.1209    4.2417   -4.8097 C   0  0  0  0  0  0  0  0  0  0  0  0
   10.1525    0.7525   -4.6937 C   0  0  0  0  0  0  0  0  0  0  0  0
    9.8027   -0.3417   -5.4631 C   0  0  0  0  0  0  0  0  0  0  0  0
    8.5298   -0.6605   -5.7900 N   0  0  0  0  0  0  0  0  0  0  0  0
    5.8048   -1.3161   -6.3955 C   0  0  0  0  0  0  0  0  0  0  0  0
    4.4429   -1.3137   -6.5444 N   0  0  0  0  0  0  0  0  0  0  0  0
    0.8182    2.6836   -4.9495 H   0  0  0  0  0  0  0  0  0  0  0  0
    0.3855    1.0386   -4.4388 H   0  0  0  0  0  0  0  0  0  0  0  0
    0.3590    1.4957   -6.1816 H   0  0  0  0  0  0  0  0  0  0  0  0
    4.8628    1.4537   -4.8845 H   0  0  0  0  0  0  0  0  0  0  0  0
    6.9969    1.8048   -4.0607 H   0  0  0  0  0  0  0  0  0  0  0  0
    9.1257    4.3174   -1.5632 H   0  0  0  0  0  0  0  0  0  0  0  0
    7.7210    6.2951   -1.5584 H   0  0  0  0  0  0  0  0  0  0  0  0
    5.7579    7.3974   -4.5741 H   0  0  0  0  0  0  0  0  0  0  0  0
    4.1260    8.4833   -3.4464 H   0  0  0  0  0  0  0  0  0  0  0  0
    6.5114   10.7250   -1.7605 H   0  0  0  0  0  0  0  0  0  0  0  0
    7.0993   12.4626   -0.2691 H   0  0  0  0  0  0  0  0  0  0  0  0
    6.0945   12.5486    1.1847 H   0  0  0  0  0  0  0  0  0  0  0  0
    5.8546   13.7140   -0.1469 H   0  0  0  0  0  0  0  0  0  0  0  0
    3.4123   12.5536    0.6060 H   0  0  0  0  0  0  0  0  0  0  0  0
    1.7318   11.0678   -0.4630 H   0  0  0  0  0  0  0  0  0  0  0  0
    6.7742    5.6285   -5.7299 H   0  0  0  0  0  0  0  0  0  0  0  0
    8.2531    3.6834   -5.7320 H   0  0  0  0  0  0  0  0  0  0  0  0
   11.1904    0.9714   -4.4718 H   0  0  0  0  0  0  0  0  0  0  0  0
   10.5624   -1.0088   -5.8610 H   0  0  0  0  0  0  0  0  0  0  0  0
    6.4043   -2.1181   -6.8076 H   0  0  0  0  0  0  0  0  0  0  0  0
    3.8994   -2.0251   -7.0187 H   0  0  0  0  0  0  0  0  0  0  0  0
  1  2  1  0  0  0  0
  1 35  1  0  0  0  0
  1 36  1  0  0  0  0
  1 37  1  0  0  0  0
  2  3  1  0  0  0  0
  3  4  2  0  0  0  0
  3  5  1  0  0  0  0
  5  6  2  0  0  0  0
  5 34  1  0  0  0  0
  6  7  1  0  0  0  0
  6 38  1  0  0  0  0
  7  8  1  0  0  0  0
  7 33  2  0  0  0  0
  8  9  1  0  0  0  0
  8 32  2  0  0  0  0
  9 10  2  0  0  0  0
  9 39  1  0  0  0  0
 10 11  1  0  0  0  0
 10 30  1  0  0  0  0
 11 12  1  0  0  0  0
 12 13  1  0  0  0  0
 12 29  2  0  0  0  0
 13 14  2  0  0  0  0
 13 40  1  0  0  0  0
 14 15  1  0  0  0  0
 14 41  1  0  0  0  0
 15 16  1  0  0  0  0
 15 28  2  0  0  0  0
 16 17  1  0  0  0  0
 16 42  1  0  0  0  0
 17 18  2  0  0  0  0
 17 19  1  0  0  0  0
 19 20  1  0  0  0  0
 19 43  1  0  0  0  0
 20 21  1  0  0  0  0
 20 26  2  0  0  0  0
 21 22  2  0  0  0  0
 21 44  1  0  0  0  0
 22 23  1  0  0  0  0
 22 24  1  0  0  0  0
 23 45  1  0  0  0  0
 23 46  1  0  0  0  0
 23 47  1  0  0  0  0
 24 25  2  0  0  0  0
 24 48  1  0  0  0  0
 25 26  1  0  0  0  0
 25 49  1  0  0  0  0
 26 27  1  0  0  0  0
 28 29  1  0  0  0  0
 28 50  1  0  0  0  0
 29 51  1  0  0  0  0
 30 31  2  0  0  0  0
 30 52  1  0  0  0  0
 31 32  1  0  0  0  0
 31 53  1  0  0  0  0
 33 34  1  0  0  0  0
 33 54  1  0  0  0  0
 34 55  1  0  0  0  0
M  END
$$$$
