CHEMBL3219510
 OpenBabel04072215363D

 47 49  0  0  0  0  0  0  0  0999 V2000
    1.0395    1.9368   -0.5880 C   0  0  0  0  0  0  0  0  0  0  0  0
    2.4073    2.0254   -0.9127 O   0  0  0  0  0  0  0  0  0  0  0  0
    2.5361    2.2645   -2.2955 C   0  0  0  0  0  0  0  0  0  0  0  0
    3.9895    2.5667   -2.6215 C   0  0  0  0  0  0  0  0  0  0  0  0
    4.8420    1.5202   -2.2790 O   0  0  0  0  0  0  0  0  0  0  0  0
    6.1945    1.5533   -2.4844 C   0  0  0  0  0  0  0  0  0  0  0  0
    6.7875    2.7060   -3.0554 C   0  0  0  0  0  0  0  0  0  0  0  0
    8.1522    2.7905   -3.2891 C   0  0  0  0  0  0  0  0  0  0  0  0
    8.6602    3.9185   -3.8471 N   0  0  0  0  0  0  0  0  0  0  0  0
    9.9797    4.0277   -4.1205 C   0  0  0  0  0  0  0  0  0  0  0  0
   10.8159    3.0006   -3.8434 N   0  0  0  0  0  0  0  0  0  0  0  0
   10.3747    1.8495   -3.2738 C   0  0  0  0  0  0  0  0  0  0  0  0
   11.3213    0.8224   -2.9710 N   0  0  0  0  0  0  0  0  0  0  0  0
   12.5218    0.6231   -3.7136 C   0  0  0  0  0  0  0  0  0  0  0  0
   12.6476    1.0328   -5.0571 C   0  0  0  0  0  0  0  0  0  0  0  0
   13.8039    0.7556   -5.7814 C   0  0  0  0  0  0  0  0  0  0  0  0
   14.8610    0.0760   -5.1813 C   0  0  0  0  0  0  0  0  0  0  0  0
   14.7742   -0.3264   -3.8395 C   0  0  0  0  0  0  0  0  0  0  0  0
   15.9959   -1.0674   -3.1662 B   0  0  0  0  0  0  0  0  0  0  0  0
   16.0462   -1.2703   -1.7151 O   0  0  0  0  0  0  0  0  0  0  0  0
   17.1473   -1.4610   -3.9811 O   0  0  0  0  0  0  0  0  0  0  0  0
   13.5957   -0.0624   -3.1150 C   0  0  0  0  0  0  0  0  0  0  0  0
    8.9968    1.7161   -2.9640 C   0  0  0  0  0  0  0  0  0  0  0  0
    8.4330    0.5668   -2.3853 C   0  0  0  0  0  0  0  0  0  0  0  0
    7.0533    0.4607   -2.1356 C   0  0  0  0  0  0  0  0  0  0  0  0
    6.6765   -0.7161   -1.5581 O   0  0  0  0  0  0  0  0  0  0  0  0
    5.4469   -1.2716   -1.2813 C   0  0  0  0  0  0  0  0  0  0  0  0
    0.9549    1.6477    0.4788 H   0  0  0  0  0  0  0  0  0  0  0  0
    0.5284    1.1461   -1.1811 H   0  0  0  0  0  0  0  0  0  0  0  0
    0.5345    2.9224   -0.7058 H   0  0  0  0  0  0  0  0  0  0  0  0
    1.9509    3.1669   -2.6017 H   0  0  0  0  0  0  0  0  0  0  0  0
    2.2079    1.3809   -2.8862 H   0  0  0  0  0  0  0  0  0  0  0  0
    4.2845    3.4821   -2.0607 H   0  0  0  0  0  0  0  0  0  0  0  0
    4.0580    2.7669   -3.7141 H   0  0  0  0  0  0  0  0  0  0  0  0
    6.1963    3.5655   -3.3367 H   0  0  0  0  0  0  0  0  0  0  0  0
   10.3693    4.9414   -4.5487 H   0  0  0  0  0  0  0  0  0  0  0  0
   11.1466    0.1940   -2.1760 H   0  0  0  0  0  0  0  0  0  0  0  0
   11.8361    1.5362   -5.5660 H   0  0  0  0  0  0  0  0  0  0  0  0
   13.8792    1.0618   -6.8175 H   0  0  0  0  0  0  0  0  0  0  0  0
   15.7484   -0.1246   -5.7688 H   0  0  0  0  0  0  0  0  0  0  0  0
   15.2169   -1.7514   -1.4725 H   0  0  0  0  0  0  0  0  0  0  0  0
   17.5851   -0.6116   -4.2424 H   0  0  0  0  0  0  0  0  0  0  0  0
   13.5021   -0.3761   -2.0843 H   0  0  0  0  0  0  0  0  0  0  0  0
    9.0499   -0.2828   -2.1266 H   0  0  0  0  0  0  0  0  0  0  0  0
    5.4173   -2.2888   -1.7283 H   0  0  0  0  0  0  0  0  0  0  0  0
    4.5960   -0.6978   -1.6763 H   0  0  0  0  0  0  0  0  0  0  0  0
    5.3486   -1.3892   -0.1811 H   0  0  0  0  0  0  0  0  0  0  0  0
  1  2  1  0  0  0  0
  1 28  1  0  0  0  0
  1 29  1  0  0  0  0
  1 30  1  0  0  0  0
  2  3  1  0  0  0  0
  3  4  1  0  0  0  0
  3 31  1  0  0  0  0
  3 32  1  0  0  0  0
  4  5  1  0  0  0  0
  4 33  1  0  0  0  0
  4 34  1  0  0  0  0
  5  6  1  0  0  0  0
  6  7  1  0  0  0  0
  6 25  2  0  0  0  0
  7  8  2  0  0  0  0
  7 35  1  0  0  0  0
  8  9  1  0  0  0  0
  8 23  1  0  0  0  0
  9 10  2  0  0  0  0
 10 11  1  0  0  0  0
 10 36  1  0  0  0  0
 11 12  2  0  0  0  0
 12 13  1  0  0  0  0
 12 23  1  0  0  0  0
 13 14  1  0  0  0  0
 13 37  1  0  0  0  0
 14 15  1  0  0  0  0
 14 22  2  0  0  0  0
 15 16  2  0  0  0  0
 15 38  1  0  0  0  0
 16 17  1  0  0  0  0
 16 39  1  0  0  0  0
 17 18  2  0  0  0  0
 17 40  1  0  0  0  0
 18 19  1  0  0  0  0
 18 22  1  0  0  0  0
 19 20  1  0  0  0  0
 19 21  1  0  0  0  0
 20 41  1  0  0  0  0
 21 42  1  0  0  0  0
 22 43  1  0  0  0  0
 23 24  2  0  0  0  0
 24 25  1  0  0  0  0
 24 44  1  0  0  0  0
 25 26  1  0  0  0  0
 26 27  1  0  0  0  0
 27 45  1  0  0  0  0
 27 46  1  0  0  0  0
 27 47  1  0  0  0  0
M  END
$$$$
