CHEMBL451401
 OpenBabel04072215383D

 19 20  0  0  0  0  0  0  0  0999 V2000
    1.0666    0.2885   -0.0797 N   0  0  0  0  0  0  0  0  0  0  0  0
    2.3825   -0.0510    0.0568 C   0  0  0  0  0  0  0  0  0  0  0  0
    2.9409   -0.0325    1.1463 O   0  0  0  0  0  0  0  0  0  0  0  0
    3.0853   -0.5270   -1.1540 C   0  0  0  0  0  0  0  0  0  0  0  0
    2.7289   -0.1443   -2.4566 C   0  0  0  0  0  0  0  0  0  0  0  0
    3.4132   -0.6509   -3.5650 C   0  0  0  0  0  0  0  0  0  0  0  0
    4.4699   -1.5590   -3.4059 C   0  0  0  0  0  0  0  0  0  0  0  0
    4.8498   -1.9379   -2.1067 C   0  0  0  0  0  0  0  0  0  0  0  0
    5.8151   -2.7909   -1.5276 C   0  0  0  0  0  0  0  0  0  0  0  0
    5.7703   -2.7969   -0.1910 N   0  0  0  0  0  0  0  0  0  0  0  0
    4.7747   -1.9321    0.0900 N   0  0  0  0  0  0  0  0  0  0  0  0
    4.1661   -1.4067   -1.0212 C   0  0  0  0  0  0  0  0  0  0  0  0
    0.5630    0.4762    0.7781 H   0  0  0  0  0  0  0  0  0  0  0  0
    0.5237   -0.0049   -0.8794 H   0  0  0  0  0  0  0  0  0  0  0  0
    1.9282    0.5733   -2.6190 H   0  0  0  0  0  0  0  0  0  0  0  0
    3.1254   -0.3368   -4.5664 H   0  0  0  0  0  0  0  0  0  0  0  0
    4.9903   -1.9536   -4.2741 H   0  0  0  0  0  0  0  0  0  0  0  0
    6.5489   -3.4105   -2.0270 H   0  0  0  0  0  0  0  0  0  0  0  0
    4.5478   -1.7287    1.0597 H   0  0  0  0  0  0  0  0  0  0  0  0
  1  2  1  0  0  0  0
  1 13  1  0  0  0  0
  1 14  1  0  0  0  0
  2  3  2  0  0  0  0
  2  4  1  0  0  0  0
  4  5  1  0  0  0  0
  4 12  2  0  0  0  0
  5  6  2  0  0  0  0
  5 15  1  0  0  0  0
  6  7  1  0  0  0  0
  6 16  1  0  0  0  0
  7  8  2  0  0  0  0
  7 17  1  0  0  0  0
  8  9  1  0  0  0  0
  8 12  1  0  0  0  0
  9 10  2  0  0  0  0
  9 18  1  0  0  0  0
 10 11  1  0  0  0  0
 11 12  1  0  0  0  0
 11 19  1  0  0  0  0
M  END
$$$$
