CHEMBL1276980
 OpenBabel04072215363D

 60 64  0  0  1  0  0  0  0  0999 V2000
    3.6568   -0.7249   -1.3190 C   0  0  0  0  0  0  0  0  0  0  0  0
    4.4257   -0.5299   -0.0554 C   0  0  0  0  0  0  0  0  0  0  0  0
    4.6383    0.6550    0.6451 C   0  0  0  0  0  0  0  0  0  0  0  0
    4.2335    1.9740    0.3308 C   0  0  0  0  0  0  0  0  0  0  0  0
    4.4158    3.1192    0.9998 C   0  0  0  0  0  0  0  0  0  0  0  0
    5.0785    3.4282    2.3149 C   0  0  0  0  0  0  0  0  0  0  0  0
    5.6202    2.6587    3.0834 O   0  0  0  0  0  0  0  0  0  0  0  0
    4.9552    4.8040    2.4679 N   0  0  0  0  0  0  0  0  0  0  0  0
    4.2871    5.3790    1.3921 C   0  0  0  0  0  0  0  0  0  0  0  0
    3.9909    6.7136    1.2015 C   0  0  0  0  0  0  0  0  0  0  0  0
    3.3142    7.0599    0.0258 C   0  0  0  0  0  0  0  0  0  0  0  0
    2.9578    6.0753   -0.9054 C   0  0  0  0  0  0  0  0  0  0  0  0
    2.3143    6.4325   -2.0249 F   0  0  0  0  0  0  0  0  0  0  0  0
    3.2599    4.7348   -0.7014 C   0  0  0  0  0  0  0  0  0  0  0  0
    3.9292    4.3979    0.4622 C   0  0  0  0  0  0  0  0  0  0  0  0
    5.3469    0.3435    1.7821 N   0  0  0  0  0  0  0  0  0  0  0  0
    5.5934   -1.0009    1.8093 C   0  0  0  0  0  0  0  0  0  0  0  0
    5.0639   -1.5702    0.6780 C   0  0  0  0  0  0  0  0  0  0  0  0
    5.1446   -2.9903    0.3983 C   0  0  0  0  0  0  0  0  0  0  0  0
    4.7687   -3.4689   -0.6673 O   0  0  0  0  0  0  0  0  0  0  0  0
    5.6572   -3.7686    1.4363 N   0  0  0  0  0  0  0  0  0  0  0  0
    5.6104   -5.2144    1.2736 C   0  0  0  0  0  0  0  0  0  0  0  0
    6.5800   -5.7946    0.2263 C   0  0  2  0  0  0  0  0  0  0  0  0
    6.4897   -7.2256    0.2887 O   0  0  0  0  0  0  0  0  0  0  0  0
    8.0404   -5.3527    0.4854 C   0  0  0  0  0  0  0  0  0  0  0  0
    9.0316   -5.8112   -0.5123 N   0  0  0  0  0  0  0  0  0  0  0  0
   10.4055   -5.4362   -0.1077 C   0  0  0  0  0  0  0  0  0  0  0  0
   10.7211   -3.9383   -0.2756 C   0  0  0  0  0  0  0  0  0  0  0  0
   10.4742   -3.4944   -1.6152 O   0  0  0  0  0  0  0  0  0  0  0  0
    9.1207   -3.7678   -2.0024 C   0  0  0  0  0  0  0  0  0  0  0  0
    8.7923   -5.2643   -1.8659 C   0  0  0  0  0  0  0  0  0  0  0  0
    6.3051   -3.2367    2.6504 C   0  0  0  0  0  0  0  0  0  0  0  0
    6.3004   -1.7134    2.8894 C   0  0  0  0  0  0  0  0  0  0  0  0
    3.2213    0.2054   -1.6926 H   0  0  0  0  0  0  0  0  0  0  0  0
    2.8311   -1.4242   -1.1495 H   0  0  0  0  0  0  0  0  0  0  0  0
    4.3032   -1.1285   -2.1041 H   0  0  0  0  0  0  0  0  0  0  0  0
    3.7023    2.0430   -0.6131 H   0  0  0  0  0  0  0  0  0  0  0  0
    5.3207    5.2989    3.2681 H   0  0  0  0  0  0  0  0  0  0  0  0
    4.2689    7.4720    1.9239 H   0  0  0  0  0  0  0  0  0  0  0  0
    3.0566    8.0944   -0.1814 H   0  0  0  0  0  0  0  0  0  0  0  0
    2.9707    4.0003   -1.4444 H   0  0  0  0  0  0  0  0  0  0  0  0
    5.6304    1.0064    2.5004 H   0  0  0  0  0  0  0  0  0  0  0  0
    4.5883   -5.4781    0.9667 H   0  0  0  0  0  0  0  0  0  0  0  0
    5.7547   -5.6984    2.2462 H   0  0  0  0  0  0  0  0  0  0  0  0
    6.2593   -5.4832   -0.7712 H   0  0  0  0  0  0  0  0  0  0  0  0
    5.5668   -7.4643    0.0979 H   0  0  0  0  0  0  0  0  0  0  0  0
    8.3325   -5.7671    1.4597 H   0  0  0  0  0  0  0  0  0  0  0  0
    8.0815   -4.2631    0.5714 H   0  0  0  0  0  0  0  0  0  0  0  0
   11.0981   -6.0079   -0.7386 H   0  0  0  0  0  0  0  0  0  0  0  0
   10.6042   -5.7504    0.9238 H   0  0  0  0  0  0  0  0  0  0  0  0
   11.7800   -3.7610   -0.0618 H   0  0  0  0  0  0  0  0  0  0  0  0
   10.1421   -3.3198    0.4196 H   0  0  0  0  0  0  0  0  0  0  0  0
    9.0121   -3.4643   -3.0485 H   0  0  0  0  0  0  0  0  0  0  0  0
    8.4418   -3.1443   -1.4094 H   0  0  0  0  0  0  0  0  0  0  0  0
    9.4375   -5.8228   -2.5562 H   0  0  0  0  0  0  0  0  0  0  0  0
    7.7713   -5.4578   -2.2067 H   0  0  0  0  0  0  0  0  0  0  0  0
    7.3458   -3.5810    2.6354 H   0  0  0  0  0  0  0  0  0  0  0  0
    5.8332   -3.7305    3.5084 H   0  0  0  0  0  0  0  0  0  0  0  0
    7.3344   -1.3545    2.9611 H   0  0  0  0  0  0  0  0  0  0  0  0
    5.8271   -1.5019    3.8554 H   0  0  0  0  0  0  0  0  0  0  0  0
  1  2  1  0  0  0  0
  1 34  1  0  0  0  0
  1 35  1  0  0  0  0
  1 36  1  0  0  0  0
  2  3  2  0  0  0  0
  2 18  1  0  0  0  0
  3  4  1  0  0  0  0
  3 16  1  0  0  0  0
  4  5  2  0  0  0  0
  4 37  1  0  0  0  0
  5  6  1  0  0  0  0
  5 15  1  0  0  0  0
  6  7  2  0  0  0  0
  6  8  1  0  0  0  0
  8  9  1  0  0  0  0
  8 38  1  0  0  0  0
  9 10  1  0  0  0  0
  9 15  2  0  0  0  0
 10 11  2  0  0  0  0
 10 39  1  0  0  0  0
 11 12  1  0  0  0  0
 11 40  1  0  0  0  0
 12 13  1  0  0  0  0
 12 14  2  0  0  0  0
 14 15  1  0  0  0  0
 14 41  1  0  0  0  0
 16 17  1  0  0  0  0
 16 42  1  0  0  0  0
 17 18  2  0  0  0  0
 17 33  1  0  0  0  0
 18 19  1  0  0  0  0
 19 20  2  0  0  0  0
 19 21  1  0  0  0  0
 21 22  1  0  0  0  0
 21 32  1  0  0  0  0
 22 43  1  0  0  0  0
 22 44  1  0  0  0  0
 23 25  1  0  0  0  0
 23 24  1  0  0  0  0
 23 22  1  0  0  0  0
 23 45  1  6  0  0  0
 24 46  1  0  0  0  0
 25 26  1  0  0  0  0
 25 47  1  0  0  0  0
 25 48  1  0  0  0  0
 26 27  1  0  0  0  0
 26 31  1  0  0  0  0
 27 28  1  0  0  0  0
 27 49  1  0  0  0  0
 27 50  1  0  0  0  0
 28 29  1  0  0  0  0
 28 51  1  0  0  0  0
 28 52  1  0  0  0  0
 29 30  1  0  0  0  0
 30 31  1  0  0  0  0
 30 53  1  0  0  0  0
 30 54  1  0  0  0  0
 31 55  1  0  0  0  0
 31 56  1  0  0  0  0
 32 33  1  0  0  0  0
 32 57  1  0  0  0  0
 32 58  1  0  0  0  0
 33 59  1  0  0  0  0
 33 60  1  0  0  0  0
M  END
$$$$
