CHEMBL475820
 OpenBabel04072215383D

 64 68  0  0  0  0  0  0  0  0999 V2000
    2.5223    0.1639   -0.0174 C   0  0  0  0  0  0  0  0  0  0  0  0
    1.0239    0.1018    0.0960 C   0  0  0  0  0  0  0  0  0  0  0  0
    0.3284    1.3193    0.2057 C   0  0  0  0  0  0  0  0  0  0  0  0
   -1.0651    1.3561    0.2653 C   0  0  0  0  0  0  0  0  0  0  0  0
   -1.7972    0.1821    0.1683 C   0  0  0  0  0  0  0  0  0  0  0  0
   -3.2082    0.1124    0.1754 N   0  0  0  0  0  0  0  0  0  0  0  0
   -4.0752    1.1405    0.4955 C   0  0  0  0  0  0  0  0  0  0  0  0
   -3.7301    2.2508    0.8890 O   0  0  0  0  0  0  0  0  0  0  0  0
   -5.5424    0.8776    0.3744 C   0  0  0  0  0  0  0  0  0  0  0  0
   -6.0954   -0.2899   -0.1662 C   0  0  0  0  0  0  0  0  0  0  0  0
   -7.4863   -0.4188   -0.2705 C   0  0  0  0  0  0  0  0  0  0  0  0
   -8.3398    0.6137    0.1509 C   0  0  0  0  0  0  0  0  0  0  0  0
   -9.8075    0.4076    0.0171 C   0  0  0  0  0  0  0  0  0  0  0  0
  -10.2200   -0.7438    0.0693 O   0  0  0  0  0  0  0  0  0  0  0  0
  -10.5624    1.5440   -0.2244 N   0  0  0  0  0  0  0  0  0  0  0  0
  -11.9686    1.5805   -0.4004 C   0  0  0  0  0  0  0  0  0  0  0  0
  -12.7985    0.5365    0.0240 C   0  0  0  0  0  0  0  0  0  0  0  0
  -14.1808    0.6051   -0.1510 C   0  0  0  0  0  0  0  0  0  0  0  0
  -14.7520    1.7327   -0.7278 C   0  0  0  0  0  0  0  0  0  0  0  0
  -13.9400    2.7955   -1.1274 C   0  0  0  0  0  0  0  0  0  0  0  0
  -12.5438    2.7163   -1.0139 C   0  0  0  0  0  0  0  0  0  0  0  0
  -11.7626    3.8374   -1.3807 N   0  0  0  0  0  0  0  0  0  0  0  0
   -7.7973    1.7702    0.7087 C   0  0  0  0  0  0  0  0  0  0  0  0
   -6.4084    1.8964    0.8149 C   0  0  0  0  0  0  0  0  0  0  0  0
   -1.1014   -1.0249    0.0636 C   0  0  0  0  0  0  0  0  0  0  0  0
    0.3038   -1.1099    0.1245 C   0  0  0  0  0  0  0  0  0  0  0  0
    0.9630   -2.3554    0.2034 N   0  0  0  0  0  0  0  0  0  0  0  0
    0.4771   -3.6026    0.6212 C   0  0  0  0  0  0  0  0  0  0  0  0
   -0.8399   -3.8340    0.7050 N   0  0  0  0  0  0  0  0  0  0  0  0
   -1.2597   -5.0525    1.0933 C   0  0  0  0  0  0  0  0  0  0  0  0
   -0.4279   -6.0988    1.4237 C   0  0  0  0  0  0  0  0  0  0  0  0
   -0.9297   -7.4319    1.7888 C   0  0  0  0  0  0  0  0  0  0  0  0
   -0.2340   -8.6060    1.4675 C   0  0  0  0  0  0  0  0  0  0  0  0
   -0.7600   -9.8577    1.7912 C   0  0  0  0  0  0  0  0  0  0  0  0
   -1.9843   -9.9133    2.4307 C   0  0  0  0  0  0  0  0  0  0  0  0
   -2.6962   -8.8198    2.7623 N   0  0  0  0  0  0  0  0  0  0  0  0
   -2.1552   -7.6193    2.4396 C   0  0  0  0  0  0  0  0  0  0  0  0
    0.9095   -5.7499    1.3355 C   0  0  0  0  0  0  0  0  0  0  0  0
    1.3828   -4.5377    0.9397 N   0  0  0  0  0  0  0  0  0  0  0  0
    2.8487    1.1656   -0.3235 H   0  0  0  0  0  0  0  0  0  0  0  0
    2.8818   -0.5246   -0.7889 H   0  0  0  0  0  0  0  0  0  0  0  0
    2.9929   -0.0709    0.9407 H   0  0  0  0  0  0  0  0  0  0  0  0
    0.8693    2.2628    0.2478 H   0  0  0  0  0  0  0  0  0  0  0  0
   -1.5466    2.3231    0.3580 H   0  0  0  0  0  0  0  0  0  0  0  0
   -3.5875   -0.8046   -0.0007 H   0  0  0  0  0  0  0  0  0  0  0  0
   -5.4899   -1.1147   -0.5256 H   0  0  0  0  0  0  0  0  0  0  0  0
   -7.9097   -1.3317   -0.6890 H   0  0  0  0  0  0  0  0  0  0  0  0
  -10.0922    2.4217   -0.3967 H   0  0  0  0  0  0  0  0  0  0  0  0
  -12.3967   -0.3376    0.5268 H   0  0  0  0  0  0  0  0  0  0  0  0
  -14.8054   -0.2199    0.1815 H   0  0  0  0  0  0  0  0  0  0  0  0
  -15.8295    1.7885   -0.8568 H   0  0  0  0  0  0  0  0  0  0  0  0
  -14.4100    3.6768   -1.5553 H   0  0  0  0  0  0  0  0  0  0  0  0
  -12.2743    4.4790   -1.9826 H   0  0  0  0  0  0  0  0  0  0  0  0
  -10.8889    3.5693   -1.8200 H   0  0  0  0  0  0  0  0  0  0  0  0
   -8.4259    2.5675    1.0911 H   0  0  0  0  0  0  0  0  0  0  0  0
   -5.9986    2.8050    1.2555 H   0  0  0  0  0  0  0  0  0  0  0  0
   -1.6862   -1.9329   -0.0405 H   0  0  0  0  0  0  0  0  0  0  0  0
    1.9612   -2.3330    0.3554 H   0  0  0  0  0  0  0  0  0  0  0  0
   -2.3419   -5.1497    1.1030 H   0  0  0  0  0  0  0  0  0  0  0  0
    0.7146   -8.5682    0.9374 H   0  0  0  0  0  0  0  0  0  0  0  0
   -0.2280  -10.7683    1.5393 H   0  0  0  0  0  0  0  0  0  0  0  0
   -2.4379  -10.8634    2.6978 H   0  0  0  0  0  0  0  0  0  0  0  0
   -2.7767   -6.7789    2.7411 H   0  0  0  0  0  0  0  0  0  0  0  0
    1.6932   -6.4585    1.5931 H   0  0  0  0  0  0  0  0  0  0  0  0
  1  2  1  0  0  0  0
  1 40  1  0  0  0  0
  1 41  1  0  0  0  0
  1 42  1  0  0  0  0
  2  3  1  0  0  0  0
  2 26  2  0  0  0  0
  3  4  2  0  0  0  0
  3 43  1  0  0  0  0
  4  5  1  0  0  0  0
  4 44  1  0  0  0  0
  5  6  1  0  0  0  0
  5 25  2  0  0  0  0
  6  7  1  0  0  0  0
  6 45  1  0  0  0  0
  7  8  2  0  0  0  0
  7  9  1  0  0  0  0
  9 10  1  0  0  0  0
  9 24  2  0  0  0  0
 10 11  2  0  0  0  0
 10 46  1  0  0  0  0
 11 12  1  0  0  0  0
 11 47  1  0  0  0  0
 12 13  1  0  0  0  0
 12 23  2  0  0  0  0
 13 14  2  0  0  0  0
 13 15  1  0  0  0  0
 15 16  1  0  0  0  0
 15 48  1  0  0  0  0
 16 17  1  0  0  0  0
 16 21  2  0  0  0  0
 17 18  2  0  0  0  0
 17 49  1  0  0  0  0
 18 19  1  0  0  0  0
 18 50  1  0  0  0  0
 19 20  2  0  0  0  0
 19 51  1  0  0  0  0
 20 21  1  0  0  0  0
 20 52  1  0  0  0  0
 21 22  1  0  0  0  0
 22 53  1  0  0  0  0
 22 54  1  0  0  0  0
 23 24  1  0  0  0  0
 23 55  1  0  0  0  0
 24 56  1  0  0  0  0
 25 26  1  0  0  0  0
 25 57  1  0  0  0  0
 26 27  1  0  0  0  0
 27 28  1  0  0  0  0
 27 58  1  0  0  0  0
 28 29  1  0  0  0  0
 28 39  2  0  0  0  0
 29 30  2  0  0  0  0
 30 31  1  0  0  0  0
 30 59  1  0  0  0  0
 31 32  1  0  0  0  0
 31 38  2  0  0  0  0
 32 33  1  0  0  0  0
 32 37  2  0  0  0  0
 33 34  2  0  0  0  0
 33 60  1  0  0  0  0
 34 35  1  0  0  0  0
 34 61  1  0  0  0  0
 35 36  2  0  0  0  0
 35 62  1  0  0  0  0
 36 37  1  0  0  0  0
 37 63  1  0  0  0  0
 38 39  1  0  0  0  0
 38 64  1  0  0  0  0
M  END
$$$$
