CHEMBL3808450
 OpenBabel04072215373D

 52 56  0  0  0  0  0  0  0  0999 V2000
    0.5570   -2.9284   -2.3197 C   0  0  0  0  0  0  0  0  0  0  0  0
    0.7101   -1.5162   -1.7300 C   0  0  0  0  0  0  0  0  0  0  0  0
   -0.6124   -0.7472   -1.8963 C   0  0  0  0  0  0  0  0  0  0  0  0
    1.0094   -1.6472   -0.2222 C   0  0  0  0  0  0  0  0  0  0  0  0
    1.8098   -0.7787   -2.4467 C   0  0  0  0  0  0  0  0  0  0  0  0
    2.0525   -0.4265   -3.7580 C   0  0  0  0  0  0  0  0  0  0  0  0
    3.2591    0.3237   -3.7168 C   0  0  0  0  0  0  0  0  0  0  0  0
    3.8648    0.9077   -4.8176 N   0  0  0  0  0  0  0  0  0  0  0  0
    5.0024    1.6969   -4.7321 C   0  0  0  0  0  0  0  0  0  0  0  0
    5.5601    1.9980   -3.6843 O   0  0  0  0  0  0  0  0  0  0  0  0
    5.4977    2.1718   -6.0033 C   0  0  0  0  0  0  0  0  0  0  0  0
    5.3206    1.6663   -7.2799 C   0  0  0  0  0  0  0  0  0  0  0  0
    6.0076    2.3804   -8.2209 N   0  0  0  0  0  0  0  0  0  0  0  0
    6.6447    3.3124   -7.5462 C   0  0  0  0  0  0  0  0  0  0  0  0
    7.5595    4.3141   -7.9832 C   0  0  0  0  0  0  0  0  0  0  0  0
    8.1015    5.1777   -7.1038 C   0  0  0  0  0  0  0  0  0  0  0  0
    9.0704    6.0808   -7.5280 O   0  0  0  0  0  0  0  0  0  0  0  0
    9.1650    7.3309   -6.9443 C   0  0  0  0  0  0  0  0  0  0  0  0
    8.0692    7.9107   -6.4088 N   0  0  0  0  0  0  0  0  0  0  0  0
    8.2505    9.1288   -5.8618 C   0  0  0  0  0  0  0  0  0  0  0  0
    9.3955    9.8309   -5.8345 N   0  0  0  0  0  0  0  0  0  0  0  0
   10.4303    9.2048   -6.4098 C   0  0  0  0  0  0  0  0  0  0  0  0
   10.3751    7.9592   -6.9758 C   0  0  0  0  0  0  0  0  0  0  0  0
   11.6959    7.5543   -7.4972 C   0  0  0  0  0  0  0  0  0  0  0  0
   12.6207    8.6831   -7.2187 N   0  0  0  0  0  0  0  0  0  0  0  0
   11.8212    9.7499   -6.5566 C   0  0  0  0  0  0  0  0  0  0  0  0
    7.7787    5.0805   -5.6789 C   0  0  0  0  0  0  0  0  0  0  0  0
    6.9150    4.1384   -5.2614 C   0  0  0  0  0  0  0  0  0  0  0  0
    6.3606    3.2459   -6.1808 N   0  0  0  0  0  0  0  0  0  0  0  0
    3.7195    0.3802   -2.4660 N   0  0  0  0  0  0  0  0  0  0  0  0
    2.8246   -0.2944   -1.6807 O   0  0  0  0  0  0  0  0  0  0  0  0
   -0.2227   -3.4932   -1.7949 H   0  0  0  0  0  0  0  0  0  0  0  0
    1.4912   -3.4966   -2.2392 H   0  0  0  0  0  0  0  0  0  0  0  0
    0.2825   -2.8958   -3.3804 H   0  0  0  0  0  0  0  0  0  0  0  0
   -1.4311   -1.2468   -1.3658 H   0  0  0  0  0  0  0  0  0  0  0  0
   -0.9014   -0.6662   -2.9508 H   0  0  0  0  0  0  0  0  0  0  0  0
   -0.5305    0.2721   -1.5003 H   0  0  0  0  0  0  0  0  0  0  0  0
    0.2064   -2.1804    0.2991 H   0  0  0  0  0  0  0  0  0  0  0  0
    1.1124   -0.6635    0.2519 H   0  0  0  0  0  0  0  0  0  0  0  0
    1.9416   -2.1973   -0.0461 H   0  0  0  0  0  0  0  0  0  0  0  0
    1.4332   -0.6605   -4.6093 H   0  0  0  0  0  0  0  0  0  0  0  0
    3.4056    0.7832   -5.7045 H   0  0  0  0  0  0  0  0  0  0  0  0
    4.7522    0.7942   -7.5768 H   0  0  0  0  0  0  0  0  0  0  0  0
    7.8201    4.3452   -9.0355 H   0  0  0  0  0  0  0  0  0  0  0  0
    7.3846    9.5831   -5.3913 H   0  0  0  0  0  0  0  0  0  0  0  0
   11.6524    7.3640   -8.5746 H   0  0  0  0  0  0  0  0  0  0  0  0
   12.0606    6.6587   -6.9850 H   0  0  0  0  0  0  0  0  0  0  0  0
   12.9707    9.0469   -8.1040 H   0  0  0  0  0  0  0  0  0  0  0  0
   11.8033   10.6493   -7.1809 H   0  0  0  0  0  0  0  0  0  0  0  0
   12.2506    9.9886   -5.5796 H   0  0  0  0  0  0  0  0  0  0  0  0
    8.2293    5.7618   -4.9691 H   0  0  0  0  0  0  0  0  0  0  0  0
    6.6402    4.0405   -4.2177 H   0  0  0  0  0  0  0  0  0  0  0  0
  1  2  1  0  0  0  0
  1 32  1  0  0  0  0
  1 33  1  0  0  0  0
  1 34  1  0  0  0  0
  2  3  1  0  0  0  0
  2  4  1  0  0  0  0
  2  5  1  0  0  0  0
  3 35  1  0  0  0  0
  3 36  1  0  0  0  0
  3 37  1  0  0  0  0
  4 38  1  0  0  0  0
  4 39  1  0  0  0  0
  4 40  1  0  0  0  0
  5  6  2  0  0  0  0
  5 31  1  0  0  0  0
  6  7  1  0  0  0  0
  6 41  1  0  0  0  0
  7  8  1  0  0  0  0
  7 30  2  0  0  0  0
  8  9  1  0  0  0  0
  8 42  1  0  0  0  0
  9 10  2  0  0  0  0
  9 11  1  0  0  0  0
 11 12  2  0  0  0  0
 11 29  1  0  0  0  0
 12 13  1  0  0  0  0
 12 43  1  0  0  0  0
 13 14  2  0  0  0  0
 14 15  1  0  0  0  0
 14 29  1  0  0  0  0
 15 16  2  0  0  0  0
 15 44  1  0  0  0  0
 16 17  1  0  0  0  0
 16 27  1  0  0  0  0
 17 18  1  0  0  0  0
 18 19  1  0  0  0  0
 18 23  2  0  0  0  0
 19 20  2  0  0  0  0
 20 21  1  0  0  0  0
 20 45  1  0  0  0  0
 21 22  2  0  0  0  0
 22 23  1  0  0  0  0
 22 26  1  0  0  0  0
 23 24  1  0  0  0  0
 24 25  1  0  0  0  0
 24 46  1  0  0  0  0
 24 47  1  0  0  0  0
 25 26  1  0  0  0  0
 25 48  1  0  0  0  0
 26 49  1  0  0  0  0
 26 50  1  0  0  0  0
 27 28  2  0  0  0  0
 27 51  1  0  0  0  0
 28 29  1  0  0  0  0
 28 52  1  0  0  0  0
 30 31  1  0  0  0  0
M  END
$$$$
