CHEMBL230109
 OpenBabel04072215363D

 60 64  0  0  0  0  0  0  0  0999 V2000
   10.5172    4.1771    3.6086 C   0  0  0  0  0  0  0  0  0  0  0  0
   11.8164    3.5736    3.4138 N   0  0  0  0  0  0  0  0  0  0  0  0
   12.5305    3.3310    4.5769 C   0  0  0  0  0  0  0  0  0  0  0  0
   13.8623    3.4127    4.4721 N   0  0  0  0  0  0  0  0  0  0  0  0
   14.5827    3.1684    5.5835 C   0  0  0  0  0  0  0  0  0  0  0  0
   14.0195    2.8761    6.8019 C   0  0  0  0  0  0  0  0  0  0  0  0
   12.6488    2.8596    6.8131 C   0  0  0  0  0  0  0  0  0  0  0  0
   12.0152    2.6324    8.0349 O   0  0  0  0  0  0  0  0  0  0  0  0
   10.8071    3.2764    8.2409 C   0  0  0  0  0  0  0  0  0  0  0  0
    9.8082    2.5835    8.9445 C   0  0  0  0  0  0  0  0  0  0  0  0
    8.5431    3.1551    9.1835 C   0  0  0  0  0  0  0  0  0  0  0  0
    8.3596    4.4417    8.6860 C   0  0  0  0  0  0  0  0  0  0  0  0
    7.2371    5.2254    8.7397 O   0  0  0  0  0  0  0  0  0  0  0  0
    7.6272    6.4030    8.1449 C   0  0  0  0  0  0  0  0  0  0  0  0
    6.7168    7.3917    8.1239 N   0  0  0  0  0  0  0  0  0  0  0  0
    6.9919    8.7722    8.0351 C   0  0  0  0  0  0  0  0  0  0  0  0
    5.9371    9.6816    7.9058 C   0  0  0  0  0  0  0  0  0  0  0  0
    6.1827   11.0540    7.7735 C   0  0  0  0  0  0  0  0  0  0  0  0
    7.4900   11.5452    7.7553 C   0  0  0  0  0  0  0  0  0  0  0  0
    7.7013   13.2465    7.5436 Cl  0  0  0  0  0  0  0  0  0  0  0  0
    8.5700   10.6681    7.9022 C   0  0  0  0  0  0  0  0  0  0  0  0
   10.0152   11.1200    7.9768 C   0  0  0  0  0  0  0  0  0  0  0  0
   10.2786   12.0211    9.1013 N   0  0  0  0  0  0  0  0  0  0  0  0
   10.0191   11.4181   10.4184 C   0  0  0  0  0  0  0  0  0  0  0  0
   10.2400   12.4495   11.5483 C   0  0  0  0  0  0  0  0  0  0  0  0
   11.5792   13.0726   11.5638 N   0  0  0  0  0  0  0  0  0  0  0  0
   12.5956   12.1408   12.0423 C   0  0  0  0  0  0  0  0  0  0  0  0
   11.8914   13.5748   10.2088 C   0  0  0  0  0  0  0  0  0  0  0  0
   11.6433   12.5685    9.0577 C   0  0  0  0  0  0  0  0  0  0  0  0
    8.2975    9.2917    8.0231 C   0  0  0  0  0  0  0  0  0  0  0  0
    8.8652    6.3965    7.6980 N   0  0  0  0  0  0  0  0  0  0  0  0
    9.3397    5.1649    8.0333 C   0  0  0  0  0  0  0  0  0  0  0  0
   10.5962    4.5976    7.8194 C   0  0  0  0  0  0  0  0  0  0  0  0
   11.8907    3.0518    5.7153 N   0  0  0  0  0  0  0  0  0  0  0  0
   10.0724    4.3916    2.6317 H   0  0  0  0  0  0  0  0  0  0  0  0
   10.5863    5.1229    4.1572 H   0  0  0  0  0  0  0  0  0  0  0  0
    9.8332    3.5017    4.1347 H   0  0  0  0  0  0  0  0  0  0  0  0
   12.4439    4.0656    2.7883 H   0  0  0  0  0  0  0  0  0  0  0  0
   15.6591    3.2249    5.4558 H   0  0  0  0  0  0  0  0  0  0  0  0
   14.6152    2.6987    7.6852 H   0  0  0  0  0  0  0  0  0  0  0  0
   10.0060    1.5736    9.3010 H   0  0  0  0  0  0  0  0  0  0  0  0
    7.7593    2.6289    9.7135 H   0  0  0  0  0  0  0  0  0  0  0  0
    5.7649    7.1541    8.3768 H   0  0  0  0  0  0  0  0  0  0  0  0
    4.9065    9.3363    7.9055 H   0  0  0  0  0  0  0  0  0  0  0  0
    5.3440   11.7402    7.6850 H   0  0  0  0  0  0  0  0  0  0  0  0
   10.2486   11.6177    7.0259 H   0  0  0  0  0  0  0  0  0  0  0  0
   10.6860   10.2508    8.0309 H   0  0  0  0  0  0  0  0  0  0  0  0
   10.6542   10.5368   10.5773 H   0  0  0  0  0  0  0  0  0  0  0  0
    8.9792   11.0808   10.4926 H   0  0  0  0  0  0  0  0  0  0  0  0
   10.0250   11.9863   12.5190 H   0  0  0  0  0  0  0  0  0  0  0  0
    9.4959   13.2503   11.4357 H   0  0  0  0  0  0  0  0  0  0  0  0
   12.3441   11.7879   13.0491 H   0  0  0  0  0  0  0  0  0  0  0  0
   13.5637   12.6464   12.1235 H   0  0  0  0  0  0  0  0  0  0  0  0
   12.7219   11.2651   11.3983 H   0  0  0  0  0  0  0  0  0  0  0  0
   12.9269   13.9342   10.1681 H   0  0  0  0  0  0  0  0  0  0  0  0
   11.2662   14.4601   10.0291 H   0  0  0  0  0  0  0  0  0  0  0  0
   12.3867   11.7611    9.1048 H   0  0  0  0  0  0  0  0  0  0  0  0
   11.8001   13.0952    8.1087 H   0  0  0  0  0  0  0  0  0  0  0  0
    9.1473    8.6251    8.1391 H   0  0  0  0  0  0  0  0  0  0  0  0
   11.3560    5.1700    7.3041 H   0  0  0  0  0  0  0  0  0  0  0  0
  1  2  1  0  0  0  0
  1 35  1  0  0  0  0
  1 36  1  0  0  0  0
  1 37  1  0  0  0  0
  2  3  1  0  0  0  0
  2 38  1  0  0  0  0
  3  4  1  0  0  0  0
  3 34  2  0  0  0  0
  4  5  2  0  0  0  0
  5  6  1  0  0  0  0
  5 39  1  0  0  0  0
  6  7  2  0  0  0  0
  6 40  1  0  0  0  0
  7  8  1  0  0  0  0
  7 34  1  0  0  0  0
  8  9  1  0  0  0  0
  9 10  1  0  0  0  0
  9 33  2  0  0  0  0
 10 11  2  0  0  0  0
 10 41  1  0  0  0  0
 11 12  1  0  0  0  0
 11 42  1  0  0  0  0
 12 13  1  0  0  0  0
 12 32  2  0  0  0  0
 13 14  1  0  0  0  0
 14 15  1  0  0  0  0
 14 31  2  0  0  0  0
 15 16  1  0  0  0  0
 15 43  1  0  0  0  0
 16 17  1  0  0  0  0
 16 30  2  0  0  0  0
 17 18  2  0  0  0  0
 17 44  1  0  0  0  0
 18 19  1  0  0  0  0
 18 45  1  0  0  0  0
 19 20  1  0  0  0  0
 19 21  2  0  0  0  0
 21 22  1  0  0  0  0
 21 30  1  0  0  0  0
 22 23  1  0  0  0  0
 22 46  1  0  0  0  0
 22 47  1  0  0  0  0
 23 24  1  0  0  0  0
 23 29  1  0  0  0  0
 24 25  1  0  0  0  0
 24 48  1  0  0  0  0
 24 49  1  0  0  0  0
 25 26  1  0  0  0  0
 25 50  1  0  0  0  0
 25 51  1  0  0  0  0
 26 27  1  0  0  0  0
 26 28  1  0  0  0  0
 27 52  1  0  0  0  0
 27 53  1  0  0  0  0
 27 54  1  0  0  0  0
 28 29  1  0  0  0  0
 28 55  1  0  0  0  0
 28 56  1  0  0  0  0
 29 57  1  0  0  0  0
 29 58  1  0  0  0  0
 30 59  1  0  0  0  0
 31 32  1  0  0  0  0
 32 33  1  0  0  0  0
 33 60  1  0  0  0  0
M  END
$$$$
