CHEMBL352992
 OpenBabel04072215363D

 57 60  0  0  0  0  0  0  0  0999 V2000
    2.3483    2.1395    3.8421 C   0  0  0  0  0  0  0  0  0  0  0  0
    2.6008    0.7643    3.5630 O   0  0  0  0  0  0  0  0  0  0  0  0
    3.8628    0.3297    3.8679 C   0  0  0  0  0  0  0  0  0  0  0  0
    4.6658    0.8704    4.8687 C   0  0  0  0  0  0  0  0  0  0  0  0
    5.9677    0.4014    5.0422 C   0  0  0  0  0  0  0  0  0  0  0  0
    6.4647   -0.6263    4.2343 C   0  0  0  0  0  0  0  0  0  0  0  0
    8.1597   -0.9582    4.3679 Cl  0  0  0  0  0  0  0  0  0  0  0  0
    5.6278   -1.2714    3.3024 C   0  0  0  0  0  0  0  0  0  0  0  0
    6.0485   -2.2967    2.4124 N   0  0  0  0  0  0  0  0  0  0  0  0
    6.7772   -3.4593    2.8046 C   0  0  0  0  0  0  0  0  0  0  0  0
    6.8264   -3.7790    4.1075 N   0  0  0  0  0  0  0  0  0  0  0  0
    7.5360   -4.8587    4.4434 C   0  0  0  0  0  0  0  0  0  0  0  0
    8.1709   -5.6739    3.5963 N   0  0  0  0  0  0  0  0  0  0  0  0
    8.0487   -5.3920    2.2981 C   0  0  0  0  0  0  0  0  0  0  0  0
    8.6289   -6.2638    1.3850 C   0  0  0  0  0  0  0  0  0  0  0  0
    8.4758   -6.1307   -0.0065 C   0  0  0  0  0  0  0  0  0  0  0  0
    8.9920   -7.0570   -0.8788 O   0  0  0  0  0  0  0  0  0  0  0  0
    9.1693   -8.3791   -0.3514 C   0  0  0  0  0  0  0  0  0  0  0  0
    9.1295   -9.4247   -1.3696 N   0  0  0  0  0  0  0  0  0  0  0  0
    7.8904   -9.3743   -2.1582 C   0  0  0  0  0  0  0  0  0  0  0  0
    7.8277  -10.4891   -3.2257 C   0  0  0  0  0  0  0  0  0  0  0  0
    9.0095  -10.5751   -4.1083 N   0  0  0  0  0  0  0  0  0  0  0  0
    9.0294   -9.4977   -5.0950 C   0  0  0  0  0  0  0  0  0  0  0  0
   10.2334  -10.5658   -3.2793 C   0  0  0  0  0  0  0  0  0  0  0  0
   10.3080   -9.4169   -2.2433 C   0  0  0  0  0  0  0  0  0  0  0  0
    7.8042   -5.0081   -0.4983 C   0  0  0  0  0  0  0  0  0  0  0  0
    7.6083   -4.6105   -1.7919 O   0  0  0  0  0  0  0  0  0  0  0  0
    7.6518   -5.5731   -2.8315 C   0  0  0  0  0  0  0  0  0  0  0  0
    7.2616   -4.0928    0.4149 C   0  0  0  0  0  0  0  0  0  0  0  0
    7.3493   -4.2860    1.8163 C   0  0  0  0  0  0  0  0  0  0  0  0
    4.3350   -0.7463    3.1097 C   0  0  0  0  0  0  0  0  0  0  0  0
    1.3818    2.4014    3.4016 H   0  0  0  0  0  0  0  0  0  0  0  0
    3.1095    2.7838    3.3860 H   0  0  0  0  0  0  0  0  0  0  0  0
    2.2794    2.3187    4.9194 H   0  0  0  0  0  0  0  0  0  0  0  0
    4.3137    1.6639    5.5191 H   0  0  0  0  0  0  0  0  0  0  0  0
    6.6034    0.8600    5.7950 H   0  0  0  0  0  0  0  0  0  0  0  0
    6.5637   -1.8431    1.6613 H   0  0  0  0  0  0  0  0  0  0  0  0
    7.6008   -5.0979    5.4982 H   0  0  0  0  0  0  0  0  0  0  0  0
    9.2097   -7.0790    1.8097 H   0  0  0  0  0  0  0  0  0  0  0  0
    8.3799   -8.6209    0.3723 H   0  0  0  0  0  0  0  0  0  0  0  0
   10.1292   -8.4212    0.1797 H   0  0  0  0  0  0  0  0  0  0  0  0
    7.7903   -8.4088   -2.6628 H   0  0  0  0  0  0  0  0  0  0  0  0
    7.0255   -9.4835   -1.4928 H   0  0  0  0  0  0  0  0  0  0  0  0
    6.9160  -10.3686   -3.8242 H   0  0  0  0  0  0  0  0  0  0  0  0
    7.7178  -11.4537   -2.7129 H   0  0  0  0  0  0  0  0  0  0  0  0
    8.1205   -9.5199   -5.7061 H   0  0  0  0  0  0  0  0  0  0  0  0
    9.8705   -9.6353   -5.7837 H   0  0  0  0  0  0  0  0  0  0  0  0
    9.1136   -8.5005   -4.6516 H   0  0  0  0  0  0  0  0  0  0  0  0
   11.1237  -10.5467   -3.9192 H   0  0  0  0  0  0  0  0  0  0  0  0
   10.2803  -11.5228   -2.7408 H   0  0  0  0  0  0  0  0  0  0  0  0
   10.4138   -8.4538   -2.7569 H   0  0  0  0  0  0  0  0  0  0  0  0
   11.2132   -9.5634   -1.6418 H   0  0  0  0  0  0  0  0  0  0  0  0
    7.4823   -5.0395   -3.7730 H   0  0  0  0  0  0  0  0  0  0  0  0
    6.8443   -6.3031   -2.7207 H   0  0  0  0  0  0  0  0  0  0  0  0
    8.6306   -6.0473   -2.9216 H   0  0  0  0  0  0  0  0  0  0  0  0
    6.7281   -3.2340    0.0125 H   0  0  0  0  0  0  0  0  0  0  0  0
    3.6888   -1.1794    2.3484 H   0  0  0  0  0  0  0  0  0  0  0  0
  1  2  1  0  0  0  0
  1 32  1  0  0  0  0
  1 33  1  0  0  0  0
  1 34  1  0  0  0  0
  2  3  1  0  0  0  0
  3  4  1  0  0  0  0
  3 31  2  0  0  0  0
  4  5  2  0  0  0  0
  4 35  1  0  0  0  0
  5  6  1  0  0  0  0
  5 36  1  0  0  0  0
  6  7  1  0  0  0  0
  6  8  2  0  0  0  0
  8  9  1  0  0  0  0
  8 31  1  0  0  0  0
  9 10  1  0  0  0  0
  9 37  1  0  0  0  0
 10 11  1  0  0  0  0
 10 30  2  0  0  0  0
 11 12  2  0  0  0  0
 12 13  1  0  0  0  0
 12 38  1  0  0  0  0
 13 14  2  0  0  0  0
 14 15  1  0  0  0  0
 14 30  1  0  0  0  0
 15 16  2  0  0  0  0
 15 39  1  0  0  0  0
 16 17  1  0  0  0  0
 16 26  1  0  0  0  0
 17 18  1  0  0  0  0
 18 19  1  0  0  0  0
 18 40  1  0  0  0  0
 18 41  1  0  0  0  0
 19 20  1  0  0  0  0
 19 25  1  0  0  0  0
 20 21  1  0  0  0  0
 20 42  1  0  0  0  0
 20 43  1  0  0  0  0
 21 22  1  0  0  0  0
 21 44  1  0  0  0  0
 21 45  1  0  0  0  0
 22 23  1  0  0  0  0
 22 24  1  0  0  0  0
 23 46  1  0  0  0  0
 23 47  1  0  0  0  0
 23 48  1  0  0  0  0
 24 25  1  0  0  0  0
 24 49  1  0  0  0  0
 24 50  1  0  0  0  0
 25 51  1  0  0  0  0
 25 52  1  0  0  0  0
 26 27  1  0  0  0  0
 26 29  2  0  0  0  0
 27 28  1  0  0  0  0
 28 53  1  0  0  0  0
 28 54  1  0  0  0  0
 28 55  1  0  0  0  0
 29 30  1  0  0  0  0
 29 56  1  0  0  0  0
 31 57  1  0  0  0  0
M  END
$$$$
