CHEMBL1974365
 OpenBabel04072215363D

 37 40  0  0  0  0  0  0  0  0999 V2000
    1.3851    0.2988   -0.8652 O   0  0  0  0  0  0  0  0  0  0  0  0
    2.4364    0.0319   -0.2669 C   0  0  0  0  0  0  0  0  0  0  0  0
    2.8315   -1.2792   -0.2829 N   0  0  0  0  0  0  0  0  0  0  0  0
    3.7271   -1.9294    0.5718 C   0  0  0  0  0  0  0  0  0  0  0  0
    3.3953   -3.2473    0.9155 C   0  0  0  0  0  0  0  0  0  0  0  0
    4.1404   -3.9411    1.8656 C   0  0  0  0  0  0  0  0  0  0  0  0
    5.2566   -3.3417    2.4354 C   0  0  0  0  0  0  0  0  0  0  0  0
    5.6418   -2.0642    2.0285 C   0  0  0  0  0  0  0  0  0  0  0  0
    4.8872   -1.3426    1.0863 C   0  0  0  0  0  0  0  0  0  0  0  0
    5.3064   -0.0439    0.7453 N   0  0  0  0  0  0  0  0  0  0  0  0
    4.4782    1.0925    0.8385 C   0  0  0  0  0  0  0  0  0  0  0  0
    5.0531    2.2656    1.3826 C   0  0  0  0  0  0  0  0  0  0  0  0
    4.3296    3.4513    1.5985 C   0  0  0  0  0  0  0  0  0  0  0  0
    4.9581    4.6784    2.1621 C   0  0  0  0  0  0  0  0  0  0  0  0
    4.2205    5.5021    3.0363 C   0  0  0  0  0  0  0  0  0  0  0  0
    4.7475    6.6870    3.5606 C   0  0  0  0  0  0  0  0  0  0  0  0
    6.0473    7.0684    3.2532 C   0  0  0  0  0  0  0  0  0  0  0  0
    6.8162    6.2693    2.4078 C   0  0  0  0  0  0  0  0  0  0  0  0
    6.2749    5.0947    1.8705 C   0  0  0  0  0  0  0  0  0  0  0  0
    7.0602    4.3563    1.0204 O   0  0  0  0  0  0  0  0  0  0  0  0
    2.9687    3.4166    1.2683 C   0  0  0  0  0  0  0  0  0  0  0  0
    2.3812    2.2732    0.7178 C   0  0  0  0  0  0  0  0  0  0  0  0
    3.1326    1.1122    0.4712 C   0  0  0  0  0  0  0  0  0  0  0  0
    2.1394   -1.8505   -0.7505 H   0  0  0  0  0  0  0  0  0  0  0  0
    2.5105   -3.7199    0.4959 H   0  0  0  0  0  0  0  0  0  0  0  0
    3.8312   -4.9348    2.1765 H   0  0  0  0  0  0  0  0  0  0  0  0
    5.8248   -3.8637    3.2005 H   0  0  0  0  0  0  0  0  0  0  0  0
    6.5217   -1.6155    2.4828 H   0  0  0  0  0  0  0  0  0  0  0  0
    6.2604    0.1456    1.0340 H   0  0  0  0  0  0  0  0  0  0  0  0
    6.1034    2.2398    1.6681 H   0  0  0  0  0  0  0  0  0  0  0  0
    3.2062    5.2356    3.3239 H   0  0  0  0  0  0  0  0  0  0  0  0
    4.1401    7.3045    4.2193 H   0  0  0  0  0  0  0  0  0  0  0  0
    6.4608    7.9821    3.6690 H   0  0  0  0  0  0  0  0  0  0  0  0
    7.8311    6.5794    2.1769 H   0  0  0  0  0  0  0  0  0  0  0  0
    7.9054    4.8150    0.8905 H   0  0  0  0  0  0  0  0  0  0  0  0
    2.3377    4.2917    1.4071 H   0  0  0  0  0  0  0  0  0  0  0  0
    1.3232    2.3030    0.4613 H   0  0  0  0  0  0  0  0  0  0  0  0
  1  2  2  0  0  0  0
  2  3  1  0  0  0  0
  2 23  1  0  0  0  0
  3  4  1  0  0  0  0
  3 24  1  0  0  0  0
  4  5  1  0  0  0  0
  4  9  2  0  0  0  0
  5  6  2  0  0  0  0
  5 25  1  0  0  0  0
  6  7  1  0  0  0  0
  6 26  1  0  0  0  0
  7  8  2  0  0  0  0
  7 27  1  0  0  0  0
  8  9  1  0  0  0  0
  8 28  1  0  0  0  0
  9 10  1  0  0  0  0
 10 11  1  0  0  0  0
 10 29  1  0  0  0  0
 11 12  1  0  0  0  0
 11 23  2  0  0  0  0
 12 13  2  0  0  0  0
 12 30  1  0  0  0  0
 13 14  1  0  0  0  0
 13 21  1  0  0  0  0
 14 15  1  0  0  0  0
 14 19  2  0  0  0  0
 15 16  2  0  0  0  0
 15 31  1  0  0  0  0
 16 17  1  0  0  0  0
 16 32  1  0  0  0  0
 17 18  2  0  0  0  0
 17 33  1  0  0  0  0
 18 19  1  0  0  0  0
 18 34  1  0  0  0  0
 19 20  1  0  0  0  0
 20 35  1  0  0  0  0
 21 22  2  0  0  0  0
 21 36  1  0  0  0  0
 22 23  1  0  0  0  0
 22 37  1  0  0  0  0
M  END
$$$$
