CHEMBL179719
 OpenBabel04072215363D

 52 55  0  0  0  0  0  0  0  0999 V2000
    5.5055   -0.8230    1.4422 C   0  0  0  0  0  0  0  0  0  0  0  0
    4.3008   -0.1242    1.1239 O   0  0  0  0  0  0  0  0  0  0  0  0
    4.4463    1.0777    0.4838 C   0  0  0  0  0  0  0  0  0  0  0  0
    5.5688    1.3741   -0.3086 C   0  0  0  0  0  0  0  0  0  0  0  0
    5.8039    2.6367   -0.8395 C   0  0  0  0  0  0  0  0  0  0  0  0
    6.9694    2.8438   -1.4755 N   0  0  0  0  0  0  0  0  0  0  0  0
    7.2451    4.0924   -1.9078 C   0  0  0  0  0  0  0  0  0  0  0  0
    6.4115    5.1705   -1.7168 C   0  0  0  0  0  0  0  0  0  0  0  0
    5.1993    4.9611   -1.0627 C   0  0  0  0  0  0  0  0  0  0  0  0
    4.4548    6.1211   -0.9064 O   0  0  0  0  0  0  0  0  0  0  0  0
    3.6681    6.3191    0.2057 C   0  0  0  0  0  0  0  0  0  0  0  0
    3.9709    5.8529    1.4802 C   0  0  0  0  0  0  0  0  0  0  0  0
    2.9894    5.8747    2.4787 C   0  0  0  0  0  0  0  0  0  0  0  0
    1.7313    6.4426    2.2504 C   0  0  0  0  0  0  0  0  0  0  0  0
    0.6612    6.3800    3.1783 N   0  0  0  0  0  0  0  0  0  0  0  0
    0.6958    5.7534    4.4094 C   0  0  0  0  0  0  0  0  0  0  0  0
    1.6976    5.2750    4.9301 O   0  0  0  0  0  0  0  0  0  0  0  0
   -0.5631    5.6726    4.9994 N   0  0  0  0  0  0  0  0  0  0  0  0
   -0.6996    5.0625    6.2726 C   0  0  0  0  0  0  0  0  0  0  0  0
    0.1885    5.3657    7.3178 C   0  0  0  0  0  0  0  0  0  0  0  0
    0.1211    4.6803    8.5319 C   0  0  0  0  0  0  0  0  0  0  0  0
   -0.8360    3.6891    8.6975 C   0  0  0  0  0  0  0  0  0  0  0  0
   -0.8763    2.9996    9.8457 F   0  0  0  0  0  0  0  0  0  0  0  0
   -1.7386    3.4081    7.6768 C   0  0  0  0  0  0  0  0  0  0  0  0
   -2.6449    2.4331    7.8346 F   0  0  0  0  0  0  0  0  0  0  0  0
   -1.6967    4.1067    6.4705 C   0  0  0  0  0  0  0  0  0  0  0  0
    1.5011    7.0592    1.0161 C   0  0  0  0  0  0  0  0  0  0  0  0
    2.4640    6.9958   -0.0017 C   0  0  0  0  0  0  0  0  0  0  0  0
    4.8408    3.6452   -0.6555 C   0  0  0  0  0  0  0  0  0  0  0  0
    3.6182    3.2648   -0.0573 C   0  0  0  0  0  0  0  0  0  0  0  0
    3.4392    2.0356    0.5861 C   0  0  0  0  0  0  0  0  0  0  0  0
    2.2552    2.0008    1.2654 O   0  0  0  0  0  0  0  0  0  0  0  0
    2.0238    1.0043    2.2454 C   0  0  0  0  0  0  0  0  0  0  0  0
    5.3419   -1.3740    2.3732 H   0  0  0  0  0  0  0  0  0  0  0  0
    6.3632   -0.1617    1.6146 H   0  0  0  0  0  0  0  0  0  0  0  0
    5.7289   -1.5434    0.6491 H   0  0  0  0  0  0  0  0  0  0  0  0
    6.3257    0.6166   -0.4987 H   0  0  0  0  0  0  0  0  0  0  0  0
    8.2014    4.2006   -2.4165 H   0  0  0  0  0  0  0  0  0  0  0  0
    6.7011    6.1586   -2.0593 H   0  0  0  0  0  0  0  0  0  0  0  0
    4.9177    5.3650    1.6946 H   0  0  0  0  0  0  0  0  0  0  0  0
    3.2397    5.3843    3.4126 H   0  0  0  0  0  0  0  0  0  0  0  0
   -0.2007    6.8444    2.9235 H   0  0  0  0  0  0  0  0  0  0  0  0
   -1.3195    5.5247    4.3462 H   0  0  0  0  0  0  0  0  0  0  0  0
    0.9584    6.1240    7.1848 H   0  0  0  0  0  0  0  0  0  0  0  0
    0.8236    4.8982    9.3298 H   0  0  0  0  0  0  0  0  0  0  0  0
   -2.3937    3.8344    5.6860 H   0  0  0  0  0  0  0  0  0  0  0  0
    0.5589    7.5568    0.8059 H   0  0  0  0  0  0  0  0  0  0  0  0
    2.2515    7.4296   -0.9742 H   0  0  0  0  0  0  0  0  0  0  0  0
    2.7901    3.9658   -0.0080 H   0  0  0  0  0  0  0  0  0  0  0  0
    1.2657    1.3984    2.9325 H   0  0  0  0  0  0  0  0  0  0  0  0
    2.9022    0.7717    2.8532 H   0  0  0  0  0  0  0  0  0  0  0  0
    1.6075    0.1132    1.7691 H   0  0  0  0  0  0  0  0  0  0  0  0
  1  2  1  0  0  0  0
  1 34  1  0  0  0  0
  1 35  1  0  0  0  0
  1 36  1  0  0  0  0
  2  3  1  0  0  0  0
  3  4  1  0  0  0  0
  3 31  2  0  0  0  0
  4  5  2  0  0  0  0
  4 37  1  0  0  0  0
  5  6  1  0  0  0  0
  5 29  1  0  0  0  0
  6  7  2  0  0  0  0
  7  8  1  0  0  0  0
  7 38  1  0  0  0  0
  8  9  2  0  0  0  0
  8 39  1  0  0  0  0
  9 10  1  0  0  0  0
  9 29  1  0  0  0  0
 10 11  1  0  0  0  0
 11 12  1  0  0  0  0
 11 28  2  0  0  0  0
 12 13  2  0  0  0  0
 12 40  1  0  0  0  0
 13 14  1  0  0  0  0
 13 41  1  0  0  0  0
 14 15  1  0  0  0  0
 14 27  2  0  0  0  0
 15 16  1  0  0  0  0
 15 42  1  0  0  0  0
 16 17  2  0  0  0  0
 16 18  1  0  0  0  0
 18 19  1  0  0  0  0
 18 43  1  0  0  0  0
 19 20  1  0  0  0  0
 19 26  2  0  0  0  0
 20 21  2  0  0  0  0
 20 44  1  0  0  0  0
 21 22  1  0  0  0  0
 21 45  1  0  0  0  0
 22 23  1  0  0  0  0
 22 24  2  0  0  0  0
 24 25  1  0  0  0  0
 24 26  1  0  0  0  0
 26 46  1  0  0  0  0
 27 28  1  0  0  0  0
 27 47  1  0  0  0  0
 28 48  1  0  0  0  0
 29 30  2  0  0  0  0
 30 31  1  0  0  0  0
 30 49  1  0  0  0  0
 31 32  1  0  0  0  0
 32 33  1  0  0  0  0
 33 50  1  0  0  0  0
 33 51  1  0  0  0  0
 33 52  1  0  0  0  0
M  END
$$$$
