CHEMBL250665
 OpenBabel04072215363D

 38 40  0  0  0  0  0  0  0  0999 V2000
    0.9424   -0.0822    0.6368 O   0  0  0  0  0  0  0  0  0  0  0  0
    2.0902   -0.0404    0.1986 C   0  0  0  0  0  0  0  0  0  0  0  0
    2.5972   -0.8188   -0.8232 N   0  0  0  0  0  0  0  0  0  0  0  0
    1.8780   -1.8026   -1.5464 C   0  0  0  0  0  0  0  0  0  0  0  0
    0.5341   -2.1194   -1.3105 C   0  0  0  0  0  0  0  0  0  0  0  0
   -0.1142   -3.1189   -2.0447 C   0  0  0  0  0  0  0  0  0  0  0  0
    0.5815   -3.8074   -3.0334 C   0  0  0  0  0  0  0  0  0  0  0  0
   -0.2131   -5.0415   -3.9303 Cl  0  0  0  0  0  0  0  0  0  0  0  0
    1.9106   -3.5001   -3.2897 C   0  0  0  0  0  0  0  0  0  0  0  0
    2.5608   -2.5028   -2.5507 C   0  0  0  0  0  0  0  0  0  0  0  0
    2.9945    0.9252    0.8439 C   0  0  0  0  0  0  0  0  0  0  0  0
    2.7544    1.1934    2.1838 C   0  0  0  0  0  0  0  0  0  0  0  0
    3.4179    2.1154    2.9080 N   0  0  0  0  0  0  0  0  0  0  0  0
    4.3485    2.7914    2.2352 C   0  0  0  0  0  0  0  0  0  0  0  0
    4.6544    2.6252    0.9366 N   0  0  0  0  0  0  0  0  0  0  0  0
    3.9583    1.7085    0.2204 C   0  0  0  0  0  0  0  0  0  0  0  0
    4.2913    1.5612   -1.1581 N   0  0  0  0  0  0  0  0  0  0  0  0
    4.7864    2.8459   -1.6868 C   0  0  0  0  0  0  0  0  0  0  0  0
    5.1189    2.7958   -3.1602 C   0  0  0  0  0  0  0  0  0  0  0  0
    4.8972    3.9369   -3.9453 C   0  0  0  0  0  0  0  0  0  0  0  0
    5.3056    3.9361   -5.2697 C   0  0  0  0  0  0  0  0  0  0  0  0
    5.9153    2.8895   -5.8610 N   0  0  0  0  0  0  0  0  0  0  0  0
    6.1363    1.8035   -5.0879 C   0  0  0  0  0  0  0  0  0  0  0  0
    5.7676    1.7103   -3.7527 C   0  0  0  0  0  0  0  0  0  0  0  0
    3.5861   -0.7211   -1.0390 H   0  0  0  0  0  0  0  0  0  0  0  0
   -0.0536   -1.6162   -0.5492 H   0  0  0  0  0  0  0  0  0  0  0  0
   -1.1548   -3.3495   -1.8315 H   0  0  0  0  0  0  0  0  0  0  0  0
    2.4535   -4.0316   -4.0694 H   0  0  0  0  0  0  0  0  0  0  0  0
    3.6006   -2.2857   -2.7706 H   0  0  0  0  0  0  0  0  0  0  0  0
    1.9781    0.6640    2.7337 H   0  0  0  0  0  0  0  0  0  0  0  0
    4.8988    3.5493    2.7814 H   0  0  0  0  0  0  0  0  0  0  0  0
    3.4625    1.2971   -1.6875 H   0  0  0  0  0  0  0  0  0  0  0  0
    5.6901    3.1907   -1.1679 H   0  0  0  0  0  0  0  0  0  0  0  0
    3.9931    3.5933   -1.5464 H   0  0  0  0  0  0  0  0  0  0  0  0
    4.4362    4.8281   -3.5304 H   0  0  0  0  0  0  0  0  0  0  0  0
    5.1616    4.8086   -5.9010 H   0  0  0  0  0  0  0  0  0  0  0  0
    6.6506    0.9856   -5.5862 H   0  0  0  0  0  0  0  0  0  0  0  0
    6.0087    0.8181   -3.1854 H   0  0  0  0  0  0  0  0  0  0  0  0
  1  2  2  0  0  0  0
  2  3  1  0  0  0  0
  2 11  1  0  0  0  0
  3  4  1  0  0  0  0
  3 25  1  0  0  0  0
  4  5  1  0  0  0  0
  4 10  2  0  0  0  0
  5  6  2  0  0  0  0
  5 26  1  0  0  0  0
  6  7  1  0  0  0  0
  6 27  1  0  0  0  0
  7  8  1  0  0  0  0
  7  9  2  0  0  0  0
  9 10  1  0  0  0  0
  9 28  1  0  0  0  0
 10 29  1  0  0  0  0
 11 12  1  0  0  0  0
 11 16  2  0  0  0  0
 12 13  2  0  0  0  0
 12 30  1  0  0  0  0
 13 14  1  0  0  0  0
 14 15  2  0  0  0  0
 14 31  1  0  0  0  0
 15 16  1  0  0  0  0
 16 17  1  0  0  0  0
 17 18  1  0  0  0  0
 17 32  1  0  0  0  0
 18 19  1  0  0  0  0
 18 33  1  0  0  0  0
 18 34  1  0  0  0  0
 19 20  1  0  0  0  0
 19 24  2  0  0  0  0
 20 21  2  0  0  0  0
 20 35  1  0  0  0  0
 21 22  1  0  0  0  0
 21 36  1  0  0  0  0
 22 23  2  0  0  0  0
 23 24  1  0  0  0  0
 23 37  1  0  0  0  0
 24 38  1  0  0  0  0
M  END
$$$$
