CHEMBL2386808
 OpenBabel04072215363D

 80 84  0  0  0  0  0  0  0  0999 V2000
    4.1040    3.6659   -4.0228 C   0  0  0  0  0  0  0  0  0  0  0  0
    3.8684    2.6920   -2.9120 C   0  0  0  0  0  0  0  0  0  0  0  0
    2.9465    3.0415   -2.0019 N   0  0  0  0  0  0  0  0  0  0  0  0
    2.7219    2.2030   -0.9802 C   0  0  0  0  0  0  0  0  0  0  0  0
    1.7342    2.4921   -0.0172 N   0  0  0  0  0  0  0  0  0  0  0  0
    1.0038    3.6323    0.0070 C   0  0  0  0  0  0  0  0  0  0  0  0
    0.1186    4.1173    0.9304 C   0  0  0  0  0  0  0  0  0  0  0  0
   -0.2834    5.3967    0.4472 C   0  0  0  0  0  0  0  0  0  0  0  0
   -1.1883    6.3471    1.0916 C   0  0  0  0  0  0  0  0  0  0  0  0
   -1.7661    6.0513    2.3339 C   0  0  0  0  0  0  0  0  0  0  0  0
   -2.6227    6.9585    2.9574 C   0  0  0  0  0  0  0  0  0  0  0  0
   -2.9345    8.1808    2.3462 C   0  0  0  0  0  0  0  0  0  0  0  0
   -3.8982    9.1316    3.0046 C   0  0  0  0  0  0  0  0  0  0  0  0
   -3.2511   10.0520    3.9169 N   0  0  0  0  0  0  0  0  0  0  0  0
   -3.1693    9.7359    5.2604 C   0  0  0  0  0  0  0  0  0  0  0  0
   -3.5980    8.6831    5.7056 O   0  0  0  0  0  0  0  0  0  0  0  0
   -2.6253   10.7713    5.9897 N   0  0  0  0  0  0  0  0  0  0  0  0
   -2.4032   10.6872    7.3536 C   0  0  0  0  0  0  0  0  0  0  0  0
   -2.2067   11.8048    8.2028 C   0  0  0  0  0  0  0  0  0  0  0  0
   -2.0387   11.2723    9.4629 C   0  0  0  0  0  0  0  0  0  0  0  0
   -1.8051   11.8294   10.8399 C   0  0  0  0  0  0  0  0  0  0  0  0
   -1.8143   13.3679   10.8084 C   0  0  0  0  0  0  0  0  0  0  0  0
   -2.9088   11.3515   11.8024 C   0  0  0  0  0  0  0  0  0  0  0  0
   -0.4395   11.3525   11.3659 C   0  0  0  0  0  0  0  0  0  0  0  0
   -2.1009    9.9164    9.3655 O   0  0  0  0  0  0  0  0  0  0  0  0
   -2.3232    9.5554    8.0572 N   0  0  0  0  0  0  0  0  0  0  0  0
   -2.3486    8.4860    1.1126 C   0  0  0  0  0  0  0  0  0  0  0  0
   -1.4866    7.5780    0.4908 C   0  0  0  0  0  0  0  0  0  0  0  0
    0.3085    5.6633   -0.7338 N   0  0  0  0  0  0  0  0  0  0  0  0
    1.0672    4.5806   -0.9749 N   0  0  0  0  0  0  0  0  0  0  0  0
    3.4091    1.0199   -0.8840 C   0  0  0  0  0  0  0  0  0  0  0  0
    4.3742    0.7463   -1.8360 C   0  0  0  0  0  0  0  0  0  0  0  0
    5.1070   -0.4227   -1.6647 N   0  0  0  0  0  0  0  0  0  0  0  0
    5.7201   -1.0571   -2.8355 C   0  0  0  0  0  0  0  0  0  0  0  0
    6.0826   -2.5204   -2.4342 C   0  0  0  0  0  0  0  0  0  0  0  0
    6.9227   -2.6711   -1.2023 N   0  0  0  0  0  0  0  0  0  0  0  0
    8.3186   -2.2695   -1.4820 C   0  0  0  0  0  0  0  0  0  0  0  0
    9.2692   -2.4502   -0.2843 C   0  0  0  0  0  0  0  0  0  0  0  0
    9.2364   -3.7889    0.1986 O   0  0  0  0  0  0  0  0  0  0  0  0
    6.3013   -1.8716   -0.1159 C   0  0  0  0  0  0  0  0  0  0  0  0
    5.9930   -0.4086   -0.4919 C   0  0  0  0  0  0  0  0  0  0  0  0
    4.5982    1.5650   -2.8739 N   0  0  0  0  0  0  0  0  0  0  0  0
    3.4549    4.5418   -3.9096 H   0  0  0  0  0  0  0  0  0  0  0  0
    3.8865    3.2018   -4.9879 H   0  0  0  0  0  0  0  0  0  0  0  0
    5.1419    4.0078   -4.0039 H   0  0  0  0  0  0  0  0  0  0  0  0
    1.8573    1.9845    0.8538 H   0  0  0  0  0  0  0  0  0  0  0  0
   -0.1857    3.6253    1.8405 H   0  0  0  0  0  0  0  0  0  0  0  0
   -1.5636    5.1120    2.8396 H   0  0  0  0  0  0  0  0  0  0  0  0
   -3.0537    6.6994    3.9242 H   0  0  0  0  0  0  0  0  0  0  0  0
   -4.6830    8.5690    3.5240 H   0  0  0  0  0  0  0  0  0  0  0  0
   -4.4005    9.7358    2.2405 H   0  0  0  0  0  0  0  0  0  0  0  0
   -2.5156   10.6270    3.5359 H   0  0  0  0  0  0  0  0  0  0  0  0
   -2.6489   11.6895    5.5803 H   0  0  0  0  0  0  0  0  0  0  0  0
   -2.2143   12.8516    7.9410 H   0  0  0  0  0  0  0  0  0  0  0  0
   -2.7878   13.7535   10.4823 H   0  0  0  0  0  0  0  0  0  0  0  0
   -1.0573   13.7583   10.1180 H   0  0  0  0  0  0  0  0  0  0  0  0
   -1.6065   13.7877   11.7990 H   0  0  0  0  0  0  0  0  0  0  0  0
   -3.8982   11.6951   11.4787 H   0  0  0  0  0  0  0  0  0  0  0  0
   -2.7391   11.7312   12.8168 H   0  0  0  0  0  0  0  0  0  0  0  0
   -2.9475   10.2574   11.8650 H   0  0  0  0  0  0  0  0  0  0  0  0
    0.3737   11.6609   10.6991 H   0  0  0  0  0  0  0  0  0  0  0  0
   -0.3993   10.2596   11.4481 H   0  0  0  0  0  0  0  0  0  0  0  0
   -0.2327   11.7643   12.3605 H   0  0  0  0  0  0  0  0  0  0  0  0
   -2.5706    9.4272    0.6127 H   0  0  0  0  0  0  0  0  0  0  0  0
   -1.0544    7.8318   -0.4759 H   0  0  0  0  0  0  0  0  0  0  0  0
    1.6400    4.5361   -1.8078 H   0  0  0  0  0  0  0  0  0  0  0  0
    3.2013    0.3089   -0.0966 H   0  0  0  0  0  0  0  0  0  0  0  0
    6.6141   -0.5121   -3.1630 H   0  0  0  0  0  0  0  0  0  0  0  0
    5.0164   -1.0888   -3.6763 H   0  0  0  0  0  0  0  0  0  0  0  0
    6.5477   -3.0394   -3.2803 H   0  0  0  0  0  0  0  0  0  0  0  0
    5.1399   -3.0534   -2.2436 H   0  0  0  0  0  0  0  0  0  0  0  0
    8.3860   -1.2343   -1.8324 H   0  0  0  0  0  0  0  0  0  0  0  0
    8.6898   -2.9128   -2.2896 H   0  0  0  0  0  0  0  0  0  0  0  0
    9.0151   -1.7811    0.5431 H   0  0  0  0  0  0  0  0  0  0  0  0
   10.2952   -2.2188   -0.5840 H   0  0  0  0  0  0  0  0  0  0  0  0
    8.2909   -4.0301    0.2423 H   0  0  0  0  0  0  0  0  0  0  0  0
    6.9005   -1.9019    0.7985 H   0  0  0  0  0  0  0  0  0  0  0  0
    5.3542   -2.3598    0.1528 H   0  0  0  0  0  0  0  0  0  0  0  0
    6.9144    0.1458   -0.7149 H   0  0  0  0  0  0  0  0  0  0  0  0
    5.5323    0.0787    0.3748 H   0  0  0  0  0  0  0  0  0  0  0  0
  1  2  1  0  0  0  0
  1 43  1  0  0  0  0
  1 44  1  0  0  0  0
  1 45  1  0  0  0  0
  2  3  1  0  0  0  0
  2 42  2  0  0  0  0
  3  4  2  0  0  0  0
  4  5  1  0  0  0  0
  4 31  1  0  0  0  0
  5  6  1  0  0  0  0
  5 46  1  0  0  0  0
  6  7  2  0  0  0  0
  6 30  1  0  0  0  0
  7  8  1  0  0  0  0
  7 47  1  0  0  0  0
  8  9  1  0  0  0  0
  8 29  2  0  0  0  0
  9 10  1  0  0  0  0
  9 28  2  0  0  0  0
 10 11  2  0  0  0  0
 10 48  1  0  0  0  0
 11 12  1  0  0  0  0
 11 49  1  0  0  0  0
 12 13  1  0  0  0  0
 12 27  2  0  0  0  0
 13 14  1  0  0  0  0
 13 50  1  0  0  0  0
 13 51  1  0  0  0  0
 14 15  1  0  0  0  0
 14 52  1  0  0  0  0
 15 16  2  0  0  0  0
 15 17  1  0  0  0  0
 17 18  1  0  0  0  0
 17 53  1  0  0  0  0
 18 19  1  0  0  0  0
 18 26  2  0  0  0  0
 19 20  2  0  0  0  0
 19 54  1  0  0  0  0
 20 21  1  0  0  0  0
 20 25  1  0  0  0  0
 21 22  1  0  0  0  0
 21 23  1  0  0  0  0
 21 24  1  0  0  0  0
 22 55  1  0  0  0  0
 22 56  1  0  0  0  0
 22 57  1  0  0  0  0
 23 58  1  0  0  0  0
 23 59  1  0  0  0  0
 23 60  1  0  0  0  0
 24 61  1  0  0  0  0
 24 62  1  0  0  0  0
 24 63  1  0  0  0  0
 25 26  1  0  0  0  0
 27 28  1  0  0  0  0
 27 64  1  0  0  0  0
 28 65  1  0  0  0  0
 29 30  1  0  0  0  0
 30 66  1  0  0  0  0
 31 32  2  0  0  0  0
 31 67  1  0  0  0  0
 32 33  1  0  0  0  0
 32 42  1  0  0  0  0
 33 34  1  0  0  0  0
 33 41  1  0  0  0  0
 34 35  1  0  0  0  0
 34 68  1  0  0  0  0
 34 69  1  0  0  0  0
 35 36  1  0  0  0  0
 35 70  1  0  0  0  0
 35 71  1  0  0  0  0
 36 37  1  0  0  0  0
 36 40  1  0  0  0  0
 37 38  1  0  0  0  0
 37 72  1  0  0  0  0
 37 73  1  0  0  0  0
 38 39  1  0  0  0  0
 38 74  1  0  0  0  0
 38 75  1  0  0  0  0
 39 76  1  0  0  0  0
 40 41  1  0  0  0  0
 40 77  1  0  0  0  0
 40 78  1  0  0  0  0
 41 79  1  0  0  0  0
 41 80  1  0  0  0  0
M  END
$$$$
