CHEMBL394694
 OpenBabel04072215373D

 57 60  0  0  0  0  0  0  0  0999 V2000
   13.2225    6.4850   -0.5895 C   0  0  0  0  0  0  0  0  0  0  0  0
   12.1701    6.6789    0.3821 N   0  0  0  0  0  0  0  0  0  0  0  0
   11.5799    5.5185    0.8595 C   0  0  0  0  0  0  0  0  0  0  0  0
   12.2603    4.3845    0.9187 N   0  0  0  0  0  0  0  0  0  0  0  0
   11.5952    3.3479    1.4258 C   0  0  0  0  0  0  0  0  0  0  0  0
   10.3414    3.3578    1.8750 N   0  0  0  0  0  0  0  0  0  0  0  0
    9.7445    4.5420    1.7709 C   0  0  0  0  0  0  0  0  0  0  0  0
    8.4101    4.7388    2.3513 C   0  0  0  0  0  0  0  0  0  0  0  0
    8.0913    6.0110    2.8900 C   0  0  0  0  0  0  0  0  0  0  0  0
    6.8528    6.2799    3.4606 C   0  0  0  0  0  0  0  0  0  0  0  0
    5.9147    5.2768    3.4469 C   0  0  0  0  0  0  0  0  0  0  0  0
    6.1459    4.0629    2.9157 N   0  0  0  0  0  0  0  0  0  0  0  0
    7.3953    3.7816    2.4351 C   0  0  0  0  0  0  0  0  0  0  0  0
    7.6219    2.4579    2.0354 O   0  0  0  0  0  0  0  0  0  0  0  0
    6.8546    1.4896    2.6659 C   0  0  0  0  0  0  0  0  0  0  0  0
    6.5960    1.5529    4.0421 C   0  0  0  0  0  0  0  0  0  0  0  0
    5.6800    0.7008    4.6654 C   0  0  0  0  0  0  0  0  0  0  0  0
    5.3294    0.8538    6.0327 N   0  0  0  0  0  0  0  0  0  0  0  0
    6.0311    1.6384    6.9393 C   0  0  0  0  0  0  0  0  0  0  0  0
    7.1018    2.2067    6.7095 O   0  0  0  0  0  0  0  0  0  0  0  0
    5.5141    1.7858    8.3189 C   0  0  0  0  0  0  0  0  0  0  0  0
    4.7091    0.8396    8.9499 C   0  0  0  0  0  0  0  0  0  0  0  0
    4.3889    1.0061   10.3009 C   0  0  0  0  0  0  0  0  0  0  0  0
    4.8789    2.1017   11.0256 C   0  0  0  0  0  0  0  0  0  0  0  0
    5.6893    3.0642   10.4094 C   0  0  0  0  0  0  0  0  0  0  0  0
    6.3216    4.2253   11.1572 C   0  0  0  0  0  0  0  0  0  0  0  0
    5.2944    5.1056   11.8717 C   0  0  0  0  0  0  0  0  0  0  0  0
    7.3966    3.7436   12.1337 C   0  0  0  0  0  0  0  0  0  0  0  0
    5.9801    2.8970    9.0502 C   0  0  0  0  0  0  0  0  0  0  0  0
    5.0712   -0.2939    3.9038 C   0  0  0  0  0  0  0  0  0  0  0  0
    5.4170   -0.4504    2.5506 C   0  0  0  0  0  0  0  0  0  0  0  0
    6.3045    0.4415    1.9398 C   0  0  0  0  0  0  0  0  0  0  0  0
    6.5956    0.2857    0.6401 F   0  0  0  0  0  0  0  0  0  0  0  0
   10.3251    5.6399    1.2601 N   0  0  0  0  0  0  0  0  0  0  0  0
   13.5426    7.4578   -0.9748 H   0  0  0  0  0  0  0  0  0  0  0  0
   12.8810    5.8860   -1.4396 H   0  0  0  0  0  0  0  0  0  0  0  0
   14.0996    6.0091   -0.1380 H   0  0  0  0  0  0  0  0  0  0  0  0
   11.4254    7.3080    0.1103 H   0  0  0  0  0  0  0  0  0  0  0  0
   12.1321    2.4069    1.4931 H   0  0  0  0  0  0  0  0  0  0  0  0
    8.8387    6.8041    2.8851 H   0  0  0  0  0  0  0  0  0  0  0  0
    6.6344    7.2479    3.8977 H   0  0  0  0  0  0  0  0  0  0  0  0
    4.9311    5.4151    3.8850 H   0  0  0  0  0  0  0  0  0  0  0  0
    7.0689    2.3588    4.5913 H   0  0  0  0  0  0  0  0  0  0  0  0
    4.5005    0.3724    6.3451 H   0  0  0  0  0  0  0  0  0  0  0  0
    4.3699   -0.0527    8.4389 H   0  0  0  0  0  0  0  0  0  0  0  0
    3.7840    0.2588   10.8070 H   0  0  0  0  0  0  0  0  0  0  0  0
    4.6440    2.1787   12.0858 H   0  0  0  0  0  0  0  0  0  0  0  0
    6.8256    4.8714   10.4269 H   0  0  0  0  0  0  0  0  0  0  0  0
    4.7328    4.5510   12.6308 H   0  0  0  0  0  0  0  0  0  0  0  0
    4.5768    5.5223   11.1569 H   0  0  0  0  0  0  0  0  0  0  0  0
    5.7926    5.9434   12.3713 H   0  0  0  0  0  0  0  0  0  0  0  0
    6.9743    3.1314   12.9381 H   0  0  0  0  0  0  0  0  0  0  0  0
    7.9068    4.5967   12.5942 H   0  0  0  0  0  0  0  0  0  0  0  0
    8.1558    3.1433   11.6183 H   0  0  0  0  0  0  0  0  0  0  0  0
    6.6230    3.6224    8.5528 H   0  0  0  0  0  0  0  0  0  0  0  0
    4.3492   -0.9768    4.3415 H   0  0  0  0  0  0  0  0  0  0  0  0
    4.9830   -1.2527    1.9580 H   0  0  0  0  0  0  0  0  0  0  0  0
  1  2  1  0  0  0  0
  1 35  1  0  0  0  0
  1 36  1  0  0  0  0
  1 37  1  0  0  0  0
  2  3  1  0  0  0  0
  2 38  1  0  0  0  0
  3  4  1  0  0  0  0
  3 34  2  0  0  0  0
  4  5  2  0  0  0  0
  5  6  1  0  0  0  0
  5 39  1  0  0  0  0
  6  7  2  0  0  0  0
  7  8  1  0  0  0  0
  7 34  1  0  0  0  0
  8  9  1  0  0  0  0
  8 13  2  0  0  0  0
  9 10  2  0  0  0  0
  9 40  1  0  0  0  0
 10 11  1  0  0  0  0
 10 41  1  0  0  0  0
 11 12  2  0  0  0  0
 11 42  1  0  0  0  0
 12 13  1  0  0  0  0
 13 14  1  0  0  0  0
 14 15  1  0  0  0  0
 15 16  1  0  0  0  0
 15 32  2  0  0  0  0
 16 17  2  0  0  0  0
 16 43  1  0  0  0  0
 17 18  1  0  0  0  0
 17 30  1  0  0  0  0
 18 19  1  0  0  0  0
 18 44  1  0  0  0  0
 19 20  2  0  0  0  0
 19 21  1  0  0  0  0
 21 22  1  0  0  0  0
 21 29  2  0  0  0  0
 22 23  2  0  0  0  0
 22 45  1  0  0  0  0
 23 24  1  0  0  0  0
 23 46  1  0  0  0  0
 24 25  2  0  0  0  0
 24 47  1  0  0  0  0
 25 26  1  0  0  0  0
 25 29  1  0  0  0  0
 26 27  1  0  0  0  0
 26 28  1  0  0  0  0
 26 48  1  0  0  0  0
 27 49  1  0  0  0  0
 27 50  1  0  0  0  0
 27 51  1  0  0  0  0
 28 52  1  0  0  0  0
 28 53  1  0  0  0  0
 28 54  1  0  0  0  0
 29 55  1  0  0  0  0
 30 31  2  0  0  0  0
 30 56  1  0  0  0  0
 31 32  1  0  0  0  0
 31 57  1  0  0  0  0
 32 33  1  0  0  0  0
M  END
$$$$
