CHEMBL148984
 OpenBabel04072215363D

 52 55  0  0  0  0  0  0  0  0999 V2000
    1.5716   -0.9478   -0.5132 C   0  0  0  0  0  0  0  0  0  0  0  0
    2.3363    0.1832   -0.1150 O   0  0  0  0  0  0  0  0  0  0  0  0
    3.0042    0.0806    1.0727 C   0  0  0  0  0  0  0  0  0  0  0  0
    2.9624   -1.0033    1.9422 C   0  0  0  0  0  0  0  0  0  0  0  0
    3.6994   -0.9776    3.1320 C   0  0  0  0  0  0  0  0  0  0  0  0
    4.5160    0.1157    3.4779 C   0  0  0  0  0  0  0  0  0  0  0  0
    5.3381    0.1049    4.7108 C   0  0  0  0  0  0  0  0  0  0  0  0
    5.8579   -1.1199    5.2055 C   0  0  0  0  0  0  0  0  0  0  0  0
    6.6388   -1.1867    6.3599 C   0  0  0  0  0  0  0  0  0  0  0  0
    6.9259   -0.0073    7.0173 C   0  0  0  0  0  0  0  0  0  0  0  0
    6.4465    1.2066    6.5361 C   0  0  0  0  0  0  0  0  0  0  0  0
    5.6492    1.2910    5.4105 C   0  0  0  0  0  0  0  0  0  0  0  0
    6.9000    2.2533    7.3406 N   0  0  0  0  0  0  0  0  0  0  0  0
    7.6905    1.7878    8.3857 C   0  0  0  0  0  0  0  0  0  0  0  0
    8.2633    2.4555    9.2258 O   0  0  0  0  0  0  0  0  0  0  0  0
    7.6956    0.2907    8.2340 C   0  0  0  0  0  0  0  0  0  0  0  0
    8.1915   -0.6952    8.9924 C   0  0  0  0  0  0  0  0  0  0  0  0
    8.8709   -0.6442   10.2335 C   0  0  0  0  0  0  0  0  0  0  0  0
    9.2997    0.5245   10.8045 N   0  0  0  0  0  0  0  0  0  0  0  0
    9.9238    0.2524   11.9947 C   0  0  0  0  0  0  0  0  0  0  0  0
    9.9136   -1.1138   12.2005 C   0  0  0  0  0  0  0  0  0  0  0  0
   10.5174   -1.8378   13.3644 C   0  0  0  0  0  0  0  0  0  0  0  0
    9.8054   -1.5355   14.6780 C   0  0  0  0  0  0  0  0  0  0  0  0
   10.3940   -2.3477   15.8036 C   0  0  0  0  0  0  0  0  0  0  0  0
   11.2928   -3.1676   15.6945 O   0  0  0  0  0  0  0  0  0  0  0  0
    9.8056   -2.0785   16.9924 O   0  0  0  0  0  0  0  0  0  0  0  0
    9.2327   -1.6874   11.0801 C   0  0  0  0  0  0  0  0  0  0  0  0
    8.9447   -3.1323   10.8308 C   0  0  0  0  0  0  0  0  0  0  0  0
    4.5387    1.1993    2.5861 C   0  0  0  0  0  0  0  0  0  0  0  0
    3.7873    1.1839    1.4054 C   0  0  0  0  0  0  0  0  0  0  0  0
    1.1198   -0.7215   -1.4835 H   0  0  0  0  0  0  0  0  0  0  0  0
    0.7604   -1.1429    0.1959 H   0  0  0  0  0  0  0  0  0  0  0  0
    2.2080   -1.8303   -0.6386 H   0  0  0  0  0  0  0  0  0  0  0  0
    2.3706   -1.8877    1.7317 H   0  0  0  0  0  0  0  0  0  0  0  0
    3.6195   -1.8412    3.7890 H   0  0  0  0  0  0  0  0  0  0  0  0
    5.6667   -2.0536    4.6816 H   0  0  0  0  0  0  0  0  0  0  0  0
    7.0080   -2.1457    6.7056 H   0  0  0  0  0  0  0  0  0  0  0  0
    5.2702    2.2540    5.0875 H   0  0  0  0  0  0  0  0  0  0  0  0
    6.7217    3.2352    7.1852 H   0  0  0  0  0  0  0  0  0  0  0  0
    8.0282   -1.7112    8.6420 H   0  0  0  0  0  0  0  0  0  0  0  0
    9.1725    1.4544   10.4133 H   0  0  0  0  0  0  0  0  0  0  0  0
   10.3274    1.0612   12.5889 H   0  0  0  0  0  0  0  0  0  0  0  0
   11.5779   -1.5660   13.4395 H   0  0  0  0  0  0  0  0  0  0  0  0
   10.5028   -2.9187   13.1857 H   0  0  0  0  0  0  0  0  0  0  0  0
    8.7395   -1.7790   14.5969 H   0  0  0  0  0  0  0  0  0  0  0  0
    9.9074   -0.4725   14.9285 H   0  0  0  0  0  0  0  0  0  0  0  0
    9.1026   -1.4057   16.9374 H   0  0  0  0  0  0  0  0  0  0  0  0
    9.3527   -3.7856   11.6040 H   0  0  0  0  0  0  0  0  0  0  0  0
    9.3727   -3.4462    9.8725 H   0  0  0  0  0  0  0  0  0  0  0  0
    7.8623   -3.2975   10.7939 H   0  0  0  0  0  0  0  0  0  0  0  0
    5.1606    2.0695    2.7817 H   0  0  0  0  0  0  0  0  0  0  0  0
    3.8273    2.0387    0.7349 H   0  0  0  0  0  0  0  0  0  0  0  0
  1  2  1  0  0  0  0
  1 31  1  0  0  0  0
  1 32  1  0  0  0  0
  1 33  1  0  0  0  0
  2  3  1  0  0  0  0
  3  4  1  0  0  0  0
  3 30  2  0  0  0  0
  4  5  2  0  0  0  0
  4 34  1  0  0  0  0
  5  6  1  0  0  0  0
  5 35  1  0  0  0  0
  6  7  1  0  0  0  0
  6 29  2  0  0  0  0
  7  8  1  0  0  0  0
  7 12  2  0  0  0  0
  8  9  2  0  0  0  0
  8 36  1  0  0  0  0
  9 10  1  0  0  0  0
  9 37  1  0  0  0  0
 10 11  2  0  0  0  0
 10 16  1  0  0  0  0
 11 12  1  0  0  0  0
 11 13  1  0  0  0  0
 12 38  1  0  0  0  0
 13 14  1  0  0  0  0
 13 39  1  0  0  0  0
 14 15  2  0  0  0  0
 14 16  1  0  0  0  0
 16 17  2  0  0  0  0
 17 18  1  0  0  0  0
 17 40  1  0  0  0  0
 18 19  1  0  0  0  0
 18 27  2  0  0  0  0
 19 20  1  0  0  0  0
 19 41  1  0  0  0  0
 20 21  2  0  0  0  0
 20 42  1  0  0  0  0
 21 22  1  0  0  0  0
 21 27  1  0  0  0  0
 22 23  1  0  0  0  0
 22 43  1  0  0  0  0
 22 44  1  0  0  0  0
 23 24  1  0  0  0  0
 23 45  1  0  0  0  0
 23 46  1  0  0  0  0
 24 25  2  0  0  0  0
 24 26  1  0  0  0  0
 26 47  1  0  0  0  0
 27 28  1  0  0  0  0
 28 48  1  0  0  0  0
 28 49  1  0  0  0  0
 28 50  1  0  0  0  0
 29 30  1  0  0  0  0
 29 51  1  0  0  0  0
 30 52  1  0  0  0  0
M  END
$$$$
