CHEMBL4237289
 OpenBabel04072215383D

 44 47  0  0  0  0  0  0  0  0999 V2000
    1.4300   -0.3729    1.1714 C   0  0  0  0  0  0  0  0  0  0  0  0
    2.7246   -0.1692    0.4289 C   0  0  0  0  0  0  0  0  0  0  0  0
    3.2967    1.1273    0.3905 C   0  0  0  0  0  0  0  0  0  0  0  0
    4.5397    1.4213   -0.2235 C   0  0  0  0  0  0  0  0  0  0  0  0
    5.1413    2.7567   -0.1718 C   0  0  0  0  0  0  0  0  0  0  0  0
    5.0243    3.5105    1.0060 C   0  0  0  0  0  0  0  0  0  0  0  0
    5.5761    4.7848    1.1196 C   0  0  0  0  0  0  0  0  0  0  0  0
    6.3201    5.3358    0.0788 C   0  0  0  0  0  0  0  0  0  0  0  0
    6.9620    6.5881    0.2015 N   0  0  0  0  0  0  0  0  0  0  0  0
    7.2884    7.1714    1.4140 C   0  0  0  0  0  0  0  0  0  0  0  0
    7.2043    6.6114    2.5060 O   0  0  0  0  0  0  0  0  0  0  0  0
    7.7019    8.4833    1.2609 N   0  0  0  0  0  0  0  0  0  0  0  0
    8.1462    9.2393    2.3696 C   0  0  0  0  0  0  0  0  0  0  0  0
    8.9827    8.6828    3.3449 C   0  0  0  0  0  0  0  0  0  0  0  0
    9.3876    9.4360    4.4474 C   0  0  0  0  0  0  0  0  0  0  0  0
    8.9503   10.7509    4.5851 C   0  0  0  0  0  0  0  0  0  0  0  0
    8.1204   11.3062    3.6114 C   0  0  0  0  0  0  0  0  0  0  0  0
    7.5359   12.9124    3.8134 Cl  0  0  0  0  0  0  0  0  0  0  0  0
    7.7347   10.5672    2.4919 C   0  0  0  0  0  0  0  0  0  0  0  0
    6.4098    4.6285   -1.1211 C   0  0  0  0  0  0  0  0  0  0  0  0
    5.8047    3.3649   -1.2485 C   0  0  0  0  0  0  0  0  0  0  0  0
    5.0653    0.2433   -0.7816 C   0  0  0  0  0  0  0  0  0  0  0  0
    6.2640    0.0159   -1.4179 C   0  0  0  0  0  0  0  0  0  0  0  0
    7.3550    0.7485   -1.7180 N   0  0  0  0  0  0  0  0  0  0  0  0
    6.3202   -1.2928   -1.8025 O   0  0  0  0  0  0  0  0  0  0  0  0
    5.1911   -1.9696   -1.3792 N   0  0  0  0  0  0  0  0  0  0  0  0
    4.4459   -1.0555   -0.7544 C   0  0  0  0  0  0  0  0  0  0  0  0
    3.2555   -1.2840   -0.1392 N   0  0  0  0  0  0  0  0  0  0  0  0
    1.0834    0.5508    1.6470 H   0  0  0  0  0  0  0  0  0  0  0  0
    1.5718   -1.1227    1.9588 H   0  0  0  0  0  0  0  0  0  0  0  0
    0.6545   -0.7189    0.4855 H   0  0  0  0  0  0  0  0  0  0  0  0
    2.7482    1.9352    0.8764 H   0  0  0  0  0  0  0  0  0  0  0  0
    4.5009    3.1172    1.8750 H   0  0  0  0  0  0  0  0  0  0  0  0
    5.4080    5.3214    2.0490 H   0  0  0  0  0  0  0  0  0  0  0  0
    7.4611    6.9377   -0.6035 H   0  0  0  0  0  0  0  0  0  0  0  0
    7.2220    8.9854    0.5266 H   0  0  0  0  0  0  0  0  0  0  0  0
    9.3255    7.6524    3.2623 H   0  0  0  0  0  0  0  0  0  0  0  0
   10.0295    8.9873    5.2041 H   0  0  0  0  0  0  0  0  0  0  0  0
    9.2488   11.3290    5.4546 H   0  0  0  0  0  0  0  0  0  0  0  0
    7.0636   11.0109    1.7622 H   0  0  0  0  0  0  0  0  0  0  0  0
    6.9624    5.0308   -1.9660 H   0  0  0  0  0  0  0  0  0  0  0  0
    5.8770    2.8545   -2.2075 H   0  0  0  0  0  0  0  0  0  0  0  0
    7.5913    1.5365   -1.1212 H   0  0  0  0  0  0  0  0  0  0  0  0
    8.1772    0.2406   -2.0340 H   0  0  0  0  0  0  0  0  0  0  0  0
  1  2  1  0  0  0  0
  1 29  1  0  0  0  0
  1 30  1  0  0  0  0
  1 31  1  0  0  0  0
  2  3  1  0  0  0  0
  2 28  2  0  0  0  0
  3  4  2  0  0  0  0
  3 32  1  0  0  0  0
  4  5  1  0  0  0  0
  4 22  1  0  0  0  0
  5  6  1  0  0  0  0
  5 21  2  0  0  0  0
  6  7  2  0  0  0  0
  6 33  1  0  0  0  0
  7  8  1  0  0  0  0
  7 34  1  0  0  0  0
  8  9  1  0  0  0  0
  8 20  2  0  0  0  0
  9 10  1  0  0  0  0
  9 35  1  0  0  0  0
 10 11  2  0  0  0  0
 10 12  1  0  0  0  0
 12 13  1  0  0  0  0
 12 36  1  0  0  0  0
 13 14  1  0  0  0  0
 13 19  2  0  0  0  0
 14 15  2  0  0  0  0
 14 37  1  0  0  0  0
 15 16  1  0  0  0  0
 15 38  1  0  0  0  0
 16 17  2  0  0  0  0
 16 39  1  0  0  0  0
 17 18  1  0  0  0  0
 17 19  1  0  0  0  0
 19 40  1  0  0  0  0
 20 21  1  0  0  0  0
 20 41  1  0  0  0  0
 21 42  1  0  0  0  0
 22 23  2  0  0  0  0
 22 27  1  0  0  0  0
 23 24  1  0  0  0  0
 23 25  1  0  0  0  0
 24 43  1  0  0  0  0
 24 44  1  0  0  0  0
 25 26  1  0  0  0  0
 26 27  2  0  0  0  0
 27 28  1  0  0  0  0
M  END
$$$$
