CHEMBL473250
 OpenBabel04072215383D

 68 73  0  0  0  0  0  0  0  0999 V2000
   -0.7614    2.3448   -2.3912 C   0  0  0  0  0  0  0  0  0  0  0  0
    0.5481    1.8396   -1.8452 C   0  0  0  0  0  0  0  0  0  0  0  0
    1.3344    1.0891   -2.7497 C   0  0  0  0  0  0  0  0  0  0  0  0
    2.5968    0.6191   -2.4059 C   0  0  0  0  0  0  0  0  0  0  0  0
    3.1129    0.9116   -1.1528 C   0  0  0  0  0  0  0  0  0  0  0  0
    2.3379    1.6213   -0.2294 C   0  0  0  0  0  0  0  0  0  0  0  0
    3.0485    1.9378    1.3229 Cl  0  0  0  0  0  0  0  0  0  0  0  0
    1.0248    2.0718   -0.5286 C   0  0  0  0  0  0  0  0  0  0  0  0
    0.3013    2.7181    0.5098 N   0  0  0  0  0  0  0  0  0  0  0  0
   -0.7209    3.5950    0.4178 C   0  0  0  0  0  0  0  0  0  0  0  0
   -0.8595    4.5284   -0.4962 N   0  0  0  0  0  0  0  0  0  0  0  0
   -2.1112    5.0308   -0.3374 C   0  0  0  0  0  0  0  0  0  0  0  0
   -2.7639    5.9868   -1.1246 C   0  0  0  0  0  0  0  0  0  0  0  0
   -4.0632    6.3670   -0.7877 C   0  0  0  0  0  0  0  0  0  0  0  0
   -4.6794    5.8433    0.3459 C   0  0  0  0  0  0  0  0  0  0  0  0
   -4.0329    4.9021    1.1580 C   0  0  0  0  0  0  0  0  0  0  0  0
   -2.7529    4.4657    0.7578 C   0  0  0  0  0  0  0  0  0  0  0  0
   -1.8448    3.5265    1.2480 N   0  0  0  0  0  0  0  0  0  0  0  0
   -2.0491    2.5946    2.3112 C   0  0  0  0  0  0  0  0  0  0  0  0
   -3.3191    2.0831    2.5312 C   0  0  0  0  0  0  0  0  0  0  0  0
   -3.4850    1.2282    3.6012 C   0  0  0  0  0  0  0  0  0  0  0  0
   -4.7743    0.7030    3.8484 N   0  0  0  0  0  0  0  0  0  0  0  0
   -5.1884    0.1631    5.0768 C   0  0  0  0  0  0  0  0  0  0  0  0
   -4.8652    0.8135    6.2601 C   0  0  0  0  0  0  0  0  0  0  0  0
   -5.2180    0.2480    7.4758 C   0  0  0  0  0  0  0  0  0  0  0  0
   -5.9217   -0.9537    7.5097 C   0  0  0  0  0  0  0  0  0  0  0  0
   -6.2392   -1.6779    8.8013 C   0  0  0  0  0  0  0  0  0  0  0  0
   -6.3444   -0.7492   10.0303 C   0  0  0  0  0  0  0  0  0  0  0  0
   -6.5139   -1.4051   11.3375 N   0  0  0  0  0  0  0  0  0  0  0  0
   -7.7481   -2.2045   11.4612 C   0  0  0  0  0  0  0  0  0  0  0  0
   -9.0309   -1.3609   11.5270 C   0  0  0  0  0  0  0  0  0  0  0  0
   -8.9784   -0.4128   12.6009 O   0  0  0  0  0  0  0  0  0  0  0  0
   -7.8306    0.4362   12.4815 C   0  0  0  0  0  0  0  0  0  0  0  0
   -6.5281   -0.3843   12.4188 C   0  0  0  0  0  0  0  0  0  0  0  0
   -6.2547   -1.5061    6.2738 C   0  0  0  0  0  0  0  0  0  0  0  0
   -5.9230   -0.9685    5.0688 N   0  0  0  0  0  0  0  0  0  0  0  0
   -2.4550    0.9168    4.4062 N   0  0  0  0  0  0  0  0  0  0  0  0
   -1.2533    1.4175    4.0902 C   0  0  0  0  0  0  0  0  0  0  0  0
   -0.9835    2.2306    3.0595 N   0  0  0  0  0  0  0  0  0  0  0  0
   -0.9860    1.9093   -3.3720 H   0  0  0  0  0  0  0  0  0  0  0  0
   -0.7050    3.4227   -2.5625 H   0  0  0  0  0  0  0  0  0  0  0  0
   -1.5985    2.0855   -1.7384 H   0  0  0  0  0  0  0  0  0  0  0  0
    0.9536    0.8666   -3.7459 H   0  0  0  0  0  0  0  0  0  0  0  0
    3.1760    0.0421   -3.1215 H   0  0  0  0  0  0  0  0  0  0  0  0
    4.1147    0.5810   -0.8952 H   0  0  0  0  0  0  0  0  0  0  0  0
    0.6380    2.4761    1.4420 H   0  0  0  0  0  0  0  0  0  0  0  0
   -2.2589    6.4014   -1.9894 H   0  0  0  0  0  0  0  0  0  0  0  0
   -4.5868    7.0861   -1.4119 H   0  0  0  0  0  0  0  0  0  0  0  0
   -5.6836    6.1728    0.6058 H   0  0  0  0  0  0  0  0  0  0  0  0
   -4.5241    4.5405    2.0554 H   0  0  0  0  0  0  0  0  0  0  0  0
   -4.1649    2.3116    1.8964 H   0  0  0  0  0  0  0  0  0  0  0  0
   -5.0751    0.0731    3.1128 H   0  0  0  0  0  0  0  0  0  0  0  0
   -4.3103    1.7452    6.2442 H   0  0  0  0  0  0  0  0  0  0  0  0
   -4.8994    0.7658    8.3730 H   0  0  0  0  0  0  0  0  0  0  0  0
   -5.4540   -2.4249    8.9717 H   0  0  0  0  0  0  0  0  0  0  0  0
   -7.1865   -2.2140    8.6708 H   0  0  0  0  0  0  0  0  0  0  0  0
   -7.1321   -0.0118    9.8372 H   0  0  0  0  0  0  0  0  0  0  0  0
   -5.4036   -0.1936   10.1108 H   0  0  0  0  0  0  0  0  0  0  0  0
   -7.6664   -2.7777   12.3945 H   0  0  0  0  0  0  0  0  0  0  0  0
   -7.8185   -2.9511   10.6644 H   0  0  0  0  0  0  0  0  0  0  0  0
   -9.8883   -2.0154   11.7117 H   0  0  0  0  0  0  0  0  0  0  0  0
   -9.2165   -0.8326   10.5851 H   0  0  0  0  0  0  0  0  0  0  0  0
   -7.8110    1.0907   13.3587 H   0  0  0  0  0  0  0  0  0  0  0  0
   -7.9511    1.0801   11.6027 H   0  0  0  0  0  0  0  0  0  0  0  0
   -6.4014   -0.9116   13.3726 H   0  0  0  0  0  0  0  0  0  0  0  0
   -5.6657    0.2877   12.3270 H   0  0  0  0  0  0  0  0  0  0  0  0
   -6.8077   -2.4410    6.2076 H   0  0  0  0  0  0  0  0  0  0  0  0
   -0.4276    1.1396    4.7371 H   0  0  0  0  0  0  0  0  0  0  0  0
  1  2  1  0  0  0  0
  1 40  1  0  0  0  0
  1 41  1  0  0  0  0
  1 42  1  0  0  0  0
  2  3  1  0  0  0  0
  2  8  2  0  0  0  0
  3  4  2  0  0  0  0
  3 43  1  0  0  0  0
  4  5  1  0  0  0  0
  4 44  1  0  0  0  0
  5  6  2  0  0  0  0
  5 45  1  0  0  0  0
  6  7  1  0  0  0  0
  6  8  1  0  0  0  0
  8  9  1  0  0  0  0
  9 10  1  0  0  0  0
  9 46  1  0  0  0  0
 10 11  2  0  0  0  0
 10 18  1  0  0  0  0
 11 12  1  0  0  0  0
 12 13  1  0  0  0  0
 12 17  2  0  0  0  0
 13 14  2  0  0  0  0
 13 47  1  0  0  0  0
 14 15  1  0  0  0  0
 14 48  1  0  0  0  0
 15 16  2  0  0  0  0
 15 49  1  0  0  0  0
 16 17  1  0  0  0  0
 16 50  1  0  0  0  0
 17 18  1  0  0  0  0
 18 19  1  0  0  0  0
 19 20  1  0  0  0  0
 19 39  2  0  0  0  0
 20 21  2  0  0  0  0
 20 51  1  0  0  0  0
 21 22  1  0  0  0  0
 21 37  1  0  0  0  0
 22 23  1  0  0  0  0
 22 52  1  0  0  0  0
 23 24  1  0  0  0  0
 23 36  2  0  0  0  0
 24 25  2  0  0  0  0
 24 53  1  0  0  0  0
 25 26  1  0  0  0  0
 25 54  1  0  0  0  0
 26 27  1  0  0  0  0
 26 35  2  0  0  0  0
 27 28  1  0  0  0  0
 27 55  1  0  0  0  0
 27 56  1  0  0  0  0
 28 29  1  0  0  0  0
 28 57  1  0  0  0  0
 28 58  1  0  0  0  0
 29 30  1  0  0  0  0
 29 34  1  0  0  0  0
 30 31  1  0  0  0  0
 30 59  1  0  0  0  0
 30 60  1  0  0  0  0
 31 32  1  0  0  0  0
 31 61  1  0  0  0  0
 31 62  1  0  0  0  0
 32 33  1  0  0  0  0
 33 34  1  0  0  0  0
 33 63  1  0  0  0  0
 33 64  1  0  0  0  0
 34 65  1  0  0  0  0
 34 66  1  0  0  0  0
 35 36  1  0  0  0  0
 35 67  1  0  0  0  0
 37 38  2  0  0  0  0
 38 39  1  0  0  0  0
 38 68  1  0  0  0  0
M  END
$$$$
