CHEMBL209908
 OpenBabel04072215363D

 80 85  0  0  0  0  0  0  0  0999 V2000
    2.3797    1.9113   -2.4051 C   0  0  0  0  0  0  0  0  0  0  0  0
    3.1404    1.1638   -1.3456 C   0  0  0  0  0  0  0  0  0  0  0  0
    3.8434    0.0099   -1.7263 C   0  0  0  0  0  0  0  0  0  0  0  0
    4.6957   -0.6410   -0.8337 C   0  0  0  0  0  0  0  0  0  0  0  0
    4.8696   -0.1450    0.4557 C   0  0  0  0  0  0  0  0  0  0  0  0
    4.1738    0.9956    0.8779 C   0  0  0  0  0  0  0  0  0  0  0  0
    4.4198    1.5347    2.2577 C   0  0  0  0  0  0  0  0  0  0  0  0
    3.2972    1.6313   -0.0266 C   0  0  0  0  0  0  0  0  0  0  0  0
    2.8092    2.9055    0.3582 O   0  0  0  0  0  0  0  0  0  0  0  0
    1.4699    3.2965    0.1996 C   0  0  0  0  0  0  0  0  0  0  0  0
    0.5435    2.4857    0.2258 O   0  0  0  0  0  0  0  0  0  0  0  0
    1.3371    4.6877    0.0659 N   0  0  0  0  0  0  0  0  0  0  0  0
    0.0598    5.3495    0.0059 C   0  0  0  0  0  0  0  0  0  0  0  0
   -1.0278    4.9320    0.7755 C   0  0  0  0  0  0  0  0  0  0  0  0
   -2.2247    5.6754    0.7967 C   0  0  0  0  0  0  0  0  0  0  0  0
   -2.3928    6.8478    0.0366 C   0  0  0  0  0  0  0  0  0  0  0  0
   -3.6339    7.6639    0.0930 C   0  0  0  0  0  0  0  0  0  0  0  0
   -4.3939    7.7775    1.2720 C   0  0  0  0  0  0  0  0  0  0  0  0
   -5.5488    8.5685    1.3277 C   0  0  0  0  0  0  0  0  0  0  0  0
   -5.9662    9.2783    0.2067 C   0  0  0  0  0  0  0  0  0  0  0  0
   -5.2359    9.1888   -0.9721 C   0  0  0  0  0  0  0  0  0  0  0  0
   -4.0916    8.3852   -1.0280 C   0  0  0  0  0  0  0  0  0  0  0  0
   -1.3155    7.2213   -0.7797 C   0  0  0  0  0  0  0  0  0  0  0  0
   -0.1253    6.4832   -0.8065 C   0  0  0  0  0  0  0  0  0  0  0  0
    2.4900    5.5062   -0.1175 C   0  0  0  0  0  0  0  0  0  0  0  0
    2.5892    6.6897    0.5917 C   0  0  0  0  0  0  0  0  0  0  0  0
    3.6804    7.4654    0.3225 C   0  0  0  0  0  0  0  0  0  0  0  0
    4.6077    7.1375   -0.5943 N   0  0  0  0  0  0  0  0  0  0  0  0
    4.4729    5.9639   -1.2144 C   0  0  0  0  0  0  0  0  0  0  0  0
    5.3976    5.6829   -2.2151 N   0  0  0  0  0  0  0  0  0  0  0  0
    5.8937    4.4539   -2.6528 C   0  0  0  0  0  0  0  0  0  0  0  0
    6.3396    4.3229   -3.9672 C   0  0  0  0  0  0  0  0  0  0  0  0
    6.7355    3.0764   -4.4745 C   0  0  0  0  0  0  0  0  0  0  0  0
    6.7429    1.9185   -3.6862 C   0  0  0  0  0  0  0  0  0  0  0  0
    7.1250    0.7014   -4.2225 N   0  0  0  0  0  0  0  0  0  0  0  0
    7.4970   -0.4478   -3.3819 C   0  0  0  0  0  0  0  0  0  0  0  0
    8.5448   -1.2964   -4.1417 C   0  0  0  0  0  0  0  0  0  0  0  0
    8.0588   -1.7610   -5.4636 N   0  0  0  0  0  0  0  0  0  0  0  0
    9.1175   -2.4806   -6.1677 C   0  0  0  0  0  0  0  0  0  0  0  0
    7.6088   -0.5928   -6.2598 C   0  0  0  0  0  0  0  0  0  0  0  0
    6.5610    0.2723   -5.5191 C   0  0  0  0  0  0  0  0  0  0  0  0
    6.4037    2.0953   -2.3441 C   0  0  0  0  0  0  0  0  0  0  0  0
    5.9468    3.3246   -1.8422 C   0  0  0  0  0  0  0  0  0  0  0  0
    3.4479    5.1224   -0.9833 N   0  0  0  0  0  0  0  0  0  0  0  0
    2.3428    1.3440   -3.3416 H   0  0  0  0  0  0  0  0  0  0  0  0
    2.8642    2.8677   -2.6220 H   0  0  0  0  0  0  0  0  0  0  0  0
    1.3420    2.0803   -2.1132 H   0  0  0  0  0  0  0  0  0  0  0  0
    3.7955   -0.3421   -2.7552 H   0  0  0  0  0  0  0  0  0  0  0  0
    5.2750   -1.4971   -1.1683 H   0  0  0  0  0  0  0  0  0  0  0  0
    5.5862   -0.6308    1.1142 H   0  0  0  0  0  0  0  0  0  0  0  0
    5.1558    0.9261    2.7966 H   0  0  0  0  0  0  0  0  0  0  0  0
    3.4938    1.5220    2.8399 H   0  0  0  0  0  0  0  0  0  0  0  0
    4.8139    2.5547    2.2115 H   0  0  0  0  0  0  0  0  0  0  0  0
   -0.9582    4.0528    1.4112 H   0  0  0  0  0  0  0  0  0  0  0  0
   -3.0304    5.3151    1.4334 H   0  0  0  0  0  0  0  0  0  0  0  0
   -4.0881    7.2617    2.1795 H   0  0  0  0  0  0  0  0  0  0  0  0
   -6.1176    8.6329    2.2519 H   0  0  0  0  0  0  0  0  0  0  0  0
   -6.8573    9.8987    0.2512 H   0  0  0  0  0  0  0  0  0  0  0  0
   -5.5532    9.7412   -1.8531 H   0  0  0  0  0  0  0  0  0  0  0  0
   -3.5617    8.3284   -1.9762 H   0  0  0  0  0  0  0  0  0  0  0  0
   -1.3716    8.1126   -1.4017 H   0  0  0  0  0  0  0  0  0  0  0  0
    0.6530    6.8148   -1.4928 H   0  0  0  0  0  0  0  0  0  0  0  0
    1.8532    6.9905    1.3246 H   0  0  0  0  0  0  0  0  0  0  0  0
    3.8421    8.4045    0.8410 H   0  0  0  0  0  0  0  0  0  0  0  0
    6.0022    6.4770   -2.3647 H   0  0  0  0  0  0  0  0  0  0  0  0
    6.3498    5.1841   -4.6284 H   0  0  0  0  0  0  0  0  0  0  0  0
    7.0692    3.0309   -5.5069 H   0  0  0  0  0  0  0  0  0  0  0  0
    6.6141   -1.0612   -3.1627 H   0  0  0  0  0  0  0  0  0  0  0  0
    7.9445   -0.1378   -2.4319 H   0  0  0  0  0  0  0  0  0  0  0  0
    8.8077   -2.1618   -3.5223 H   0  0  0  0  0  0  0  0  0  0  0  0
    9.4526   -0.6899   -4.2664 H   0  0  0  0  0  0  0  0  0  0  0  0
    9.4315   -3.3579   -5.5916 H   0  0  0  0  0  0  0  0  0  0  0  0
    9.9987   -1.8537   -6.3472 H   0  0  0  0  0  0  0  0  0  0  0  0
    8.7541   -2.8487   -7.1331 H   0  0  0  0  0  0  0  0  0  0  0  0
    7.1704   -0.9405   -7.2025 H   0  0  0  0  0  0  0  0  0  0  0  0
    8.4669    0.0464   -6.5092 H   0  0  0  0  0  0  0  0  0  0  0  0
    5.6474   -0.3147   -5.3485 H   0  0  0  0  0  0  0  0  0  0  0  0
    6.2796    1.1087   -6.1664 H   0  0  0  0  0  0  0  0  0  0  0  0
    6.4358    1.2643   -1.6504 H   0  0  0  0  0  0  0  0  0  0  0  0
    5.6352    3.3743   -0.8025 H   0  0  0  0  0  0  0  0  0  0  0  0
  1  2  1  0  0  0  0
  1 45  1  0  0  0  0
  1 46  1  0  0  0  0
  1 47  1  0  0  0  0
  2  3  1  0  0  0  0
  2  8  2  0  0  0  0
  3  4  2  0  0  0  0
  3 48  1  0  0  0  0
  4  5  1  0  0  0  0
  4 49  1  0  0  0  0
  5  6  2  0  0  0  0
  5 50  1  0  0  0  0
  6  7  1  0  0  0  0
  6  8  1  0  0  0  0
  7 51  1  0  0  0  0
  7 52  1  0  0  0  0
  7 53  1  0  0  0  0
  8  9  1  0  0  0  0
  9 10  1  0  0  0  0
 10 11  2  0  0  0  0
 10 12  1  0  0  0  0
 12 13  1  0  0  0  0
 12 25  1  0  0  0  0
 13 14  1  0  0  0  0
 13 24  2  0  0  0  0
 14 15  2  0  0  0  0
 14 54  1  0  0  0  0
 15 16  1  0  0  0  0
 15 55  1  0  0  0  0
 16 17  1  0  0  0  0
 16 23  2  0  0  0  0
 17 18  1  0  0  0  0
 17 22  2  0  0  0  0
 18 19  2  0  0  0  0
 18 56  1  0  0  0  0
 19 20  1  0  0  0  0
 19 57  1  0  0  0  0
 20 21  2  0  0  0  0
 20 58  1  0  0  0  0
 21 22  1  0  0  0  0
 21 59  1  0  0  0  0
 22 60  1  0  0  0  0
 23 24  1  0  0  0  0
 23 61  1  0  0  0  0
 24 62  1  0  0  0  0
 25 26  1  0  0  0  0
 25 44  2  0  0  0  0
 26 27  2  0  0  0  0
 26 63  1  0  0  0  0
 27 28  1  0  0  0  0
 27 64  1  0  0  0  0
 28 29  2  0  0  0  0
 29 30  1  0  0  0  0
 29 44  1  0  0  0  0
 30 31  1  0  0  0  0
 30 65  1  0  0  0  0
 31 32  1  0  0  0  0
 31 43  2  0  0  0  0
 32 33  2  0  0  0  0
 32 66  1  0  0  0  0
 33 34  1  0  0  0  0
 33 67  1  0  0  0  0
 34 35  1  0  0  0  0
 34 42  2  0  0  0  0
 35 36  1  0  0  0  0
 35 41  1  0  0  0  0
 36 37  1  0  0  0  0
 36 68  1  0  0  0  0
 36 69  1  0  0  0  0
 37 38  1  0  0  0  0
 37 70  1  0  0  0  0
 37 71  1  0  0  0  0
 38 39  1  0  0  0  0
 38 40  1  0  0  0  0
 39 72  1  0  0  0  0
 39 73  1  0  0  0  0
 39 74  1  0  0  0  0
 40 41  1  0  0  0  0
 40 75  1  0  0  0  0
 40 76  1  0  0  0  0
 41 77  1  0  0  0  0
 41 78  1  0  0  0  0
 42 43  1  0  0  0  0
 42 79  1  0  0  0  0
 43 80  1  0  0  0  0
M  END
$$$$
