CHEMBL458330
 OpenBabel04072215383D

 54 58  0  0  0  0  0  0  0  0999 V2000
   10.5845    0.1169    1.8423 C   0  0  0  0  0  0  0  0  0  0  0  0
    9.7888    0.5810    2.9415 O   0  0  0  0  0  0  0  0  0  0  0  0
    8.9489   -0.3490    3.4976 C   0  0  0  0  0  0  0  0  0  0  0  0
    9.2938   -1.7092    3.5218 C   0  0  0  0  0  0  0  0  0  0  0  0
    8.4246   -2.6970    3.9597 C   0  0  0  0  0  0  0  0  0  0  0  0
    8.8303   -3.9733    3.8500 N   0  0  0  0  0  0  0  0  0  0  0  0
    7.9857   -4.9441    4.2437 C   0  0  0  0  0  0  0  0  0  0  0  0
    6.7237   -4.7048    4.7391 C   0  0  0  0  0  0  0  0  0  0  0  0
    6.2927   -3.3803    4.8110 C   0  0  0  0  0  0  0  0  0  0  0  0
    5.0129   -3.0774    5.2509 O   0  0  0  0  0  0  0  0  0  0  0  0
    3.9500   -3.8483    4.8060 C   0  0  0  0  0  0  0  0  0  0  0  0
    2.8943   -4.0310    5.7028 C   0  0  0  0  0  0  0  0  0  0  0  0
    1.7526   -4.7715    5.3440 C   0  0  0  0  0  0  0  0  0  0  0  0
    1.6717   -5.3331    4.0522 C   0  0  0  0  0  0  0  0  0  0  0  0
    0.7346   -6.1310    3.3184 C   0  0  0  0  0  0  0  0  0  0  0  0
   -0.4843   -6.5098    3.7889 N   0  0  0  0  0  0  0  0  0  0  0  0
   -1.2695   -7.5984    3.3465 C   0  0  0  0  0  0  0  0  0  0  0  0
   -0.6784   -8.7806    2.8768 C   0  0  0  0  0  0  0  0  0  0  0  0
   -1.4520   -9.8409    2.4004 C   0  0  0  0  0  0  0  0  0  0  0  0
   -2.8368   -9.7209    2.3527 C   0  0  0  0  0  0  0  0  0  0  0  0
   -3.4434   -8.5420    2.7831 C   0  0  0  0  0  0  0  0  0  0  0  0
   -2.6645   -7.4839    3.2805 C   0  0  0  0  0  0  0  0  0  0  0  0
    1.2058   -6.4202    2.1013 N   0  0  0  0  0  0  0  0  0  0  0  0
    2.3685   -5.7650    2.0204 N   0  0  0  0  0  0  0  0  0  0  0  0
    3.0746   -5.7433    0.7618 C   0  0  0  0  0  0  0  0  0  0  0  0
    2.7356   -5.1264    3.1751 C   0  0  0  0  0  0  0  0  0  0  0  0
    3.8756   -4.3773    3.5106 C   0  0  0  0  0  0  0  0  0  0  0  0
    7.1637   -2.3279    4.4541 C   0  0  0  0  0  0  0  0  0  0  0  0
    6.8594   -0.9495    4.5476 C   0  0  0  0  0  0  0  0  0  0  0  0
    7.7332    0.0436    4.0669 C   0  0  0  0  0  0  0  0  0  0  0  0
    7.2172    1.3013    4.2209 O   0  0  0  0  0  0  0  0  0  0  0  0
    7.8689    2.4153    3.6308 C   0  0  0  0  0  0  0  0  0  0  0  0
   10.6724    0.9297    1.1194 H   0  0  0  0  0  0  0  0  0  0  0  0
   10.1411   -0.7334    1.3083 H   0  0  0  0  0  0  0  0  0  0  0  0
   11.5858   -0.1391    2.1988 H   0  0  0  0  0  0  0  0  0  0  0  0
   10.2707   -2.0353    3.1704 H   0  0  0  0  0  0  0  0  0  0  0  0
    8.3587   -5.9573    4.1292 H   0  0  0  0  0  0  0  0  0  0  0  0
    6.0924   -5.5337    5.0359 H   0  0  0  0  0  0  0  0  0  0  0  0
    2.9556   -3.5991    6.6993 H   0  0  0  0  0  0  0  0  0  0  0  0
    0.9508   -4.9168    6.0618 H   0  0  0  0  0  0  0  0  0  0  0  0
   -0.9190   -5.9724    4.5266 H   0  0  0  0  0  0  0  0  0  0  0  0
    0.4034   -8.8880    2.8949 H   0  0  0  0  0  0  0  0  0  0  0  0
   -0.9654  -10.7503    2.0591 H   0  0  0  0  0  0  0  0  0  0  0  0
   -3.4387  -10.5396    1.9671 H   0  0  0  0  0  0  0  0  0  0  0  0
   -4.5235   -8.4378    2.7169 H   0  0  0  0  0  0  0  0  0  0  0  0
   -3.1594   -6.5674    3.5767 H   0  0  0  0  0  0  0  0  0  0  0  0
    2.5319   -6.3438    0.0260 H   0  0  0  0  0  0  0  0  0  0  0  0
    4.0733   -6.1557    0.9170 H   0  0  0  0  0  0  0  0  0  0  0  0
    3.1285   -4.7055    0.4234 H   0  0  0  0  0  0  0  0  0  0  0  0
    4.6685   -4.2264    2.7866 H   0  0  0  0  0  0  0  0  0  0  0  0
    5.9132   -0.6371    4.9851 H   0  0  0  0  0  0  0  0  0  0  0  0
    7.1604    3.2510    3.6547 H   0  0  0  0  0  0  0  0  0  0  0  0
    8.1137    2.2481    2.5785 H   0  0  0  0  0  0  0  0  0  0  0  0
    8.7458    2.7126    4.2144 H   0  0  0  0  0  0  0  0  0  0  0  0
  1  2  1  0  0  0  0
  1 33  1  0  0  0  0
  1 34  1  0  0  0  0
  1 35  1  0  0  0  0
  2  3  1  0  0  0  0
  3  4  1  0  0  0  0
  3 30  2  0  0  0  0
  4  5  2  0  0  0  0
  4 36  1  0  0  0  0
  5  6  1  0  0  0  0
  5 28  1  0  0  0  0
  6  7  2  0  0  0  0
  7  8  1  0  0  0  0
  7 37  1  0  0  0  0
  8  9  2  0  0  0  0
  8 38  1  0  0  0  0
  9 10  1  0  0  0  0
  9 28  1  0  0  0  0
 10 11  1  0  0  0  0
 11 12  1  0  0  0  0
 11 27  2  0  0  0  0
 12 13  2  0  0  0  0
 12 39  1  0  0  0  0
 13 14  1  0  0  0  0
 13 40  1  0  0  0  0
 14 15  1  0  0  0  0
 14 26  2  0  0  0  0
 15 16  1  0  0  0  0
 15 23  2  0  0  0  0
 16 17  1  0  0  0  0
 16 41  1  0  0  0  0
 17 18  1  0  0  0  0
 17 22  2  0  0  0  0
 18 19  2  0  0  0  0
 18 42  1  0  0  0  0
 19 20  1  0  0  0  0
 19 43  1  0  0  0  0
 20 21  2  0  0  0  0
 20 44  1  0  0  0  0
 21 22  1  0  0  0  0
 21 45  1  0  0  0  0
 22 46  1  0  0  0  0
 23 24  1  0  0  0  0
 24 25  1  0  0  0  0
 24 26  1  0  0  0  0
 25 47  1  0  0  0  0
 25 48  1  0  0  0  0
 25 49  1  0  0  0  0
 26 27  1  0  0  0  0
 27 50  1  0  0  0  0
 28 29  2  0  0  0  0
 29 30  1  0  0  0  0
 29 51  1  0  0  0  0
 30 31  1  0  0  0  0
 31 32  1  0  0  0  0
 32 52  1  0  0  0  0
 32 53  1  0  0  0  0
 32 54  1  0  0  0  0
M  END
$$$$
