CHEMBL431038
 OpenBabel04072215383D

 48 51  0  0  0  0  0  0  0  0999 V2000
    2.7969    1.2882    0.6175 C   0  0  0  0  0  0  0  0  0  0  0  0
    2.3753    0.1771   -0.1643 O   0  0  0  0  0  0  0  0  0  0  0  0
    3.1301   -0.1219   -1.2634 C   0  0  0  0  0  0  0  0  0  0  0  0
    4.2698    0.5562   -1.6820 C   0  0  0  0  0  0  0  0  0  0  0  0
    4.9503    0.1427   -2.8347 C   0  0  0  0  0  0  0  0  0  0  0  0
    4.5052   -0.9438   -3.6117 C   0  0  0  0  0  0  0  0  0  0  0  0
    5.2046   -1.3398   -4.8520 C   0  0  0  0  0  0  0  0  0  0  0  0
    5.2820   -2.6609   -5.2956 C   0  0  0  0  0  0  0  0  0  0  0  0
    5.8903   -3.0664   -6.4394 N   0  0  0  0  0  0  0  0  0  0  0  0
    6.4803   -2.1065   -7.1890 C   0  0  0  0  0  0  0  0  0  0  0  0
    6.4956   -0.7620   -6.8517 C   0  0  0  0  0  0  0  0  0  0  0  0
    7.1658    0.2104   -7.6949 C   0  0  0  0  0  0  0  0  0  0  0  0
    7.8039    0.0465   -8.8326 N   0  0  0  0  0  0  0  0  0  0  0  0
    8.1985    1.3258   -9.1839 C   0  0  0  0  0  0  0  0  0  0  0  0
    8.8243    1.6087  -10.4658 C   0  0  0  0  0  0  0  0  0  0  0  0
    8.5513    0.7496  -11.5419 C   0  0  0  0  0  0  0  0  0  0  0  0
    9.0081    1.0421  -12.8277 C   0  0  0  0  0  0  0  0  0  0  0  0
    9.7561    2.1937  -13.0510 C   0  0  0  0  0  0  0  0  0  0  0  0
   10.0925    3.0211  -11.9814 C   0  0  0  0  0  0  0  0  0  0  0  0
    9.6469    2.7196  -10.6900 C   0  0  0  0  0  0  0  0  0  0  0  0
    7.7774    2.2262   -8.2141 C   0  0  0  0  0  0  0  0  0  0  0  0
    7.8523    3.5875   -8.0901 N   0  0  0  0  0  0  0  0  0  0  0  0
    7.4014    4.3870   -7.0879 C   0  0  0  0  0  0  0  0  0  0  0  0
    6.6603    3.8632   -5.8865 C   0  0  0  0  0  0  0  0  0  0  0  0
    7.5904    5.6026   -7.2010 O   0  0  0  0  0  0  0  0  0  0  0  0
    7.1248    1.5067   -7.2637 O   0  0  0  0  0  0  0  0  0  0  0  0
    5.8316   -0.3918   -5.6743 C   0  0  0  0  0  0  0  0  0  0  0  0
    3.3547   -1.6148   -3.1677 C   0  0  0  0  0  0  0  0  0  0  0  0
    2.6822   -1.2119   -2.0076 C   0  0  0  0  0  0  0  0  0  0  0  0
    2.1034    1.3900    1.4575 H   0  0  0  0  0  0  0  0  0  0  0  0
    2.7569    2.2164    0.0374 H   0  0  0  0  0  0  0  0  0  0  0  0
    3.7977    1.1229    1.0303 H   0  0  0  0  0  0  0  0  0  0  0  0
    4.6604    1.4111   -1.1403 H   0  0  0  0  0  0  0  0  0  0  0  0
    5.8478    0.6924   -3.1120 H   0  0  0  0  0  0  0  0  0  0  0  0
    4.8471   -3.4758   -4.7221 H   0  0  0  0  0  0  0  0  0  0  0  0
    6.9545   -2.4648   -8.1003 H   0  0  0  0  0  0  0  0  0  0  0  0
    7.9555   -0.1489  -11.3873 H   0  0  0  0  0  0  0  0  0  0  0  0
    8.7642    0.3776  -13.6522 H   0  0  0  0  0  0  0  0  0  0  0  0
   10.0849    2.4405  -14.0574 H   0  0  0  0  0  0  0  0  0  0  0  0
   10.6996    3.9066  -12.1544 H   0  0  0  0  0  0  0  0  0  0  0  0
    9.9643    3.3662   -9.8779 H   0  0  0  0  0  0  0  0  0  0  0  0
    8.2928    4.1077   -8.8404 H   0  0  0  0  0  0  0  0  0  0  0  0
    7.0305    2.9068   -5.5279 H   0  0  0  0  0  0  0  0  0  0  0  0
    5.5916    3.8055   -6.1175 H   0  0  0  0  0  0  0  0  0  0  0  0
    6.7987    4.5673   -5.0565 H   0  0  0  0  0  0  0  0  0  0  0  0
    5.7896    0.6605   -5.4030 H   0  0  0  0  0  0  0  0  0  0  0  0
    2.9447   -2.4533   -3.7258 H   0  0  0  0  0  0  0  0  0  0  0  0
    1.7926   -1.7509   -1.6893 H   0  0  0  0  0  0  0  0  0  0  0  0
  1  2  1  0  0  0  0
  1 30  1  0  0  0  0
  1 31  1  0  0  0  0
  1 32  1  0  0  0  0
  2  3  1  0  0  0  0
  3  4  1  0  0  0  0
  3 29  2  0  0  0  0
  4  5  2  0  0  0  0
  4 33  1  0  0  0  0
  5  6  1  0  0  0  0
  5 34  1  0  0  0  0
  6  7  1  0  0  0  0
  6 28  2  0  0  0  0
  7  8  1  0  0  0  0
  7 27  2  0  0  0  0
  8  9  2  0  0  0  0
  8 35  1  0  0  0  0
  9 10  1  0  0  0  0
 10 11  2  0  0  0  0
 10 36  1  0  0  0  0
 11 12  1  0  0  0  0
 11 27  1  0  0  0  0
 12 13  2  0  0  0  0
 12 26  1  0  0  0  0
 13 14  1  0  0  0  0
 14 15  1  0  0  0  0
 14 21  2  0  0  0  0
 15 16  1  0  0  0  0
 15 20  2  0  0  0  0
 16 17  2  0  0  0  0
 16 37  1  0  0  0  0
 17 18  1  0  0  0  0
 17 38  1  0  0  0  0
 18 19  2  0  0  0  0
 18 39  1  0  0  0  0
 19 20  1  0  0  0  0
 19 40  1  0  0  0  0
 20 41  1  0  0  0  0
 21 22  1  0  0  0  0
 21 26  1  0  0  0  0
 22 23  1  0  0  0  0
 22 42  1  0  0  0  0
 23 24  1  0  0  0  0
 23 25  2  0  0  0  0
 24 43  1  0  0  0  0
 24 44  1  0  0  0  0
 24 45  1  0  0  0  0
 27 46  1  0  0  0  0
 28 29  1  0  0  0  0
 28 47  1  0  0  0  0
 29 48  1  0  0  0  0
M  END
$$$$
