CHEMBL3401984
 OpenBabel04072215363D

 53 57  0  0  1  0  0  0  0  0999 V2000
    0.9301   -1.6744   -2.2138 O   0  0  0  0  0  0  0  0  0  0  0  0
    2.3487   -1.7891   -2.1051 C   0  0  0  0  0  0  0  0  0  0  0  0
    2.8944   -0.7246   -1.1264 C   0  0  3  0  0  0  0  0  0  0  0  0
    2.3472   -0.9184    0.1778 O   0  0  0  0  0  0  0  0  0  0  0  0
    4.4444   -0.6972   -1.0694 C   0  0  1  0  0  0  0  0  0  0  0  0
    5.0316    0.4207   -0.1475 C   0  0  3  0  0  0  0  0  0  0  0  0
    4.7456    0.1759    1.3473 C   0  0  0  0  0  0  0  0  0  0  0  0
    5.1146   -1.2638    1.7161 C   0  0  0  0  0  0  0  0  0  0  0  0
    5.9715   -1.8799    0.5955 C   0  0  3  0  0  0  0  0  0  0  0  0
    7.1280   -0.9145    0.2788 C   0  0  0  0  0  0  0  0  0  0  0  0
    6.5701    0.3903   -0.3057 C   0  0  0  0  0  0  0  0  0  0  0  0
    5.0660   -2.0679   -0.6554 C   0  0  2  0  0  0  0  0  0  0  0  0
    5.8322   -2.6054   -1.7990 N   0  0  0  0  0  0  0  0  0  0  0  0
    6.3929   -3.8857   -1.5891 C   0  0  0  0  0  0  0  0  0  0  0  0
    5.7578   -4.7574   -0.7858 N   0  0  0  0  0  0  0  0  0  0  0  0
    6.3423   -5.9543   -0.5830 C   0  0  0  0  0  0  0  0  0  0  0  0
    5.7380   -6.8119    0.4296 C   0  0  0  0  0  0  0  0  0  0  0  0
    6.2206   -8.0693    0.7570 C   0  0  0  0  0  0  0  0  0  0  0  0
    5.4774   -8.5630    1.7974 N   0  0  0  0  0  0  0  0  0  0  0  0
    4.5208   -7.6530    2.1520 C   0  0  0  0  0  0  0  0  0  0  0  0
    3.6450   -7.8340    3.1576 N   0  0  0  0  0  0  0  0  0  0  0  0
    2.8069   -6.7760    3.3169 C   0  0  0  0  0  0  0  0  0  0  0  0
    2.8179   -5.6222    2.5494 C   0  0  0  0  0  0  0  0  0  0  0  0
    1.9422   -4.6383    2.7925 F   0  0  0  0  0  0  0  0  0  0  0  0
    3.7402   -5.4886    1.5233 C   0  0  0  0  0  0  0  0  0  0  0  0
    4.6398   -6.5495    1.3168 C   0  0  0  0  0  0  0  0  0  0  0  0
    7.4922   -6.3641   -1.1522 N   0  0  0  0  0  0  0  0  0  0  0  0
    8.0857   -5.4762   -1.9748 C   0  0  0  0  0  0  0  0  0  0  0  0
    7.5745   -4.2277   -2.2293 C   0  0  0  0  0  0  0  0  0  0  0  0
    8.2417   -3.3498   -2.9917 F   0  0  0  0  0  0  0  0  0  0  0  0
    0.6244   -2.4047   -2.7792 H   0  0  0  0  0  0  0  0  0  0  0  0
    2.7803   -1.6613   -3.1021 H   0  0  0  0  0  0  0  0  0  0  0  0
    2.5517   -2.8023   -1.7482 H   0  0  0  0  0  0  0  0  0  0  0  0
    2.5381    0.2589   -1.4567 H   0  0  0  0  0  0  0  0  0  0  0  0
    2.1924   -1.8660    0.3218 H   0  0  0  0  0  0  0  0  0  0  0  0
    4.7632   -0.4558   -2.0946 H   0  0  0  0  0  0  0  0  0  0  0  0
    4.6510    1.4025   -0.4503 H   0  0  0  0  0  0  0  0  0  0  0  0
    3.7083    0.3948    1.6139 H   0  0  0  0  0  0  0  0  0  0  0  0
    5.3495    0.8663    1.9513 H   0  0  0  0  0  0  0  0  0  0  0  0
    4.2103   -1.8628    1.8733 H   0  0  0  0  0  0  0  0  0  0  0  0
    5.6616   -1.2761    2.6673 H   0  0  0  0  0  0  0  0  0  0  0  0
    6.3716   -2.8378    0.9437 H   0  0  0  0  0  0  0  0  0  0  0  0
    7.8444   -1.3634   -0.4178 H   0  0  0  0  0  0  0  0  0  0  0  0
    7.6914   -0.7039    1.1961 H   0  0  0  0  0  0  0  0  0  0  0  0
    6.8456    0.4782   -1.3631 H   0  0  0  0  0  0  0  0  0  0  0  0
    7.0278    1.2453    0.2076 H   0  0  0  0  0  0  0  0  0  0  0  0
    4.2635   -2.7688   -0.4059 H   0  0  0  0  0  0  0  0  0  0  0  0
    6.5681   -1.9670   -2.1029 H   0  0  0  0  0  0  0  0  0  0  0  0
    7.0457   -8.6432    0.3510 H   0  0  0  0  0  0  0  0  0  0  0  0
    5.6110   -9.4475    2.2658 H   0  0  0  0  0  0  0  0  0  0  0  0
    2.0864   -6.8775    4.1227 H   0  0  0  0  0  0  0  0  0  0  0  0
    3.7583   -4.5912    0.9171 H   0  0  0  0  0  0  0  0  0  0  0  0
    9.0250   -5.7931   -2.4129 H   0  0  0  0  0  0  0  0  0  0  0  0
  1  2  1  0  0  0  0
  1 31  1  0  0  0  0
  2  3  1  0  0  0  0
  2 32  1  0  0  0  0
  2 33  1  0  0  0  0
  3  4  1  0  0  0  0
  3  5  1  0  0  0  0
  3 34  1  0  0  0  0
  4 35  1  0  0  0  0
  5  6  1  0  0  0  0
  5 12  1  0  0  0  0
  5 36  1  6  0  0  0
  6  7  1  0  0  0  0
  6 11  1  0  0  0  0
  6 37  1  0  0  0  0
  7  8  1  0  0  0  0
  7 38  1  0  0  0  0
  7 39  1  0  0  0  0
  8  9  1  0  0  0  0
  8 40  1  0  0  0  0
  8 41  1  0  0  0  0
  9 10  1  0  0  0  0
  9 12  1  0  0  0  0
  9 42  1  0  0  0  0
 10 11  1  0  0  0  0
 10 43  1  0  0  0  0
 10 44  1  0  0  0  0
 11 45  1  0  0  0  0
 11 46  1  0  0  0  0
 12 13  1  0  0  0  0
 12 47  1  1  0  0  0
 13 14  1  0  0  0  0
 13 48  1  0  0  0  0
 14 15  1  0  0  0  0
 14 29  2  0  0  0  0
 15 16  2  0  0  0  0
 16 17  1  0  0  0  0
 16 27  1  0  0  0  0
 17 18  2  0  0  0  0
 17 26  1  0  0  0  0
 18 19  1  0  0  0  0
 18 49  1  0  0  0  0
 19 20  1  0  0  0  0
 19 50  1  0  0  0  0
 20 21  1  0  0  0  0
 20 26  2  0  0  0  0
 21 22  2  0  0  0  0
 22 23  1  0  0  0  0
 22 51  1  0  0  0  0
 23 24  1  0  0  0  0
 23 25  2  0  0  0  0
 25 26  1  0  0  0  0
 25 52  1  0  0  0  0
 27 28  2  0  0  0  0
 28 29  1  0  0  0  0
 28 53  1  0  0  0  0
 29 30  1  0  0  0  0
M  END
$$$$
