CHEMBL3694720
 OpenBabel04072215373D

 51 54  0  0  0  0  0  0  0  0999 V2000
    1.2289    0.7451    2.0835 N   0  0  0  0  0  0  0  0  0  0  0  0
    0.4143    0.4193    0.9969 C   0  0  0  0  0  0  0  0  0  0  0  0
   -0.1385   -0.8016    1.0531 N   0  0  0  0  0  0  0  0  0  0  0  0
   -0.9644   -1.1529    0.0517 C   0  0  0  0  0  0  0  0  0  0  0  0
   -1.6751   -2.4611    0.1316 C   0  0  0  0  0  0  0  0  0  0  0  0
   -2.6499   -2.8746   -0.8893 C   0  0  0  0  0  0  0  0  0  0  0  0
   -3.3157   -4.0320   -0.7647 C   0  0  0  0  0  0  0  0  0  0  0  0
   -3.0505   -4.8813    0.3114 N   0  0  0  0  0  0  0  0  0  0  0  0
   -3.5314   -6.1610    0.6210 C   0  0  0  0  0  0  0  0  0  0  0  0
   -4.3824   -7.0139   -0.2258 C   0  0  0  0  0  0  0  0  0  0  0  0
   -4.2387   -6.9759   -1.6186 C   0  0  0  0  0  0  0  0  0  0  0  0
   -5.0532   -7.7295   -2.4493 C   0  0  0  0  0  0  0  0  0  0  0  0
   -5.9718   -8.6128   -1.8989 C   0  0  0  0  0  0  0  0  0  0  0  0
   -6.0836   -8.7706   -0.5163 C   0  0  0  0  0  0  0  0  0  0  0  0
   -6.9442   -9.7434    0.0641 N   0  0  0  0  0  0  0  0  0  0  0  0
   -7.6768  -10.6865   -0.6306 C   0  0  0  0  0  0  0  0  0  0  0  0
   -7.7085  -10.8541   -1.8458 O   0  0  0  0  0  0  0  0  0  0  0  0
   -8.4707  -11.4625    0.1817 N   0  0  0  0  0  0  0  0  0  0  0  0
   -9.2981  -12.5009   -0.4575 C   0  0  0  0  0  0  0  0  0  0  0  0
   -8.5750  -13.7888   -0.8848 C   0  0  0  0  0  0  0  0  0  0  0  0
   -7.3053  -13.8399   -0.4212 F   0  0  0  0  0  0  0  0  0  0  0  0
   -9.2209  -14.8675   -0.3709 F   0  0  0  0  0  0  0  0  0  0  0  0
   -8.5434  -13.9467   -2.2242 F   0  0  0  0  0  0  0  0  0  0  0  0
   -5.3046   -7.9395    0.3179 C   0  0  0  0  0  0  0  0  0  0  0  0
   -2.9560   -6.4299    1.8537 C   0  0  0  0  0  0  0  0  0  0  0  0
   -2.1172   -5.4271    2.2727 N   0  0  0  0  0  0  0  0  0  0  0  0
   -2.1592   -4.5231    1.3215 C   0  0  0  0  0  0  0  0  0  0  0  0
   -1.4645   -3.2807    1.1917 C   0  0  0  0  0  0  0  0  0  0  0  0
   -1.2438   -0.3704   -1.0046 N   0  0  0  0  0  0  0  0  0  0  0  0
   -0.6756    0.8482   -1.0102 C   0  0  0  0  0  0  0  0  0  0  0  0
    0.1598    1.3235   -0.0173 C   0  0  0  0  0  0  0  0  0  0  0  0
    0.6824    2.7258   -0.1205 C   0  0  0  0  0  0  0  0  0  0  0  0
    1.4907    3.1520    0.9678 O   0  0  0  0  0  0  0  0  0  0  0  0
    1.3113   -0.0926    2.6575 H   0  0  0  0  0  0  0  0  0  0  0  0
    2.1439    1.0624    1.7656 H   0  0  0  0  0  0  0  0  0  0  0  0
   -2.8270   -2.2175   -1.7356 H   0  0  0  0  0  0  0  0  0  0  0  0
   -4.0616   -4.3320   -1.4904 H   0  0  0  0  0  0  0  0  0  0  0  0
   -3.4767   -6.3631   -2.0911 H   0  0  0  0  0  0  0  0  0  0  0  0
   -4.9620   -7.6506   -3.5288 H   0  0  0  0  0  0  0  0  0  0  0  0
   -6.5799   -9.1749   -2.5975 H   0  0  0  0  0  0  0  0  0  0  0  0
   -6.9909   -9.7726    1.0691 H   0  0  0  0  0  0  0  0  0  0  0  0
   -8.1246  -11.6569    1.1095 H   0  0  0  0  0  0  0  0  0  0  0  0
   -9.7817  -12.0627   -1.3400 H   0  0  0  0  0  0  0  0  0  0  0  0
  -10.0929  -12.7420    0.2537 H   0  0  0  0  0  0  0  0  0  0  0  0
   -5.3993   -8.0171    1.3975 H   0  0  0  0  0  0  0  0  0  0  0  0
   -3.0761   -7.3257    2.4511 H   0  0  0  0  0  0  0  0  0  0  0  0
   -0.7730   -3.0273    1.9884 H   0  0  0  0  0  0  0  0  0  0  0  0
   -0.9372    1.4628   -1.8688 H   0  0  0  0  0  0  0  0  0  0  0  0
   -0.1623    3.4213   -0.1802 H   0  0  0  0  0  0  0  0  0  0  0  0
    1.2788    2.8319   -1.0324 H   0  0  0  0  0  0  0  0  0  0  0  0
    1.0724    2.8029    1.7807 H   0  0  0  0  0  0  0  0  0  0  0  0
  1  2  1  0  0  0  0
  1 34  1  0  0  0  0
  1 35  1  0  0  0  0
  2  3  1  0  0  0  0
  2 31  2  0  0  0  0
  3  4  2  0  0  0  0
  4  5  1  0  0  0  0
  4 29  1  0  0  0  0
  5  6  1  0  0  0  0
  5 28  2  0  0  0  0
  6  7  2  0  0  0  0
  6 36  1  0  0  0  0
  7  8  1  0  0  0  0
  7 37  1  0  0  0  0
  8  9  1  0  0  0  0
  8 27  1  0  0  0  0
  9 10  1  0  0  0  0
  9 25  2  0  0  0  0
 10 11  1  0  0  0  0
 10 24  2  0  0  0  0
 11 12  2  0  0  0  0
 11 38  1  0  0  0  0
 12 13  1  0  0  0  0
 12 39  1  0  0  0  0
 13 14  2  0  0  0  0
 13 40  1  0  0  0  0
 14 15  1  0  0  0  0
 14 24  1  0  0  0  0
 15 16  1  0  0  0  0
 15 41  1  0  0  0  0
 16 17  2  0  0  0  0
 16 18  1  0  0  0  0
 18 19  1  0  0  0  0
 18 42  1  0  0  0  0
 19 20  1  0  0  0  0
 19 43  1  0  0  0  0
 19 44  1  0  0  0  0
 20 21  1  0  0  0  0
 20 22  1  0  0  0  0
 20 23  1  0  0  0  0
 24 45  1  0  0  0  0
 25 26  1  0  0  0  0
 25 46  1  0  0  0  0
 26 27  2  0  0  0  0
 27 28  1  0  0  0  0
 28 47  1  0  0  0  0
 29 30  2  0  0  0  0
 30 31  1  0  0  0  0
 30 48  1  0  0  0  0
 31 32  1  0  0  0  0
 32 33  1  0  0  0  0
 32 49  1  0  0  0  0
 32 50  1  0  0  0  0
 33 51  1  0  0  0  0
M  END
$$$$
