CHEMBL347537
 OpenBabel04072215363D

 55 59  0  0  0  0  0  0  0  0999 V2000
    1.2824   -0.0418   -0.0587 O   0  0  0  0  0  0  0  0  0  0  0  0
    2.4282   -0.3822    0.2367 C   0  0  0  0  0  0  0  0  0  0  0  0
    3.0398   -1.5670   -0.1646 N   0  0  0  0  0  0  0  0  0  0  0  0
    2.4232   -2.5148   -1.0306 C   0  0  0  0  0  0  0  0  0  0  0  0
    1.3233   -2.1462   -1.8146 C   0  0  0  0  0  0  0  0  0  0  0  0
    0.6068   -3.0811   -2.5352 C   0  0  0  0  0  0  0  0  0  0  0  0
    1.0544   -4.3892   -2.5710 C   0  0  0  0  0  0  0  0  0  0  0  0
    2.2342   -4.8106   -1.9086 C   0  0  0  0  0  0  0  0  0  0  0  0
    2.6692   -6.2235   -2.1593 C   0  0  0  0  0  0  0  0  0  0  0  0
    1.6577   -7.1976   -2.2873 C   0  0  0  0  0  0  0  0  0  0  0  0
    1.7850   -8.4234   -2.8384 N   0  0  0  0  0  0  0  0  0  0  0  0
    3.0238   -8.7615   -3.2228 C   0  0  0  0  0  0  0  0  0  0  0  0
    4.1533   -7.9812   -2.9983 C   0  0  0  0  0  0  0  0  0  0  0  0
    5.4194   -8.5065   -3.3016 C   0  0  0  0  0  0  0  0  0  0  0  0
    6.5680   -7.7669   -3.0589 C   0  0  0  0  0  0  0  0  0  0  0  0
    6.4525   -6.4716   -2.5745 C   0  0  0  0  0  0  0  0  0  0  0  0
    5.1875   -5.9223   -2.3154 C   0  0  0  0  0  0  0  0  0  0  0  0
    3.9936   -6.6705   -2.4670 C   0  0  0  0  0  0  0  0  0  0  0  0
    2.8911   -3.8465   -1.1050 C   0  0  0  0  0  0  0  0  0  0  0  0
    3.1644    0.5563    1.1301 C   0  0  0  0  0  0  0  0  0  0  0  0
    2.7042    1.8930    1.0717 C   0  0  0  0  0  0  0  0  0  0  0  0
    3.1813    2.8666    1.9359 C   0  0  0  0  0  0  0  0  0  0  0  0
    4.1074    2.5101    2.9009 C   0  0  0  0  0  0  0  0  0  0  0  0
    4.5907    1.1994    2.9494 C   0  0  0  0  0  0  0  0  0  0  0  0
    4.1832    0.2008    2.0341 C   0  0  0  0  0  0  0  0  0  0  0  0
    4.6619   -1.1373    2.1311 N   0  0  0  0  0  0  0  0  0  0  0  0
    6.0202   -1.2607    2.6854 C   0  0  0  0  0  0  0  0  0  0  0  0
    6.4788   -2.6896    2.7256 C   0  0  0  0  0  0  0  0  0  0  0  0
    6.5885   -3.4527    1.5610 C   0  0  0  0  0  0  0  0  0  0  0  0
    7.1024   -4.7457    1.6609 C   0  0  0  0  0  0  0  0  0  0  0  0
    7.5133   -5.3019    2.8171 N   0  0  0  0  0  0  0  0  0  0  0  0
    7.4000   -4.5490    3.9280 C   0  0  0  0  0  0  0  0  0  0  0  0
    6.8974   -3.2616    3.9328 C   0  0  0  0  0  0  0  0  0  0  0  0
    3.9005   -1.8107    0.3196 H   0  0  0  0  0  0  0  0  0  0  0  0
    0.9813   -1.1193   -1.8849 H   0  0  0  0  0  0  0  0  0  0  0  0
   -0.2886   -2.7864   -3.0744 H   0  0  0  0  0  0  0  0  0  0  0  0
    0.4646   -5.0824   -3.1686 H   0  0  0  0  0  0  0  0  0  0  0  0
    0.6354   -6.9839   -1.9768 H   0  0  0  0  0  0  0  0  0  0  0  0
    3.0884   -9.7230   -3.7269 H   0  0  0  0  0  0  0  0  0  0  0  0
    5.5187   -9.5140   -3.7049 H   0  0  0  0  0  0  0  0  0  0  0  0
    7.5460   -8.1999   -3.2523 H   0  0  0  0  0  0  0  0  0  0  0  0
    7.3489   -5.8827   -2.3971 H   0  0  0  0  0  0  0  0  0  0  0  0
    5.1653   -4.8975   -1.9633 H   0  0  0  0  0  0  0  0  0  0  0  0
    3.7507   -4.1343   -0.5066 H   0  0  0  0  0  0  0  0  0  0  0  0
    1.9360    2.1762    0.3507 H   0  0  0  0  0  0  0  0  0  0  0  0
    2.7980    3.8827    1.8871 H   0  0  0  0  0  0  0  0  0  0  0  0
    4.4508    3.2456    3.6251 H   0  0  0  0  0  0  0  0  0  0  0  0
    5.2863    0.9876    3.7555 H   0  0  0  0  0  0  0  0  0  0  0  0
    4.0070   -1.6590    2.7211 H   0  0  0  0  0  0  0  0  0  0  0  0
    6.0480   -0.8828    3.7147 H   0  0  0  0  0  0  0  0  0  0  0  0
    6.7307   -0.6803    2.0910 H   0  0  0  0  0  0  0  0  0  0  0  0
    6.2922   -3.0548    0.5970 H   0  0  0  0  0  0  0  0  0  0  0  0
    7.2066   -5.3649    0.7816 H   0  0  0  0  0  0  0  0  0  0  0  0
    7.7492   -5.0195    4.8435 H   0  0  0  0  0  0  0  0  0  0  0  0
    6.8541   -2.7086    4.8701 H   0  0  0  0  0  0  0  0  0  0  0  0
  1  2  2  0  0  0  0
  2  3  1  0  0  0  0
  2 20  1  0  0  0  0
  3  4  1  0  0  0  0
  3 34  1  0  0  0  0
  4  5  1  0  0  0  0
  4 19  2  0  0  0  0
  5  6  2  0  0  0  0
  5 35  1  0  0  0  0
  6  7  1  0  0  0  0
  6 36  1  0  0  0  0
  7  8  2  0  0  0  0
  7 37  1  0  0  0  0
  8  9  1  0  0  0  0
  8 19  1  0  0  0  0
  9 10  1  0  0  0  0
  9 18  2  0  0  0  0
 10 11  2  0  0  0  0
 10 38  1  0  0  0  0
 11 12  1  0  0  0  0
 12 13  2  0  0  0  0
 12 39  1  0  0  0  0
 13 14  1  0  0  0  0
 13 18  1  0  0  0  0
 14 15  2  0  0  0  0
 14 40  1  0  0  0  0
 15 16  1  0  0  0  0
 15 41  1  0  0  0  0
 16 17  2  0  0  0  0
 16 42  1  0  0  0  0
 17 18  1  0  0  0  0
 17 43  1  0  0  0  0
 19 44  1  0  0  0  0
 20 21  1  0  0  0  0
 20 25  2  0  0  0  0
 21 22  2  0  0  0  0
 21 45  1  0  0  0  0
 22 23  1  0  0  0  0
 22 46  1  0  0  0  0
 23 24  2  0  0  0  0
 23 47  1  0  0  0  0
 24 25  1  0  0  0  0
 24 48  1  0  0  0  0
 25 26  1  0  0  0  0
 26 27  1  0  0  0  0
 26 49  1  0  0  0  0
 27 28  1  0  0  0  0
 27 50  1  0  0  0  0
 27 51  1  0  0  0  0
 28 29  1  0  0  0  0
 28 33  2  0  0  0  0
 29 30  2  0  0  0  0
 29 52  1  0  0  0  0
 30 31  1  0  0  0  0
 30 53  1  0  0  0  0
 31 32  2  0  0  0  0
 32 33  1  0  0  0  0
 32 54  1  0  0  0  0
 33 55  1  0  0  0  0
M  END
$$$$
