CHEMBL3896103
 OpenBabel04072215373D

 57 61  0  0  0  0  0  0  0  0999 V2000
    1.2748   -2.1554   -2.7138 C   0  0  0  0  0  0  0  0  0  0  0  0
   -0.0943   -1.7498   -2.3063 C   0  0  0  0  0  0  0  0  0  0  0  0
   -1.2418   -2.4988   -2.1308 C   0  0  0  0  0  0  0  0  0  0  0  0
   -2.3757   -1.7976   -1.7392 N   0  0  0  0  0  0  0  0  0  0  0  0
   -2.0665   -0.5180   -1.6364 C   0  0  0  0  0  0  0  0  0  0  0  0
   -2.9943    0.5455   -1.2580 C   0  0  0  0  0  0  0  0  0  0  0  0
   -2.6272    1.7174   -1.1752 O   0  0  0  0  0  0  0  0  0  0  0  0
   -4.2936    0.1196   -0.9675 N   0  0  0  0  0  0  0  0  0  0  0  0
   -5.3618    0.9797   -0.5930 C   0  0  0  0  0  0  0  0  0  0  0  0
   -5.3182    2.3579   -0.8063 C   0  0  0  0  0  0  0  0  0  0  0  0
   -6.3407    3.1887   -0.3620 C   0  0  0  0  0  0  0  0  0  0  0  0
   -7.4418    2.6374    0.2800 C   0  0  0  0  0  0  0  0  0  0  0  0
   -7.5713    1.2485    0.4506 C   0  0  0  0  0  0  0  0  0  0  0  0
   -8.7504    0.7392    1.0425 N   0  0  0  0  0  0  0  0  0  0  0  0
   -8.6314   -0.4780    1.8565 C   0  0  0  0  0  0  0  0  0  0  0  0
  -10.0856    1.1720    0.7822 C   0  0  0  0  0  0  0  0  0  0  0  0
  -10.4287    1.8461   -0.4138 C   0  0  0  0  0  0  0  0  0  0  0  0
  -11.7377    2.3169   -0.6868 C   0  0  0  0  0  0  0  0  0  0  0  0
  -12.7643    1.9465    0.1986 C   0  0  0  0  0  0  0  0  0  0  0  0
  -14.1712    2.1349    0.4190 C   0  0  0  0  0  0  0  0  0  0  0  0
  -14.8074    3.2240    1.1631 C   0  0  0  0  0  0  0  0  0  0  0  0
  -14.1396    4.0444    1.9868 C   0  0  0  0  0  0  0  0  0  0  0  0
  -14.5496    4.3215    3.3825 C   0  0  0  0  0  0  0  0  0  0  0  0
  -15.0614    3.2946    4.1978 C   0  0  0  0  0  0  0  0  0  0  0  0
  -15.1867    3.4647    5.5838 C   0  0  0  0  0  0  0  0  0  0  0  0
  -14.8066    4.6665    6.1714 C   0  0  0  0  0  0  0  0  0  0  0  0
  -14.3170    5.7039    5.3755 C   0  0  0  0  0  0  0  0  0  0  0  0
  -14.1847    5.5297    3.9892 C   0  0  0  0  0  0  0  0  0  0  0  0
  -14.6375    0.9307    0.8201 N   0  0  0  0  0  0  0  0  0  0  0  0
  -13.6138    0.5166    1.5954 N   0  0  0  0  0  0  0  0  0  0  0  0
  -12.4253    1.0939    1.2404 C   0  0  0  0  0  0  0  0  0  0  0  0
  -11.1247    0.8595    1.6712 C   0  0  0  0  0  0  0  0  0  0  0  0
   -6.5085    0.4299    0.0061 C   0  0  0  0  0  0  0  0  0  0  0  0
   -0.4304   -0.1096   -1.9729 S   0  0  0  0  0  0  0  0  0  0  0  0
    1.3201   -3.2251   -2.9385 H   0  0  0  0  0  0  0  0  0  0  0  0
    1.9939   -1.9451   -1.9144 H   0  0  0  0  0  0  0  0  0  0  0  0
    1.5892   -1.6084   -3.6098 H   0  0  0  0  0  0  0  0  0  0  0  0
   -1.3097   -3.5704   -2.2780 H   0  0  0  0  0  0  0  0  0  0  0  0
   -4.4337   -0.8818   -0.9201 H   0  0  0  0  0  0  0  0  0  0  0  0
   -4.5005    2.8357   -1.3379 H   0  0  0  0  0  0  0  0  0  0  0  0
   -6.2764    4.2615   -0.5178 H   0  0  0  0  0  0  0  0  0  0  0  0
   -8.2164    3.3067    0.6480 H   0  0  0  0  0  0  0  0  0  0  0  0
   -7.6007   -0.8053    2.0209 H   0  0  0  0  0  0  0  0  0  0  0  0
   -9.1762   -1.3053    1.3855 H   0  0  0  0  0  0  0  0  0  0  0  0
   -9.0291   -0.3224    2.8664 H   0  0  0  0  0  0  0  0  0  0  0  0
   -9.6707    1.9845   -1.1844 H   0  0  0  0  0  0  0  0  0  0  0  0
  -11.9494    2.8261   -1.6236 H   0  0  0  0  0  0  0  0  0  0  0  0
  -15.8515    3.0109    1.4094 H   0  0  0  0  0  0  0  0  0  0  0  0
  -13.0760    4.2546    1.8069 H   0  0  0  0  0  0  0  0  0  0  0  0
  -15.3131    2.3225    3.7799 H   0  0  0  0  0  0  0  0  0  0  0  0
  -15.5440    2.6471    6.2048 H   0  0  0  0  0  0  0  0  0  0  0  0
  -14.8681    4.7915    7.2496 H   0  0  0  0  0  0  0  0  0  0  0  0
  -14.0052    6.6347    5.8332 H   0  0  0  0  0  0  0  0  0  0  0  0
  -13.7585    6.3320    3.3952 H   0  0  0  0  0  0  0  0  0  0  0  0
  -13.7739   -0.2450    2.2379 H   0  0  0  0  0  0  0  0  0  0  0  0
  -10.9592    0.3619    2.6164 H   0  0  0  0  0  0  0  0  0  0  0  0
   -6.5773   -0.6482    0.1162 H   0  0  0  0  0  0  0  0  0  0  0  0
  1  2  1  0  0  0  0
  1 35  1  0  0  0  0
  1 36  1  0  0  0  0
  1 37  1  0  0  0  0
  2  3  2  0  0  0  0
  2 34  1  0  0  0  0
  3  4  1  0  0  0  0
  3 38  1  0  0  0  0
  4  5  2  0  0  0  0
  5  6  1  0  0  0  0
  5 34  1  0  0  0  0
  6  7  2  0  0  0  0
  6  8  1  0  0  0  0
  8  9  1  0  0  0  0
  8 39  1  0  0  0  0
  9 10  1  0  0  0  0
  9 33  2  0  0  0  0
 10 11  2  0  0  0  0
 10 40  1  0  0  0  0
 11 12  1  0  0  0  0
 11 41  1  0  0  0  0
 12 13  2  0  0  0  0
 12 42  1  0  0  0  0
 13 14  1  0  0  0  0
 13 33  1  0  0  0  0
 14 15  1  0  0  0  0
 14 16  1  0  0  0  0
 15 43  1  0  0  0  0
 15 44  1  0  0  0  0
 15 45  1  0  0  0  0
 16 17  1  0  0  0  0
 16 32  2  0  0  0  0
 17 18  2  0  0  0  0
 17 46  1  0  0  0  0
 18 19  1  0  0  0  0
 18 47  1  0  0  0  0
 19 20  1  0  0  0  0
 19 31  2  0  0  0  0
 20 21  1  0  0  0  0
 20 29  2  0  0  0  0
 21 22  2  0  0  0  0
 21 48  1  0  0  0  0
 22 23  1  0  0  0  0
 22 49  1  0  0  0  0
 23 24  1  0  0  0  0
 23 28  2  0  0  0  0
 24 25  2  0  0  0  0
 24 50  1  0  0  0  0
 25 26  1  0  0  0  0
 25 51  1  0  0  0  0
 26 27  2  0  0  0  0
 26 52  1  0  0  0  0
 27 28  1  0  0  0  0
 27 53  1  0  0  0  0
 28 54  1  0  0  0  0
 29 30  1  0  0  0  0
 30 31  1  0  0  0  0
 30 55  1  0  0  0  0
 31 32  1  0  0  0  0
 32 56  1  0  0  0  0
 33 57  1  0  0  0  0
M  END
$$$$
