CHEMBL3945062
 OpenBabel04072215373D

 68 72  0  0  1  0  0  0  0  0999 V2000
   13.4211    0.0083    6.7399 C   0  0  0  0  0  0  0  0  0  0  0  0
   13.7720   -0.3255    5.3994 O   0  0  0  0  0  0  0  0  0  0  0  0
   13.5273   -1.6181    5.0150 C   0  0  0  0  0  0  0  0  0  0  0  0
   13.1307   -2.6500    5.8654 C   0  0  0  0  0  0  0  0  0  0  0  0
   12.9234   -3.9334    5.3596 C   0  0  0  0  0  0  0  0  0  0  0  0
   13.0751   -4.1861    3.9972 C   0  0  0  0  0  0  0  0  0  0  0  0
   13.4144   -3.1540    3.1160 C   0  0  0  0  0  0  0  0  0  0  0  0
   13.4760   -3.4126    1.6254 C   0  0  0  0  0  0  0  0  0  0  0  0
   12.1445   -3.8468    0.9754 C   0  0  0  0  0  0  0  0  0  0  0  0
   11.0942   -3.9456    1.6123 O   0  0  0  0  0  0  0  0  0  0  0  0
   12.1441   -4.0957   -0.3944 N   0  0  0  0  0  0  0  0  0  0  0  0
   13.2762   -3.9098   -1.2951 C   0  0  0  0  0  0  0  0  0  0  0  0
   12.8952   -2.9589   -2.4349 C   0  0  0  0  0  0  0  0  0  0  0  0
   11.7218   -3.4076   -3.1301 O   0  0  0  0  0  0  0  0  0  0  0  0
   10.5613   -3.5803   -2.2819 C   0  0  3  0  0  0  0  0  0  0  0  0
   10.0420   -2.2591   -1.7175 C   0  0  0  0  0  0  0  0  0  0  0  0
    9.7080   -1.2539   -2.6892 O   0  0  0  0  0  0  0  0  0  0  0  0
    9.7137    0.0442   -2.2022 C   0  0  0  0  0  0  0  0  0  0  0  0
   10.5081    0.3461   -1.1077 C   0  0  0  0  0  0  0  0  0  0  0  0
   10.7418    1.5843   -0.6292 C   0  0  0  0  0  0  0  0  0  0  0  0
   11.5604    1.5221    0.4038 N   0  0  0  0  0  0  0  0  0  0  0  0
   11.8520    2.6615    1.0268 C   0  0  0  0  0  0  0  0  0  0  0  0
   11.3551    3.8474    0.7095 N   0  0  0  0  0  0  0  0  0  0  0  0
   10.4783    3.8659   -0.3203 C   0  0  0  0  0  0  0  0  0  0  0  0
    9.5465    4.9317   -0.1915 N   0  0  0  0  0  0  0  0  0  0  0  0
    9.6860    6.3053    0.2155 C   0  0  0  0  0  0  0  0  0  0  0  0
    8.5750    7.0998   -0.1171 C   0  0  0  0  0  0  0  0  0  0  0  0
    8.3897    8.3661    0.4332 C   0  0  0  0  0  0  0  0  0  0  0  0
    9.3103    8.8629    1.3526 C   0  0  0  0  0  0  0  0  0  0  0  0
    8.9738   10.4101    2.0499 Cl  0  0  0  0  0  0  0  0  0  0  0  0
   10.4268    8.0900    1.7025 C   0  0  0  0  0  0  0  0  0  0  0  0
   11.5386    8.6228    2.9206 Cl  0  0  0  0  0  0  0  0  0  0  0  0
   10.6318    6.8163    1.1313 C   0  0  0  0  0  0  0  0  0  0  0  0
   10.1153    2.7069   -1.1407 C   0  0  0  0  0  0  0  0  0  0  0  0
    9.2244    2.4212   -2.2898 C   0  0  0  0  0  0  0  0  0  0  0  0
    9.0214    1.0909   -2.8069 C   0  0  0  0  0  0  0  0  0  0  0  0
    8.1419    0.9411   -3.8596 O   0  0  0  0  0  0  0  0  0  0  0  0
    7.4588   -0.3239   -3.9324 C   0  0  0  0  0  0  0  0  0  0  0  0
   10.8983   -4.5092   -1.0818 C   0  0  0  0  0  0  0  0  0  0  0  0
   13.6877   -1.8799    3.6470 C   0  0  0  0  0  0  0  0  0  0  0  0
   13.6008    1.0780    6.8835 H   0  0  0  0  0  0  0  0  0  0  0  0
   14.0477   -0.5323    7.4575 H   0  0  0  0  0  0  0  0  0  0  0  0
   12.3575   -0.1772    6.9275 H   0  0  0  0  0  0  0  0  0  0  0  0
   12.9698   -2.4912    6.9259 H   0  0  0  0  0  0  0  0  0  0  0  0
   12.6154   -4.7336    6.0275 H   0  0  0  0  0  0  0  0  0  0  0  0
   12.8852   -5.1891    3.6217 H   0  0  0  0  0  0  0  0  0  0  0  0
   14.2260   -4.1884    1.4400 H   0  0  0  0  0  0  0  0  0  0  0  0
   13.7990   -2.4966    1.1199 H   0  0  0  0  0  0  0  0  0  0  0  0
   13.5107   -4.9017   -1.6948 H   0  0  0  0  0  0  0  0  0  0  0  0
   14.1573   -3.5377   -0.7740 H   0  0  0  0  0  0  0  0  0  0  0  0
   13.7164   -2.9236   -3.1612 H   0  0  0  0  0  0  0  0  0  0  0  0
   12.7544   -1.9338   -2.0747 H   0  0  0  0  0  0  0  0  0  0  0  0
    9.7807   -4.0250   -2.9057 H   0  0  0  0  0  0  0  0  0  0  0  0
   10.8739   -1.9645   -1.0977 H   0  0  0  0  0  0  0  0  0  0  0  0
    9.1706   -2.4060   -1.0717 H   0  0  0  0  0  0  0  0  0  0  0  0
   11.0238   -0.3907   -0.5242 H   0  0  0  0  0  0  0  0  0  0  0  0
   12.5026    2.5583    1.8917 H   0  0  0  0  0  0  0  0  0  0  0  0
    9.2047    4.5883    0.7244 H   0  0  0  0  0  0  0  0  0  0  0  0
    7.8196    6.6905   -0.7822 H   0  0  0  0  0  0  0  0  0  0  0  0
    7.4990    8.9309    0.1728 H   0  0  0  0  0  0  0  0  0  0  0  0
   11.4798    6.2289    1.4477 H   0  0  0  0  0  0  0  0  0  0  0  0
    8.7027    3.2469   -2.7820 H   0  0  0  0  0  0  0  0  0  0  0  0
    6.6575   -0.2624   -4.6785 H   0  0  0  0  0  0  0  0  0  0  0  0
    6.9927   -0.5738   -2.9717 H   0  0  0  0  0  0  0  0  0  0  0  0
    8.1102   -1.1352   -4.2759 H   0  0  0  0  0  0  0  0  0  0  0  0
   11.0781   -5.5252   -1.4471 H   0  0  0  0  0  0  0  0  0  0  0  0
   10.0510   -4.5490   -0.3844 H   0  0  0  0  0  0  0  0  0  0  0  0
   14.0035   -1.0667    2.9961 H   0  0  0  0  0  0  0  0  0  0  0  0
  1  2  1  0  0  0  0
  1 41  1  0  0  0  0
  1 42  1  0  0  0  0
  1 43  1  0  0  0  0
  2  3  1  0  0  0  0
  3  4  1  0  0  0  0
  3 40  2  0  0  0  0
  4  5  2  0  0  0  0
  4 44  1  0  0  0  0
  5  6  1  0  0  0  0
  5 45  1  0  0  0  0
  6  7  2  0  0  0  0
  6 46  1  0  0  0  0
  7  8  1  0  0  0  0
  7 40  1  0  0  0  0
  8  9  1  0  0  0  0
  8 47  1  0  0  0  0
  8 48  1  0  0  0  0
  9 10  2  0  0  0  0
  9 11  1  0  0  0  0
 11 12  1  0  0  0  0
 11 39  1  0  0  0  0
 12 13  1  0  0  0  0
 12 49  1  0  0  0  0
 12 50  1  0  0  0  0
 13 14  1  0  0  0  0
 13 51  1  0  0  0  0
 13 52  1  0  0  0  0
 14 15  1  0  0  0  0
 15 16  1  0  0  0  0
 15 39  1  0  0  0  0
 15 53  1  0  0  0  0
 16 17  1  0  0  0  0
 16 54  1  0  0  0  0
 16 55  1  0  0  0  0
 17 18  1  0  0  0  0
 18 19  1  0  0  0  0
 18 36  2  0  0  0  0
 19 20  2  0  0  0  0
 19 56  1  0  0  0  0
 20 21  1  0  0  0  0
 20 34  1  0  0  0  0
 21 22  2  0  0  0  0
 22 23  1  0  0  0  0
 22 57  1  0  0  0  0
 23 24  2  0  0  0  0
 24 25  1  0  0  0  0
 24 34  1  0  0  0  0
 25 26  1  0  0  0  0
 25 58  1  0  0  0  0
 26 27  1  0  0  0  0
 26 33  2  0  0  0  0
 27 28  2  0  0  0  0
 27 59  1  0  0  0  0
 28 29  1  0  0  0  0
 28 60  1  0  0  0  0
 29 30  1  0  0  0  0
 29 31  2  0  0  0  0
 31 32  1  0  0  0  0
 31 33  1  0  0  0  0
 33 61  1  0  0  0  0
 34 35  2  0  0  0  0
 35 36  1  0  0  0  0
 35 62  1  0  0  0  0
 36 37  1  0  0  0  0
 37 38  1  0  0  0  0
 38 63  1  0  0  0  0
 38 64  1  0  0  0  0
 38 65  1  0  0  0  0
 39 66  1  0  0  0  0
 39 67  1  0  0  0  0
 40 68  1  0  0  0  0
M  END
$$$$
