CHEMBL450163
 OpenBabel04072215383D

 62 66  0  0  0  0  0  0  0  0999 V2000
   10.6874    0.1209    1.8032 C   0  0  0  0  0  0  0  0  0  0  0  0
    9.8937    0.6535    2.8693 O   0  0  0  0  0  0  0  0  0  0  0  0
    9.0456   -0.2352    3.4774 C   0  0  0  0  0  0  0  0  0  0  0  0
    9.3866   -1.5928    3.5926 C   0  0  0  0  0  0  0  0  0  0  0  0
    8.5120   -2.5470    4.0879 C   0  0  0  0  0  0  0  0  0  0  0  0
    8.9151   -3.8263    4.0674 N   0  0  0  0  0  0  0  0  0  0  0  0
    8.0649   -4.7692    4.5167 C   0  0  0  0  0  0  0  0  0  0  0  0
    6.7995   -4.4984    4.9875 C   0  0  0  0  0  0  0  0  0  0  0  0
    6.3646   -3.1728    4.9701 C   0  0  0  0  0  0  0  0  0  0  0  0
    5.0848   -2.8376    5.3829 O   0  0  0  0  0  0  0  0  0  0  0  0
    4.0267   -3.6487    4.9996 C   0  0  0  0  0  0  0  0  0  0  0  0
    2.9790   -3.7952    5.9125 C   0  0  0  0  0  0  0  0  0  0  0  0
    1.8466   -4.5804    5.6099 C   0  0  0  0  0  0  0  0  0  0  0  0
    1.7602   -5.2173    4.3526 C   0  0  0  0  0  0  0  0  0  0  0  0
    0.8149   -6.0462    3.6541 C   0  0  0  0  0  0  0  0  0  0  0  0
   -0.4227   -6.4749    4.1308 N   0  0  0  0  0  0  0  0  0  0  0  0
   -1.3090   -7.2259    3.3711 C   0  0  0  0  0  0  0  0  0  0  0  0
   -1.1233   -7.6534    2.2344 O   0  0  0  0  0  0  0  0  0  0  0  0
   -2.6367   -7.5631    3.9760 C   0  0  0  0  0  0  0  0  0  0  0  0
   -3.2550   -6.8022    4.9761 C   0  0  0  0  0  0  0  0  0  0  0  0
   -4.5469   -7.1336    5.4308 C   0  0  0  0  0  0  0  0  0  0  0  0
   -5.2472   -6.3020    6.4830 C   0  0  0  0  0  0  0  0  0  0  0  0
   -4.5101   -5.2395    6.9077 F   0  0  0  0  0  0  0  0  0  0  0  0
   -6.4259   -5.7897    6.0366 F   0  0  0  0  0  0  0  0  0  0  0  0
   -5.5461   -7.0222    7.5979 F   0  0  0  0  0  0  0  0  0  0  0  0
   -5.2177   -8.2357    4.8695 C   0  0  0  0  0  0  0  0  0  0  0  0
   -4.6292   -8.9973    3.8518 C   0  0  0  0  0  0  0  0  0  0  0  0
   -5.3678  -10.1379    3.1886 C   0  0  0  0  0  0  0  0  0  0  0  0
   -6.6327  -10.3086    3.6663 F   0  0  0  0  0  0  0  0  0  0  0  0
   -5.4997   -9.9610    1.8460 F   0  0  0  0  0  0  0  0  0  0  0  0
   -4.7417  -11.3340    3.3551 F   0  0  0  0  0  0  0  0  0  0  0  0
   -3.3338   -8.6536    3.4239 C   0  0  0  0  0  0  0  0  0  0  0  0
    1.2724   -6.3498    2.4400 N   0  0  0  0  0  0  0  0  0  0  0  0
    2.4439   -5.7218    2.3324 N   0  0  0  0  0  0  0  0  0  0  0  0
    3.1581   -5.7793    1.0795 C   0  0  0  0  0  0  0  0  0  0  0  0
    2.8121   -5.0297    3.4542 C   0  0  0  0  0  0  0  0  0  0  0  0
    3.9463   -4.2496    3.7381 C   0  0  0  0  0  0  0  0  0  0  0  0
    7.2487   -2.1441    4.5529 C   0  0  0  0  0  0  0  0  0  0  0  0
    6.9488   -0.7602    4.5557 C   0  0  0  0  0  0  0  0  0  0  0  0
    7.8292    0.1974    4.0151 C   0  0  0  0  0  0  0  0  0  0  0  0
    7.3196    1.4653    4.0855 O   0  0  0  0  0  0  0  0  0  0  0  0
    7.9793    2.5299    3.4172 C   0  0  0  0  0  0  0  0  0  0  0  0
   10.7813    0.8887    1.0295 H   0  0  0  0  0  0  0  0  0  0  0  0
   10.2441   -0.7594    1.3211 H   0  0  0  0  0  0  0  0  0  0  0  0
   11.6883   -0.1170    2.1768 H   0  0  0  0  0  0  0  0  0  0  0  0
   10.3622   -1.9455    3.2680 H   0  0  0  0  0  0  0  0  0  0  0  0
    8.4379   -5.7888    4.4686 H   0  0  0  0  0  0  0  0  0  0  0  0
    6.1649   -5.3052    5.3347 H   0  0  0  0  0  0  0  0  0  0  0  0
    3.0355   -3.2922    6.8758 H   0  0  0  0  0  0  0  0  0  0  0  0
    1.0486   -4.6756    6.3396 H   0  0  0  0  0  0  0  0  0  0  0  0
   -0.6444   -6.2131    5.0762 H   0  0  0  0  0  0  0  0  0  0  0  0
   -2.7714   -5.9174    5.3765 H   0  0  0  0  0  0  0  0  0  0  0  0
   -6.2249   -8.4820    5.2136 H   0  0  0  0  0  0  0  0  0  0  0  0
   -2.8760   -9.2356    2.6205 H   0  0  0  0  0  0  0  0  0  0  0  0
    2.6214   -6.4246    0.3786 H   0  0  0  0  0  0  0  0  0  0  0  0
    4.1560   -6.1824    1.2657 H   0  0  0  0  0  0  0  0  0  0  0  0
    3.2185   -4.7647    0.6781 H   0  0  0  0  0  0  0  0  0  0  0  0
    4.7278   -4.1207    2.9967 H   0  0  0  0  0  0  0  0  0  0  0  0
    6.0010   -0.4153    4.9668 H   0  0  0  0  0  0  0  0  0  0  0  0
    7.2809    3.3738    3.3877 H   0  0  0  0  0  0  0  0  0  0  0  0
    8.2153    2.2875    2.3776 H   0  0  0  0  0  0  0  0  0  0  0  0
    8.8634    2.8555    3.9742 H   0  0  0  0  0  0  0  0  0  0  0  0
  1  2  1  0  0  0  0
  1 43  1  0  0  0  0
  1 44  1  0  0  0  0
  1 45  1  0  0  0  0
  2  3  1  0  0  0  0
  3  4  1  0  0  0  0
  3 40  2  0  0  0  0
  4  5  2  0  0  0  0
  4 46  1  0  0  0  0
  5  6  1  0  0  0  0
  5 38  1  0  0  0  0
  6  7  2  0  0  0  0
  7  8  1  0  0  0  0
  7 47  1  0  0  0  0
  8  9  2  0  0  0  0
  8 48  1  0  0  0  0
  9 10  1  0  0  0  0
  9 38  1  0  0  0  0
 10 11  1  0  0  0  0
 11 12  1  0  0  0  0
 11 37  2  0  0  0  0
 12 13  2  0  0  0  0
 12 49  1  0  0  0  0
 13 14  1  0  0  0  0
 13 50  1  0  0  0  0
 14 15  1  0  0  0  0
 14 36  2  0  0  0  0
 15 16  1  0  0  0  0
 15 33  2  0  0  0  0
 16 17  1  0  0  0  0
 16 51  1  0  0  0  0
 17 18  2  0  0  0  0
 17 19  1  0  0  0  0
 19 20  1  0  0  0  0
 19 32  2  0  0  0  0
 20 21  2  0  0  0  0
 20 52  1  0  0  0  0
 21 22  1  0  0  0  0
 21 26  1  0  0  0  0
 22 23  1  0  0  0  0
 22 24  1  0  0  0  0
 22 25  1  0  0  0  0
 26 27  2  0  0  0  0
 26 53  1  0  0  0  0
 27 28  1  0  0  0  0
 27 32  1  0  0  0  0
 28 29  1  0  0  0  0
 28 30  1  0  0  0  0
 28 31  1  0  0  0  0
 32 54  1  0  0  0  0
 33 34  1  0  0  0  0
 34 35  1  0  0  0  0
 34 36  1  0  0  0  0
 35 55  1  0  0  0  0
 35 56  1  0  0  0  0
 35 57  1  0  0  0  0
 36 37  1  0  0  0  0
 37 58  1  0  0  0  0
 38 39  2  0  0  0  0
 39 40  1  0  0  0  0
 39 59  1  0  0  0  0
 40 41  1  0  0  0  0
 41 42  1  0  0  0  0
 42 60  1  0  0  0  0
 42 61  1  0  0  0  0
 42 62  1  0  0  0  0
M  END
$$$$
