CHEMBL1241947
 OpenBabel04072215363D

 36 38  0  0  0  0  0  0  0  0999 V2000
   -0.4594   -2.3947    1.3639 C   0  0  0  0  0  0  0  0  0  0  0  0
   -0.2245   -1.0151    0.8407 C   0  0  0  0  0  0  0  0  0  0  0  0
   -1.2343    0.0068    0.7770 C   0  0  0  0  0  0  0  0  0  0  0  0
   -0.7805    1.1777    0.2058 C   0  0  0  0  0  0  0  0  0  0  0  0
   -1.6266    2.4083    0.0271 C   0  0  0  0  0  0  0  0  0  0  0  0
   -2.6349    2.6606    0.8814 N   0  0  0  0  0  0  0  0  0  0  0  0
   -3.0755    3.8836    0.5090 N   0  0  0  0  0  0  0  0  0  0  0  0
   -4.0823    4.5844    1.3004 C   0  0  0  0  0  0  0  0  0  0  0  0
   -5.3897    3.7988    1.3794 C   0  0  0  0  0  0  0  0  0  0  0  0
   -3.5652    4.9313    2.6980 C   0  0  0  0  0  0  0  0  0  0  0  0
   -2.4806    4.3450   -0.6355 C   0  0  0  0  0  0  0  0  0  0  0  0
   -2.7744    5.4811   -1.2924 N   0  0  0  0  0  0  0  0  0  0  0  0
   -2.0220    5.6206   -2.3937 C   0  0  0  0  0  0  0  0  0  0  0  0
   -1.0729    4.7878   -2.8560 N   0  0  0  0  0  0  0  0  0  0  0  0
   -0.8002    3.6662   -2.1577 C   0  0  0  0  0  0  0  0  0  0  0  0
    0.1501    2.8288   -2.7179 N   0  0  0  0  0  0  0  0  0  0  0  0
   -1.5158    3.4085   -0.9803 C   0  0  0  0  0  0  0  0  0  0  0  0
    0.8667    1.0621   -0.2073 S   0  0  0  0  0  0  0  0  0  0  0  0
    0.9893   -0.5359    0.3743 C   0  0  0  0  0  0  0  0  0  0  0  0
    2.2803   -1.1924    0.3207 C   0  0  0  0  0  0  0  0  0  0  0  0
    2.5078   -2.3383    0.7027 O   0  0  0  0  0  0  0  0  0  0  0  0
   -1.5113   -2.5448    1.6272 H   0  0  0  0  0  0  0  0  0  0  0  0
    0.1439   -2.5725    2.2594 H   0  0  0  0  0  0  0  0  0  0  0  0
   -0.1958   -3.1408    0.6069 H   0  0  0  0  0  0  0  0  0  0  0  0
   -2.2596   -0.1281    1.1055 H   0  0  0  0  0  0  0  0  0  0  0  0
   -4.2918    5.5281    0.7834 H   0  0  0  0  0  0  0  0  0  0  0  0
   -5.2515    2.8323    1.8760 H   0  0  0  0  0  0  0  0  0  0  0  0
   -5.7889    3.6072    0.3776 H   0  0  0  0  0  0  0  0  0  0  0  0
   -6.1441    4.3602    1.9412 H   0  0  0  0  0  0  0  0  0  0  0  0
   -3.3510    4.0320    3.2860 H   0  0  0  0  0  0  0  0  0  0  0  0
   -4.3059    5.5216    3.2471 H   0  0  0  0  0  0  0  0  0  0  0  0
   -2.6435    5.5211    2.6417 H   0  0  0  0  0  0  0  0  0  0  0  0
   -2.2066    6.5068   -2.9932 H   0  0  0  0  0  0  0  0  0  0  0  0
    0.3170    3.0491   -3.6919 H   0  0  0  0  0  0  0  0  0  0  0  0
    0.0771    1.8485   -2.4769 H   0  0  0  0  0  0  0  0  0  0  0  0
    3.1101   -0.5924   -0.0928 H   0  0  0  0  0  0  0  0  0  0  0  0
  1  2  1  0  0  0  0
  1 22  1  0  0  0  0
  1 23  1  0  0  0  0
  1 24  1  0  0  0  0
  2  3  1  0  0  0  0
  2 19  2  0  0  0  0
  3  4  2  0  0  0  0
  3 25  1  0  0  0  0
  4  5  1  0  0  0  0
  4 18  1  0  0  0  0
  5  6  2  0  0  0  0
  5 17  1  0  0  0  0
  6  7  1  0  0  0  0
  7  8  1  0  0  0  0
  7 11  1  0  0  0  0
  8  9  1  0  0  0  0
  8 10  1  0  0  0  0
  8 26  1  0  0  0  0
  9 27  1  0  0  0  0
  9 28  1  0  0  0  0
  9 29  1  0  0  0  0
 10 30  1  0  0  0  0
 10 31  1  0  0  0  0
 10 32  1  0  0  0  0
 11 12  1  0  0  0  0
 11 17  2  0  0  0  0
 12 13  2  0  0  0  0
 13 14  1  0  0  0  0
 13 33  1  0  0  0  0
 14 15  2  0  0  0  0
 15 16  1  0  0  0  0
 15 17  1  0  0  0  0
 16 34  1  0  0  0  0
 16 35  1  0  0  0  0
 18 19  1  0  0  0  0
 19 20  1  0  0  0  0
 20 21  2  0  0  0  0
 20 36  1  0  0  0  0
M  END
$$$$
