CHEMBL3934080
 OpenBabel04072215373D

 63 66  0  0  0  0  0  0  0  0999 V2000
    0.5976    3.6943    2.0047 C   0  0  0  0  0  0  0  0  0  0  0  0
    1.9753    4.0625    1.9038 O   0  0  0  0  0  0  0  0  0  0  0  0
    2.8756    3.0671    1.6018 C   0  0  0  0  0  0  0  0  0  0  0  0
    2.5345    1.7227    1.4495 C   0  0  0  0  0  0  0  0  0  0  0  0
    3.5091    0.7994    1.0828 C   0  0  0  0  0  0  0  0  0  0  0  0
    3.2960   -0.5388    0.8705 O   0  0  0  0  0  0  0  0  0  0  0  0
    1.9727   -1.0258    1.0742 C   0  0  0  0  0  0  0  0  0  0  0  0
    4.8291    1.2298    0.8661 C   0  0  0  0  0  0  0  0  0  0  0  0
    5.2190    2.5752    0.9983 C   0  0  0  0  0  0  0  0  0  0  0  0
    6.4810    3.0588    0.5514 N   0  0  0  0  0  0  0  0  0  0  0  0
    7.0711    2.3381   -0.6527 C   0  0  0  0  0  0  0  0  0  0  0  0
    6.2312    2.1717   -1.9389 C   0  0  0  0  0  0  0  0  0  0  0  0
    5.9734    3.4032   -2.8305 C   0  0  0  0  0  0  0  0  0  0  0  0
    5.3681    2.9233   -4.0937 N   0  0  0  0  0  0  0  0  0  0  0  0
    4.9743    4.0042   -5.0212 C   0  0  0  0  0  0  0  0  0  0  0  0
    4.2734    3.4969   -6.2992 C   0  0  0  0  0  0  0  0  0  0  0  0
    3.1387    2.8241   -5.9681 F   0  0  0  0  0  0  0  0  0  0  0  0
    3.8809    4.5551   -7.0567 F   0  0  0  0  0  0  0  0  0  0  0  0
    7.5846    3.6164    1.3152 C   0  0  0  0  0  0  0  0  0  0  0  0
    8.3889    4.5042    0.5739 C   0  0  0  0  0  0  0  0  0  0  0  0
    9.7249    4.6496    0.8748 C   0  0  0  0  0  0  0  0  0  0  0  0
   10.2690    4.1299    2.0188 C   0  0  0  0  0  0  0  0  0  0  0  0
   11.6029    4.2374    2.0511 N   0  0  0  0  0  0  0  0  0  0  0  0
   12.1869    3.9996    3.2217 C   0  0  0  0  0  0  0  0  0  0  0  0
   11.4438    3.7308    4.3597 C   0  0  0  0  0  0  0  0  0  0  0  0
   12.1577    3.9690    5.6149 C   0  0  0  0  0  0  0  0  0  0  0  0
   12.1261    5.1104    6.4709 C   0  0  0  0  0  0  0  0  0  0  0  0
   13.1209    5.1271    7.3703 N   0  0  0  0  0  0  0  0  0  0  0  0
   13.8087    4.0072    7.0953 N   0  0  0  0  0  0  0  0  0  0  0  0
   14.8311    3.5308    7.9987 C   0  0  0  0  0  0  0  0  0  0  0  0
   13.3654    3.3752    5.9640 C   0  0  0  0  0  0  0  0  0  0  0  0
   10.0878    3.4682    4.2835 N   0  0  0  0  0  0  0  0  0  0  0  0
    9.4558    3.6041    3.0403 C   0  0  0  0  0  0  0  0  0  0  0  0
    8.0892    3.2702    2.6037 C   0  0  0  0  0  0  0  0  0  0  0  0
    4.2141    3.4798    1.4007 C   0  0  0  0  0  0  0  0  0  0  0  0
    0.0089    4.6070    2.1406 H   0  0  0  0  0  0  0  0  0  0  0  0
    0.4251    3.0551    2.8786 H   0  0  0  0  0  0  0  0  0  0  0  0
    0.2345    3.2101    1.0899 H   0  0  0  0  0  0  0  0  0  0  0  0
    1.5132    1.3978    1.5998 H   0  0  0  0  0  0  0  0  0  0  0  0
    1.9764   -2.1048    0.8893 H   0  0  0  0  0  0  0  0  0  0  0  0
    1.2703   -0.5713    0.3669 H   0  0  0  0  0  0  0  0  0  0  0  0
    1.6486   -0.8686    2.1085 H   0  0  0  0  0  0  0  0  0  0  0  0
    5.5459    0.4789    0.5448 H   0  0  0  0  0  0  0  0  0  0  0  0
    7.3902    1.3417   -0.3191 H   0  0  0  0  0  0  0  0  0  0  0  0
    7.9993    2.8098   -0.9967 H   0  0  0  0  0  0  0  0  0  0  0  0
    5.2841    1.6662   -1.7357 H   0  0  0  0  0  0  0  0  0  0  0  0
    6.8137    1.4710   -2.5583 H   0  0  0  0  0  0  0  0  0  0  0  0
    6.9158    3.9152   -3.0589 H   0  0  0  0  0  0  0  0  0  0  0  0
    5.3045    4.1068   -2.3254 H   0  0  0  0  0  0  0  0  0  0  0  0
    4.5327    2.3719   -3.8790 H   0  0  0  0  0  0  0  0  0  0  0  0
    5.8514    4.5868   -5.3241 H   0  0  0  0  0  0  0  0  0  0  0  0
    4.2822    4.6863   -4.5150 H   0  0  0  0  0  0  0  0  0  0  0  0
    4.9072    2.8452   -6.9081 H   0  0  0  0  0  0  0  0  0  0  0  0
    8.0131    4.9374   -0.3375 H   0  0  0  0  0  0  0  0  0  0  0  0
   10.3703    5.1582    0.1684 H   0  0  0  0  0  0  0  0  0  0  0  0
   13.2609    4.1272    3.2453 H   0  0  0  0  0  0  0  0  0  0  0  0
   11.4525    5.9585    6.4424 H   0  0  0  0  0  0  0  0  0  0  0  0
   14.9161    4.2038    8.8564 H   0  0  0  0  0  0  0  0  0  0  0  0
   15.7864    3.4672    7.4720 H   0  0  0  0  0  0  0  0  0  0  0  0
   14.5209    2.5403    8.3430 H   0  0  0  0  0  0  0  0  0  0  0  0
   13.9349    2.5700    5.5209 H   0  0  0  0  0  0  0  0  0  0  0  0
    7.4710    2.6852    3.2848 H   0  0  0  0  0  0  0  0  0  0  0  0
    4.4465    4.5391    1.4790 H   0  0  0  0  0  0  0  0  0  0  0  0
  1  2  1  0  0  0  0
  1 36  1  0  0  0  0
  1 37  1  0  0  0  0
  1 38  1  0  0  0  0
  2  3  1  0  0  0  0
  3  4  1  0  0  0  0
  3 35  2  0  0  0  0
  4  5  2  0  0  0  0
  4 39  1  0  0  0  0
  5  6  1  0  0  0  0
  5  8  1  0  0  0  0
  6  7  1  0  0  0  0
  7 40  1  0  0  0  0
  7 41  1  0  0  0  0
  7 42  1  0  0  0  0
  8  9  2  0  0  0  0
  8 43  1  0  0  0  0
  9 10  1  0  0  0  0
  9 35  1  0  0  0  0
 10 11  1  0  0  0  0
 10 19  1  0  0  0  0
 11 12  1  0  0  0  0
 11 44  1  0  0  0  0
 11 45  1  0  0  0  0
 12 13  1  0  0  0  0
 12 46  1  0  0  0  0
 12 47  1  0  0  0  0
 13 14  1  0  0  0  0
 13 48  1  0  0  0  0
 13 49  1  0  0  0  0
 14 15  1  0  0  0  0
 14 50  1  0  0  0  0
 15 16  1  0  0  0  0
 15 51  1  0  0  0  0
 15 52  1  0  0  0  0
 16 17  1  0  0  0  0
 16 18  1  0  0  0  0
 16 53  1  0  0  0  0
 19 20  1  0  0  0  0
 19 34  2  0  0  0  0
 20 21  2  0  0  0  0
 20 54  1  0  0  0  0
 21 22  1  0  0  0  0
 21 55  1  0  0  0  0
 22 23  1  0  0  0  0
 22 33  2  0  0  0  0
 23 24  2  0  0  0  0
 24 25  1  0  0  0  0
 24 56  1  0  0  0  0
 25 26  1  0  0  0  0
 25 32  2  0  0  0  0
 26 27  1  0  0  0  0
 26 31  2  0  0  0  0
 27 28  2  0  0  0  0
 27 57  1  0  0  0  0
 28 29  1  0  0  0  0
 29 30  1  0  0  0  0
 29 31  1  0  0  0  0
 30 58  1  0  0  0  0
 30 59  1  0  0  0  0
 30 60  1  0  0  0  0
 31 61  1  0  0  0  0
 32 33  1  0  0  0  0
 33 34  1  0  0  0  0
 34 62  1  0  0  0  0
 35 63  1  0  0  0  0
M  END
$$$$
