CHEMBL103595
 OpenBabel04072215353D

 51 55  0  0  0  0  0  0  0  0999 V2000
   -2.2035   -0.7809   -0.0306 C   0  0  0  0  0  0  0  0  0  0  0  0
   -2.2318    0.6060    0.0446 C   0  0  0  0  0  0  0  0  0  0  0  0
   -1.0475    1.3485    0.1025 C   0  0  0  0  0  0  0  0  0  0  0  0
    0.1735    0.6530    0.0939 C   0  0  0  0  0  0  0  0  0  0  0  0
    0.2312   -0.7457    0.0316 C   0  0  0  0  0  0  0  0  0  0  0  0
   -0.9854   -1.4621   -0.0500 C   0  0  0  0  0  0  0  0  0  0  0  0
    1.6153   -1.1266    0.0583 C   0  0  0  0  0  0  0  0  0  0  0  0
    2.2237   -2.4492    0.0514 C   0  0  0  0  0  0  0  0  0  0  0  0
    3.4341   -2.7089   -0.5911 C   0  0  0  0  0  0  0  0  0  0  0  0
    4.0354   -3.9238   -0.6260 N   0  0  0  0  0  0  0  0  0  0  0  0
    3.3878   -4.9382   -0.0035 C   0  0  0  0  0  0  0  0  0  0  0  0
    2.1734   -4.8029    0.6633 C   0  0  0  0  0  0  0  0  0  0  0  0
    1.5220   -5.9433    1.3008 C   0  0  0  0  0  0  0  0  0  0  0  0
    2.1547   -7.0522    1.9532 C   0  0  0  0  0  0  0  0  0  0  0  0
    1.2499   -7.9640    2.4500 C   0  0  0  0  0  0  0  0  0  0  0  0
   -0.3640   -7.5076    2.1290 S   0  0  0  0  0  0  0  0  0  0  0  0
    0.1458   -6.0866    1.3217 C   0  0  0  0  0  0  0  0  0  0  0  0
    1.6086   -3.5235    0.6992 C   0  0  0  0  0  0  0  0  0  0  0  0
    2.3473    0.0414    0.1132 C   0  0  0  0  0  0  0  0  0  0  0  0
    1.4748    1.1027    0.1286 N   0  0  0  0  0  0  0  0  0  0  0  0
    1.9041    2.4927    0.1170 C   0  0  0  0  0  0  0  0  0  0  0  0
    2.1529    3.0576    1.5245 C   0  0  0  0  0  0  0  0  0  0  0  0
    2.9266    4.3024    1.4485 N   0  0  0  0  0  0  0  0  0  0  0  0
    2.1427    5.4770    1.0171 C   0  0  0  0  0  0  0  0  0  0  0  0
    3.0891    6.6751    0.8155 C   0  0  0  0  0  0  0  0  0  0  0  0
    3.8128    6.9833    2.0164 O   0  0  0  0  0  0  0  0  0  0  0  0
    4.5385    5.8330    2.4761 C   0  0  0  0  0  0  0  0  0  0  0  0
    3.5928    4.6453    2.7198 C   0  0  0  0  0  0  0  0  0  0  0  0
   -3.1330   -1.3434   -0.0803 H   0  0  0  0  0  0  0  0  0  0  0  0
   -3.1896    1.1211    0.0536 H   0  0  0  0  0  0  0  0  0  0  0  0
   -1.0852    2.4318    0.1507 H   0  0  0  0  0  0  0  0  0  0  0  0
   -0.9858   -2.5451   -0.1336 H   0  0  0  0  0  0  0  0  0  0  0  0
    3.9739   -1.9296   -1.1214 H   0  0  0  0  0  0  0  0  0  0  0  0
    3.8943   -5.8970   -0.0712 H   0  0  0  0  0  0  0  0  0  0  0  0
    3.2251   -7.1721    2.0677 H   0  0  0  0  0  0  0  0  0  0  0  0
    1.4594   -8.8810    2.9878 H   0  0  0  0  0  0  0  0  0  0  0  0
   -0.6051   -5.4324    0.8989 H   0  0  0  0  0  0  0  0  0  0  0  0
    0.6905   -3.3578    1.2553 H   0  0  0  0  0  0  0  0  0  0  0  0
    3.4159    0.2130    0.1499 H   0  0  0  0  0  0  0  0  0  0  0  0
    1.1556    3.0765   -0.4281 H   0  0  0  0  0  0  0  0  0  0  0  0
    2.8267    2.5257   -0.4769 H   0  0  0  0  0  0  0  0  0  0  0  0
    2.7339    2.3135    2.0850 H   0  0  0  0  0  0  0  0  0  0  0  0
    1.2108    3.1917    2.0701 H   0  0  0  0  0  0  0  0  0  0  0  0
    1.3895    5.7292    1.7761 H   0  0  0  0  0  0  0  0  0  0  0  0
    1.6194    5.2832    0.0761 H   0  0  0  0  0  0  0  0  0  0  0  0
    2.5141    7.5642    0.5389 H   0  0  0  0  0  0  0  0  0  0  0  0
    3.8026    6.4760    0.0059 H   0  0  0  0  0  0  0  0  0  0  0  0
    5.0468    6.1077    3.4052 H   0  0  0  0  0  0  0  0  0  0  0  0
    5.3104    5.5736    1.7397 H   0  0  0  0  0  0  0  0  0  0  0  0
    2.8490    4.9117    3.4831 H   0  0  0  0  0  0  0  0  0  0  0  0
    4.1778    3.7989    3.0946 H   0  0  0  0  0  0  0  0  0  0  0  0
  1  2  1  0  0  0  0
  1  6  2  0  0  0  0
  1 29  1  0  0  0  0
  2  3  2  0  0  0  0
  2 30  1  0  0  0  0
  3  4  1  0  0  0  0
  3 31  1  0  0  0  0
  4  5  2  0  0  0  0
  4 20  1  0  0  0  0
  5  6  1  0  0  0  0
  5  7  1  0  0  0  0
  6 32  1  0  0  0  0
  7  8  1  0  0  0  0
  7 19  2  0  0  0  0
  8  9  1  0  0  0  0
  8 18  2  0  0  0  0
  9 10  2  0  0  0  0
  9 33  1  0  0  0  0
 10 11  1  0  0  0  0
 11 12  2  0  0  0  0
 11 34  1  0  0  0  0
 12 13  1  0  0  0  0
 12 18  1  0  0  0  0
 13 14  1  0  0  0  0
 13 17  2  0  0  0  0
 14 15  2  0  0  0  0
 14 35  1  0  0  0  0
 15 16  1  0  0  0  0
 15 36  1  0  0  0  0
 16 17  1  0  0  0  0
 17 37  1  0  0  0  0
 18 38  1  0  0  0  0
 19 20  1  0  0  0  0
 19 39  1  0  0  0  0
 20 21  1  0  0  0  0
 21 22  1  0  0  0  0
 21 40  1  0  0  0  0
 21 41  1  0  0  0  0
 22 23  1  0  0  0  0
 22 42  1  0  0  0  0
 22 43  1  0  0  0  0
 23 24  1  0  0  0  0
 23 28  1  0  0  0  0
 24 25  1  0  0  0  0
 24 44  1  0  0  0  0
 24 45  1  0  0  0  0
 25 26  1  0  0  0  0
 25 46  1  0  0  0  0
 25 47  1  0  0  0  0
 26 27  1  0  0  0  0
 27 28  1  0  0  0  0
 27 48  1  0  0  0  0
 27 49  1  0  0  0  0
 28 50  1  0  0  0  0
 28 51  1  0  0  0  0
M  END
$$$$
