CHEMBL234010
 OpenBabel04072215363D

 41 43  0  0  0  0  0  0  0  0999 V2000
    1.1285    0.0077   -0.0107 C   0  0  0  0  0  0  0  0  0  0  0  0
    2.6095    0.0850    0.0269 C   0  0  0  0  0  0  0  0  0  0  0  0
    3.4304    1.2351   -0.0110 C   0  0  0  0  0  0  0  0  0  0  0  0
    4.7271    0.7609   -0.0670 C   0  0  0  0  0  0  0  0  0  0  0  0
    5.9849    1.4530   -0.2250 C   0  0  0  0  0  0  0  0  0  0  0  0
    6.9043    0.9376   -0.8501 O   0  0  0  0  0  0  0  0  0  0  0  0
    6.0750    2.6554    0.4591 N   0  0  0  0  0  0  0  0  0  0  0  0
    7.2413    3.4503    0.5590 C   0  0  0  0  0  0  0  0  0  0  0  0
    8.3480    3.2916   -0.2822 C   0  0  0  0  0  0  0  0  0  0  0  0
    9.5091    4.0455   -0.0958 C   0  0  0  0  0  0  0  0  0  0  0  0
    9.5672    4.9779    0.9317 C   0  0  0  0  0  0  0  0  0  0  0  0
   11.0104    5.8781    1.1833 Cl  0  0  0  0  0  0  0  0  0  0  0  0
    8.4614    5.1791    1.7556 C   0  0  0  0  0  0  0  0  0  0  0  0
    7.2973    4.4234    1.5646 C   0  0  0  0  0  0  0  0  0  0  0  0
    4.6141   -0.6100   -0.0075 N   0  0  0  0  0  0  0  0  0  0  0  0
    5.6839   -1.5996   -0.0486 C   0  0  0  0  0  0  0  0  0  0  0  0
    6.6220   -1.5283    1.1591 C   0  0  0  0  0  0  0  0  0  0  0  0
    7.7601   -2.5124    1.0609 C   0  0  0  0  0  0  0  0  0  0  0  0
    8.9412   -2.1750    0.3895 C   0  0  0  0  0  0  0  0  0  0  0  0
    9.9633   -3.1096    0.3324 C   0  0  0  0  0  0  0  0  0  0  0  0
    9.8900   -4.3401    0.8842 N   0  0  0  0  0  0  0  0  0  0  0  0
    8.7391   -4.6481    1.5196 C   0  0  0  0  0  0  0  0  0  0  0  0
    7.6613   -3.7826    1.6309 C   0  0  0  0  0  0  0  0  0  0  0  0
    3.3369   -1.0347    0.0768 N   0  0  0  0  0  0  0  0  0  0  0  0
    0.6803    1.0062   -0.0236 H   0  0  0  0  0  0  0  0  0  0  0  0
    0.7457   -0.5273    0.8637 H   0  0  0  0  0  0  0  0  0  0  0  0
    0.7966   -0.5204   -0.9116 H   0  0  0  0  0  0  0  0  0  0  0  0
    3.1067    2.2651   -0.0738 H   0  0  0  0  0  0  0  0  0  0  0  0
    5.3065    2.8876    1.0741 H   0  0  0  0  0  0  0  0  0  0  0  0
    8.3420    2.5906   -1.1113 H   0  0  0  0  0  0  0  0  0  0  0  0
   10.3588    3.8858   -0.7545 H   0  0  0  0  0  0  0  0  0  0  0  0
    8.5074    5.9126    2.5570 H   0  0  0  0  0  0  0  0  0  0  0  0
    6.4576    4.5881    2.2342 H   0  0  0  0  0  0  0  0  0  0  0  0
    6.2152   -1.4611   -0.9967 H   0  0  0  0  0  0  0  0  0  0  0  0
    5.2138   -2.5900   -0.0956 H   0  0  0  0  0  0  0  0  0  0  0  0
    6.0583   -1.7080    2.0835 H   0  0  0  0  0  0  0  0  0  0  0  0
    7.0486   -0.5262    1.2821 H   0  0  0  0  0  0  0  0  0  0  0  0
    9.0703   -1.2025   -0.0767 H   0  0  0  0  0  0  0  0  0  0  0  0
   10.9002   -2.8863   -0.1721 H   0  0  0  0  0  0  0  0  0  0  0  0
    8.7043   -5.6425    1.9551 H   0  0  0  0  0  0  0  0  0  0  0  0
    6.7674   -4.0976    2.1591 H   0  0  0  0  0  0  0  0  0  0  0  0
  1  2  1  0  0  0  0
  1 25  1  0  0  0  0
  1 26  1  0  0  0  0
  1 27  1  0  0  0  0
  2  3  1  0  0  0  0
  2 24  2  0  0  0  0
  3  4  2  0  0  0  0
  3 28  1  0  0  0  0
  4  5  1  0  0  0  0
  4 15  1  0  0  0  0
  5  6  2  0  0  0  0
  5  7  1  0  0  0  0
  7  8  1  0  0  0  0
  7 29  1  0  0  0  0
  8  9  1  0  0  0  0
  8 14  2  0  0  0  0
  9 10  2  0  0  0  0
  9 30  1  0  0  0  0
 10 11  1  0  0  0  0
 10 31  1  0  0  0  0
 11 12  1  0  0  0  0
 11 13  2  0  0  0  0
 13 14  1  0  0  0  0
 13 32  1  0  0  0  0
 14 33  1  0  0  0  0
 15 16  1  0  0  0  0
 15 24  1  0  0  0  0
 16 17  1  0  0  0  0
 16 34  1  0  0  0  0
 16 35  1  0  0  0  0
 17 18  1  0  0  0  0
 17 36  1  0  0  0  0
 17 37  1  0  0  0  0
 18 19  1  0  0  0  0
 18 23  2  0  0  0  0
 19 20  2  0  0  0  0
 19 38  1  0  0  0  0
 20 21  1  0  0  0  0
 20 39  1  0  0  0  0
 21 22  2  0  0  0  0
 22 23  1  0  0  0  0
 22 40  1  0  0  0  0
 23 41  1  0  0  0  0
M  END
$$$$
