CHEMBL4217207
 OpenBabel04072215383D

 48 51  0  0  1  0  0  0  0  0999 V2000
    2.0818   -3.7244   -2.4111 C   0  0  0  0  0  0  0  0  0  0  0  0
    3.4319   -3.3428   -2.1012 N   0  0  0  0  0  0  0  0  0  0  0  0
    3.7321   -2.6384   -0.9534 C   0  0  0  0  0  0  0  0  0  0  0  0
    2.8845   -2.3173   -0.1189 O   0  0  0  0  0  0  0  0  0  0  0  0
    5.1766   -2.2937   -0.7521 C   0  0  0  0  0  0  0  0  0  0  0  0
    5.5705   -1.5857    0.3763 C   0  0  0  0  0  0  0  0  0  0  0  0
    6.9340   -1.3570    0.5689 C   0  0  0  0  0  0  0  0  0  0  0  0
    7.4765   -0.6997    1.6558 O   0  0  0  0  0  0  0  0  0  0  0  0
    6.8712   -0.7967    2.8886 C   0  0  0  0  0  0  0  0  0  0  0  0
    6.1182   -1.9018    3.2962 C   0  0  0  0  0  0  0  0  0  0  0  0
    5.4820   -1.9038    4.5375 C   0  0  0  0  0  0  0  0  0  0  0  0
    5.6473   -0.8167    5.4065 C   0  0  0  0  0  0  0  0  0  0  0  0
    4.9353   -0.7868    6.6927 C   0  0  0  0  0  0  0  0  0  0  0  0
    4.1530   -1.7391    7.1156 N   0  0  0  0  0  0  0  0  0  0  0  0
    3.6180   -1.3008    8.2652 N   0  0  0  0  0  0  0  0  0  0  0  0
    4.1546   -0.0400    8.7616 C   0  0  3  0  0  0  0  0  0  0  0  0
    4.8472   -0.1110   10.1062 C   0  0  0  0  0  0  0  0  0  0  0  0
    5.9689   -0.9271   10.3256 C   0  0  0  0  0  0  0  0  0  0  0  0
    6.6789   -0.8582   11.5279 C   0  0  0  0  0  0  0  0  0  0  0  0
    6.2707    0.0160   12.5342 C   0  0  0  0  0  0  0  0  0  0  0  0
    5.1366    0.7998   12.3432 C   0  0  0  0  0  0  0  0  0  0  0  0
    4.5913    2.0031   13.6969 Br  0  0  0  0  0  0  0  0  0  0  0  0
    4.4205    0.7330   11.1469 C   0  0  0  0  0  0  0  0  0  0  0  0
    5.0915    0.3787    7.6356 C   0  0  0  0  0  0  0  0  0  0  0  0
    6.4630    0.2519    5.0266 C   0  0  0  0  0  0  0  0  0  0  0  0
    7.0758    0.2630    3.7716 C   0  0  0  0  0  0  0  0  0  0  0  0
    7.8369   -1.7668   -0.4047 C   0  0  0  0  0  0  0  0  0  0  0  0
    7.3464   -2.4375   -1.5149 C   0  0  0  0  0  0  0  0  0  0  0  0
    6.0415   -2.7269   -1.7088 N   0  0  0  0  0  0  0  0  0  0  0  0
    2.0806   -4.2997   -3.3395 H   0  0  0  0  0  0  0  0  0  0  0  0
    1.4706   -2.8244   -2.5287 H   0  0  0  0  0  0  0  0  0  0  0  0
    1.6841   -4.3286   -1.5918 H   0  0  0  0  0  0  0  0  0  0  0  0
    4.2079   -3.6922   -2.6574 H   0  0  0  0  0  0  0  0  0  0  0  0
    4.8240   -1.2684    1.0964 H   0  0  0  0  0  0  0  0  0  0  0  0
    5.9830   -2.7568    2.6394 H   0  0  0  0  0  0  0  0  0  0  0  0
    4.8514   -2.7501    4.8068 H   0  0  0  0  0  0  0  0  0  0  0  0
    3.3775   -2.0083    8.9549 H   0  0  0  0  0  0  0  0  0  0  0  0
    3.3280    0.6775    8.8158 H   0  0  0  0  0  0  0  0  0  0  0  0
    6.3159   -1.6021    9.5446 H   0  0  0  0  0  0  0  0  0  0  0  0
    7.5641   -1.4730   11.6714 H   0  0  0  0  0  0  0  0  0  0  0  0
    6.8439    0.0828   13.4553 H   0  0  0  0  0  0  0  0  0  0  0  0
    3.5429    1.3623   11.0127 H   0  0  0  0  0  0  0  0  0  0  0  0
    6.1435    0.4767    7.9329 H   0  0  0  0  0  0  0  0  0  0  0  0
    4.7573    1.2953    7.1444 H   0  0  0  0  0  0  0  0  0  0  0  0
    6.6172    1.0951    5.6935 H   0  0  0  0  0  0  0  0  0  0  0  0
    7.7006    1.1088    3.4896 H   0  0  0  0  0  0  0  0  0  0  0  0
    8.8998   -1.5798   -0.2974 H   0  0  0  0  0  0  0  0  0  0  0  0
    8.0145   -2.7783   -2.2995 H   0  0  0  0  0  0  0  0  0  0  0  0
  1  2  1  0  0  0  0
  1 30  1  0  0  0  0
  1 31  1  0  0  0  0
  1 32  1  0  0  0  0
  2  3  1  0  0  0  0
  2 33  1  0  0  0  0
  3  4  2  0  0  0  0
  3  5  1  0  0  0  0
  5  6  1  0  0  0  0
  5 29  2  0  0  0  0
  6  7  2  0  0  0  0
  6 34  1  0  0  0  0
  7  8  1  0  0  0  0
  7 27  1  0  0  0  0
  8  9  1  0  0  0  0
  9 10  1  0  0  0  0
  9 26  2  0  0  0  0
 10 11  2  0  0  0  0
 10 35  1  0  0  0  0
 11 12  1  0  0  0  0
 11 36  1  0  0  0  0
 12 13  1  0  0  0  0
 12 25  2  0  0  0  0
 13 14  2  0  0  0  0
 13 24  1  0  0  0  0
 14 15  1  0  0  0  0
 15 16  1  0  0  0  0
 15 37  1  0  0  0  0
 16 17  1  0  0  0  0
 16 24  1  0  0  0  0
 16 38  1  0  0  0  0
 17 18  1  0  0  0  0
 17 23  2  0  0  0  0
 18 19  2  0  0  0  0
 18 39  1  0  0  0  0
 19 20  1  0  0  0  0
 19 40  1  0  0  0  0
 20 21  2  0  0  0  0
 20 41  1  0  0  0  0
 21 22  1  0  0  0  0
 21 23  1  0  0  0  0
 23 42  1  0  0  0  0
 24 43  1  0  0  0  0
 24 44  1  0  0  0  0
 25 26  1  0  0  0  0
 25 45  1  0  0  0  0
 26 46  1  0  0  0  0
 27 28  2  0  0  0  0
 27 47  1  0  0  0  0
 28 29  1  0  0  0  0
 28 48  1  0  0  0  0
M  END
$$$$
