CHEMBL3676354
 OpenBabel04072215373D

 53 55  0  0  0  0  0  0  0  0999 V2000
    3.5691    1.9973    3.3375 C   0  0  0  0  0  0  0  0  0  0  0  0
    3.6303    0.7222    2.9364 C   0  0  0  0  0  0  0  0  0  0  0  0
    3.7801    0.4200    1.4881 C   0  0  0  0  0  0  0  0  0  0  0  0
    3.3406    1.1616    0.6155 O   0  0  0  0  0  0  0  0  0  0  0  0
    4.4897   -0.7101    1.1523 N   0  0  0  0  0  0  0  0  0  0  0  0
    5.3513   -1.3682    2.0505 C   0  0  0  0  0  0  0  0  0  0  0  0
    6.5088   -0.6959    2.4488 C   0  0  0  0  0  0  0  0  0  0  0  0
    7.2876   -1.1907    3.5162 C   0  0  0  0  0  0  0  0  0  0  0  0
    8.4235   -0.5506    4.0306 C   0  0  0  0  0  0  0  0  0  0  0  0
    8.8184    0.7165    3.5131 N   0  0  0  0  0  0  0  0  0  0  0  0
   10.1007    1.2668    3.7633 C   0  0  0  0  0  0  0  0  0  0  0  0
   11.2515    0.5111    3.5064 C   0  0  0  0  0  0  0  0  0  0  0  0
   12.5136    0.9856    3.8727 C   0  0  0  0  0  0  0  0  0  0  0  0
   13.8658   -0.0409    3.5561 Cl  0  0  0  0  0  0  0  0  0  0  0  0
   12.6336    2.2377    4.4850 C   0  0  0  0  0  0  0  0  0  0  0  0
   14.2953    2.9099    5.1117 Br  0  0  0  0  0  0  0  0  0  0  0  0
   11.4999    3.0319    4.6817 C   0  0  0  0  0  0  0  0  0  0  0  0
   10.2487    2.5439    4.3137 C   0  0  0  0  0  0  0  0  0  0  0  0
    9.1623    3.3014    4.5341 F   0  0  0  0  0  0  0  0  0  0  0  0
    9.1473   -1.0862    5.0312 N   0  0  0  0  0  0  0  0  0  0  0  0
    8.7148   -2.2415    5.5403 C   0  0  0  0  0  0  0  0  0  0  0  0
    7.6300   -2.9167    5.1482 N   0  0  0  0  0  0  0  0  0  0  0  0
    6.9265   -2.3915    4.1408 C   0  0  0  0  0  0  0  0  0  0  0  0
    5.7963   -3.0685    3.6917 C   0  0  0  0  0  0  0  0  0  0  0  0
    5.0108   -2.5937    2.6365 C   0  0  0  0  0  0  0  0  0  0  0  0
    3.9498   -3.4046    2.3095 O   0  0  0  0  0  0  0  0  0  0  0  0
    3.5259   -3.3370    0.9447 C   0  0  0  0  0  0  0  0  0  0  0  0
    2.9476   -4.6765    0.4649 C   0  0  0  0  0  0  0  0  0  0  0  0
    2.6734   -4.5732   -0.9758 N   0  0  0  0  0  0  0  0  0  0  0  0
    2.0979   -5.8038   -1.5250 C   0  0  0  0  0  0  0  0  0  0  0  0
    1.9216   -5.6315   -3.0315 C   0  0  0  0  0  0  0  0  0  0  0  0
    0.9296   -4.6036   -3.5161 C   0  0  0  0  0  0  0  0  0  0  0  0
    2.5490   -6.3268   -3.8335 O   0  0  0  0  0  0  0  0  0  0  0  0
    3.5153    2.2470    4.3911 H   0  0  0  0  0  0  0  0  0  0  0  0
    3.5837    2.8156    2.6223 H   0  0  0  0  0  0  0  0  0  0  0  0
    3.6271   -0.0937    3.6484 H   0  0  0  0  0  0  0  0  0  0  0  0
    4.8199   -0.6128    0.1964 H   0  0  0  0  0  0  0  0  0  0  0  0
    6.7866    0.2316    1.9550 H   0  0  0  0  0  0  0  0  0  0  0  0
    8.0864    1.3965    3.7238 H   0  0  0  0  0  0  0  0  0  0  0  0
   11.1523   -0.4688    3.0476 H   0  0  0  0  0  0  0  0  0  0  0  0
   11.5712    4.0125    5.1420 H   0  0  0  0  0  0  0  0  0  0  0  0
    9.2948   -2.6669    6.3526 H   0  0  0  0  0  0  0  0  0  0  0  0
    5.5155   -3.9976    4.1869 H   0  0  0  0  0  0  0  0  0  0  0  0
    4.3734   -3.1001    0.2890 H   0  0  0  0  0  0  0  0  0  0  0  0
    2.7514   -2.5662    0.8547 H   0  0  0  0  0  0  0  0  0  0  0  0
    2.0351   -4.9060    1.0282 H   0  0  0  0  0  0  0  0  0  0  0  0
    3.6658   -5.4802    0.6687 H   0  0  0  0  0  0  0  0  0  0  0  0
    3.5525   -4.3855   -1.4641 H   0  0  0  0  0  0  0  0  0  0  0  0
    1.1223   -6.0318   -1.0848 H   0  0  0  0  0  0  0  0  0  0  0  0
    2.7696   -6.6532   -1.3572 H   0  0  0  0  0  0  0  0  0  0  0  0
    0.6544   -3.9121   -2.7162 H   0  0  0  0  0  0  0  0  0  0  0  0
    0.0308   -5.1102   -3.8743 H   0  0  0  0  0  0  0  0  0  0  0  0
    1.3818   -4.0243   -4.3267 H   0  0  0  0  0  0  0  0  0  0  0  0
  1  2  2  0  0  0  0
  1 34  1  0  0  0  0
  1 35  1  0  0  0  0
  2  3  1  0  0  0  0
  2 36  1  0  0  0  0
  3  4  2  0  0  0  0
  3  5  1  0  0  0  0
  5  6  1  0  0  0  0
  5 37  1  0  0  0  0
  6  7  1  0  0  0  0
  6 25  2  0  0  0  0
  7  8  2  0  0  0  0
  7 38  1  0  0  0  0
  8  9  1  0  0  0  0
  8 23  1  0  0  0  0
  9 10  1  0  0  0  0
  9 20  2  0  0  0  0
 10 11  1  0  0  0  0
 10 39  1  0  0  0  0
 11 12  1  0  0  0  0
 11 18  2  0  0  0  0
 12 13  2  0  0  0  0
 12 40  1  0  0  0  0
 13 14  1  0  0  0  0
 13 15  1  0  0  0  0
 15 16  1  0  0  0  0
 15 17  2  0  0  0  0
 17 18  1  0  0  0  0
 17 41  1  0  0  0  0
 18 19  1  0  0  0  0
 20 21  1  0  0  0  0
 21 22  2  0  0  0  0
 21 42  1  0  0  0  0
 22 23  1  0  0  0  0
 23 24  2  0  0  0  0
 24 25  1  0  0  0  0
 24 43  1  0  0  0  0
 25 26  1  0  0  0  0
 26 27  1  0  0  0  0
 27 28  1  0  0  0  0
 27 44  1  0  0  0  0
 27 45  1  0  0  0  0
 28 29  1  0  0  0  0
 28 46  1  0  0  0  0
 28 47  1  0  0  0  0
 29 30  1  0  0  0  0
 29 48  1  0  0  0  0
 30 31  1  0  0  0  0
 30 49  1  0  0  0  0
 30 50  1  0  0  0  0
 31 32  1  0  0  0  0
 31 33  2  0  0  0  0
 32 51  1  0  0  0  0
 32 52  1  0  0  0  0
 32 53  1  0  0  0  0
M  END
$$$$
