CHEMBL1084450
 OpenBabel04072215363D

 69 74  0  0  0  0  0  0  0  0999 V2000
    1.1694   -0.9129   -0.0122 O   0  0  0  0  0  0  0  0  0  0  0  0
    2.2587   -0.3417    0.0190 C   0  0  0  0  0  0  0  0  0  0  0  0
    2.7967    0.3227    1.1113 N   0  0  0  0  0  0  0  0  0  0  0  0
    2.2132    0.4250    2.4008 C   0  0  0  0  0  0  0  0  0  0  0  0
    1.0895   -0.3058    2.7899 C   0  0  0  0  0  0  0  0  0  0  0  0
    0.5621   -0.1763    4.0743 C   0  0  0  0  0  0  0  0  0  0  0  0
    1.1479    0.6928    4.9911 C   0  0  0  0  0  0  0  0  0  0  0  0
    2.2734    1.4429    4.6266 C   0  0  0  0  0  0  0  0  0  0  0  0
    2.8654    2.3266    5.5858 N   0  0  0  0  0  0  0  0  0  0  0  0
    2.8316    2.1253    6.9540 C   0  0  0  0  0  0  0  0  0  0  0  0
    3.5656    3.1078    7.5776 C   0  0  0  0  0  0  0  0  0  0  0  0
    4.0363    4.0072    6.5815 C   0  0  0  0  0  0  0  0  0  0  0  0
    4.7986    5.1990    6.6089 C   0  0  0  0  0  0  0  0  0  0  0  0
    5.3009    5.7218    7.8182 N   0  0  0  0  0  0  0  0  0  0  0  0
    6.0175    6.9039    7.8975 C   0  0  0  0  0  0  0  0  0  0  0  0
    6.2575    7.6709    6.9714 O   0  0  0  0  0  0  0  0  0  0  0  0
    6.5438    7.3035    9.2392 C   0  0  0  0  0  0  0  0  0  0  0  0
    6.8248    6.3955   10.2648 C   0  0  0  0  0  0  0  0  0  0  0  0
    7.4198    6.8433   11.4519 C   0  0  0  0  0  0  0  0  0  0  0  0
    7.7385    8.1942   11.6174 C   0  0  0  0  0  0  0  0  0  0  0  0
    7.4514    9.1057   10.6068 C   0  0  0  0  0  0  0  0  0  0  0  0
    6.8564    8.6626    9.4266 C   0  0  0  0  0  0  0  0  0  0  0  0
    5.0408    5.8458    5.4453 N   0  0  0  0  0  0  0  0  0  0  0  0
    4.5221    5.3978    4.2928 C   0  0  0  0  0  0  0  0  0  0  0  0
    3.7604    4.2543    4.1716 C   0  0  0  0  0  0  0  0  0  0  0  0
    3.5579    3.5164    5.3472 C   0  0  0  0  0  0  0  0  0  0  0  0
    2.8119    1.2895    3.3347 C   0  0  0  0  0  0  0  0  0  0  0  0
    3.0636   -0.3608   -1.2378 C   0  0  0  0  0  0  0  0  0  0  0  0
    2.8302   -1.3818   -2.1537 C   0  0  0  0  0  0  0  0  0  0  0  0
    3.5694   -1.4575   -3.3421 C   0  0  0  0  0  0  0  0  0  0  0  0
    4.5482   -0.5065   -3.7025 C   0  0  0  0  0  0  0  0  0  0  0  0
    5.2907   -0.7044   -4.8506 N   0  0  0  0  0  0  0  0  0  0  0  0
    4.7638   -1.3707   -6.0625 C   0  0  0  0  0  0  0  0  0  0  0  0
    5.6730   -2.5432   -6.4710 C   0  0  0  0  0  0  0  0  0  0  0  0
    7.0342   -2.1204   -6.6495 O   0  0  0  0  0  0  0  0  0  0  0  0
    7.5435   -1.5673   -5.4279 C   0  0  0  0  0  0  0  0  0  0  0  0
    6.7208   -0.3559   -4.9667 C   0  0  0  0  0  0  0  0  0  0  0  0
    4.6949    0.5889   -2.8200 C   0  0  0  0  0  0  0  0  0  0  0  0
    5.5113    1.8339   -3.0973 C   0  0  0  0  0  0  0  0  0  0  0  0
    5.8825    2.0564   -4.3839 F   0  0  0  0  0  0  0  0  0  0  0  0
    4.8387    2.9691   -2.7323 F   0  0  0  0  0  0  0  0  0  0  0  0
    6.6616    1.8561   -2.3608 F   0  0  0  0  0  0  0  0  0  0  0  0
    3.9892    0.6206   -1.5791 C   0  0  0  0  0  0  0  0  0  0  0  0
    3.6896    0.7801    0.9994 H   0  0  0  0  0  0  0  0  0  0  0  0
    0.6054   -1.0119    2.1230 H   0  0  0  0  0  0  0  0  0  0  0  0
   -0.3152   -0.7561    4.3525 H   0  0  0  0  0  0  0  0  0  0  0  0
    0.6801    0.7926    5.9668 H   0  0  0  0  0  0  0  0  0  0  0  0
    2.3405    1.2609    7.3798 H   0  0  0  0  0  0  0  0  0  0  0  0
    3.7304    3.1690    8.6453 H   0  0  0  0  0  0  0  0  0  0  0  0
    5.0683    5.2164    8.6581 H   0  0  0  0  0  0  0  0  0  0  0  0
    6.6396    5.3324   10.1504 H   0  0  0  0  0  0  0  0  0  0  0  0
    7.6623    6.1367   12.2412 H   0  0  0  0  0  0  0  0  0  0  0  0
    8.2256    8.5327   12.5285 H   0  0  0  0  0  0  0  0  0  0  0  0
    7.7068   10.1564   10.7231 H   0  0  0  0  0  0  0  0  0  0  0  0
    6.6566    9.3818    8.6324 H   0  0  0  0  0  0  0  0  0  0  0  0
    4.7348    6.0213    3.4289 H   0  0  0  0  0  0  0  0  0  0  0  0
    3.3377    3.9784    3.2165 H   0  0  0  0  0  0  0  0  0  0  0  0
    3.7230    1.8090    3.0560 H   0  0  0  0  0  0  0  0  0  0  0  0
    2.0783   -2.1426   -1.9474 H   0  0  0  0  0  0  0  0  0  0  0  0
    3.3711   -2.3198   -3.9747 H   0  0  0  0  0  0  0  0  0  0  0  0
    4.7587   -0.6279   -6.8695 H   0  0  0  0  0  0  0  0  0  0  0  0
    3.7326   -1.7218   -5.9599 H   0  0  0  0  0  0  0  0  0  0  0  0
    5.3349   -2.9618   -7.4243 H   0  0  0  0  0  0  0  0  0  0  0  0
    5.6466   -3.3457   -5.7245 H   0  0  0  0  0  0  0  0  0  0  0  0
    8.5775   -1.2562   -5.6097 H   0  0  0  0  0  0  0  0  0  0  0  0
    7.5590   -2.3481   -4.6588 H   0  0  0  0  0  0  0  0  0  0  0  0
    6.8173    0.4366   -5.7180 H   0  0  0  0  0  0  0  0  0  0  0  0
    7.1439   -0.0049   -4.0217 H   0  0  0  0  0  0  0  0  0  0  0  0
    4.1454    1.4764   -0.9248 H   0  0  0  0  0  0  0  0  0  0  0  0
  1  2  2  0  0  0  0
  2  3  1  0  0  0  0
  2 28  1  0  0  0  0
  3  4  1  0  0  0  0
  3 44  1  0  0  0  0
  4  5  1  0  0  0  0
  4 27  2  0  0  0  0
  5  6  2  0  0  0  0
  5 45  1  0  0  0  0
  6  7  1  0  0  0  0
  6 46  1  0  0  0  0
  7  8  2  0  0  0  0
  7 47  1  0  0  0  0
  8  9  1  0  0  0  0
  8 27  1  0  0  0  0
  9 10  1  0  0  0  0
  9 26  1  0  0  0  0
 10 11  2  0  0  0  0
 10 48  1  0  0  0  0
 11 12  1  0  0  0  0
 11 49  1  0  0  0  0
 12 13  1  0  0  0  0
 12 26  2  0  0  0  0
 13 14  1  0  0  0  0
 13 23  2  0  0  0  0
 14 15  1  0  0  0  0
 14 50  1  0  0  0  0
 15 16  2  0  0  0  0
 15 17  1  0  0  0  0
 17 18  1  0  0  0  0
 17 22  2  0  0  0  0
 18 19  2  0  0  0  0
 18 51  1  0  0  0  0
 19 20  1  0  0  0  0
 19 52  1  0  0  0  0
 20 21  2  0  0  0  0
 20 53  1  0  0  0  0
 21 22  1  0  0  0  0
 21 54  1  0  0  0  0
 22 55  1  0  0  0  0
 23 24  1  0  0  0  0
 24 25  2  0  0  0  0
 24 56  1  0  0  0  0
 25 26  1  0  0  0  0
 25 57  1  0  0  0  0
 27 58  1  0  0  0  0
 28 29  1  0  0  0  0
 28 43  2  0  0  0  0
 29 30  2  0  0  0  0
 29 59  1  0  0  0  0
 30 31  1  0  0  0  0
 30 60  1  0  0  0  0
 31 32  1  0  0  0  0
 31 38  2  0  0  0  0
 32 33  1  0  0  0  0
 32 37  1  0  0  0  0
 33 34  1  0  0  0  0
 33 61  1  0  0  0  0
 33 62  1  0  0  0  0
 34 35  1  0  0  0  0
 34 63  1  0  0  0  0
 34 64  1  0  0  0  0
 35 36  1  0  0  0  0
 36 37  1  0  0  0  0
 36 65  1  0  0  0  0
 36 66  1  0  0  0  0
 37 67  1  0  0  0  0
 37 68  1  0  0  0  0
 38 39  1  0  0  0  0
 38 43  1  0  0  0  0
 39 40  1  0  0  0  0
 39 41  1  0  0  0  0
 39 42  1  0  0  0  0
 43 69  1  0  0  0  0
M  END
$$$$
