CHEMBL4248398
 OpenBabel04072215383D

 38 41  0  0  0  0  0  0  0  0999 V2000
    1.1053   -0.1625   -0.6549 C   0  0  0  0  0  0  0  0  0  0  0  0
    2.4550   -0.0710   -0.2158 O   0  0  0  0  0  0  0  0  0  0  0  0
    3.1018   -1.2547   -0.0042 C   0  0  0  0  0  0  0  0  0  0  0  0
    2.8066   -2.4648   -0.6105 C   0  0  0  0  0  0  0  0  0  0  0  0
    3.5792   -3.5969   -0.3127 C   0  0  0  0  0  0  0  0  0  0  0  0
    4.6597   -3.5657    0.5996 C   0  0  0  0  0  0  0  0  0  0  0  0
    4.9357   -2.3317    1.2077 C   0  0  0  0  0  0  0  0  0  0  0  0
    4.1709   -1.1932    0.8883 C   0  0  0  0  0  0  0  0  0  0  0  0
    6.1812   -2.0784    2.4571 S   0  0  0  0  0  0  0  0  0  0  0  0
    7.1192   -3.6123    2.4242 C   0  0  0  0  0  0  0  0  0  0  0  0
    6.5459   -4.7905    1.7224 C   0  0  0  0  0  0  0  0  0  0  0  0
    7.1800   -6.0127    1.8523 C   0  0  0  0  0  0  0  0  0  0  0  0
    6.7880   -7.1453    1.2476 N   0  0  0  0  0  0  0  0  0  0  0  0
    5.6996   -7.0659    0.4767 C   0  0  0  0  0  0  0  0  0  0  0  0
    5.2824   -8.2770   -0.0748 N   0  0  0  0  0  0  0  0  0  0  0  0
    4.0783   -8.6597   -0.6743 C   0  0  0  0  0  0  0  0  0  0  0  0
    3.7214  -10.0174   -0.6908 C   0  0  0  0  0  0  0  0  0  0  0  0
    2.4981  -10.4377   -1.2233 C   0  0  0  0  0  0  0  0  0  0  0  0
    1.6112   -9.5074   -1.7555 C   0  0  0  0  0  0  0  0  0  0  0  0
    1.9641   -8.1625   -1.7709 C   0  0  0  0  0  0  0  0  0  0  0  0
    0.7776   -6.8798   -2.4929 Br  0  0  0  0  0  0  0  0  0  0  0  0
    3.1856   -7.7464   -1.2445 C   0  0  0  0  0  0  0  0  0  0  0  0
    5.0275   -5.9212    0.2817 N   0  0  0  0  0  0  0  0  0  0  0  0
    5.4474   -4.7840    0.8917 C   0  0  0  0  0  0  0  0  0  0  0  0
    0.6868    0.8486   -0.6560 H   0  0  0  0  0  0  0  0  0  0  0  0
    0.5076   -0.7700    0.0331 H   0  0  0  0  0  0  0  0  0  0  0  0
    1.0425   -0.5460   -1.6795 H   0  0  0  0  0  0  0  0  0  0  0  0
    1.9984   -2.5656   -1.3282 H   0  0  0  0  0  0  0  0  0  0  0  0
    3.3162   -4.5251   -0.8135 H   0  0  0  0  0  0  0  0  0  0  0  0
    4.3935   -0.2360    1.3575 H   0  0  0  0  0  0  0  0  0  0  0  0
    7.2832   -3.8806    3.4749 H   0  0  0  0  0  0  0  0  0  0  0  0
    8.1001   -3.3878    1.9913 H   0  0  0  0  0  0  0  0  0  0  0  0
    8.0647   -6.1234    2.4763 H   0  0  0  0  0  0  0  0  0  0  0  0
    5.8756   -9.0131    0.2805 H   0  0  0  0  0  0  0  0  0  0  0  0
    4.3893  -10.7634   -0.2656 H   0  0  0  0  0  0  0  0  0  0  0  0
    2.2344  -11.4934   -1.2075 H   0  0  0  0  0  0  0  0  0  0  0  0
    0.6565   -9.8353   -2.1565 H   0  0  0  0  0  0  0  0  0  0  0  0
    3.4414   -6.6960   -1.2898 H   0  0  0  0  0  0  0  0  0  0  0  0
  1  2  1  0  0  0  0
  1 25  1  0  0  0  0
  1 26  1  0  0  0  0
  1 27  1  0  0  0  0
  2  3  1  0  0  0  0
  3  4  1  0  0  0  0
  3  8  2  0  0  0  0
  4  5  2  0  0  0  0
  4 28  1  0  0  0  0
  5  6  1  0  0  0  0
  5 29  1  0  0  0  0
  6  7  2  0  0  0  0
  6 24  1  0  0  0  0
  7  8  1  0  0  0  0
  7  9  1  0  0  0  0
  8 30  1  0  0  0  0
  9 10  1  0  0  0  0
 10 11  1  0  0  0  0
 10 31  1  0  0  0  0
 10 32  1  0  0  0  0
 11 12  1  0  0  0  0
 11 24  2  0  0  0  0
 12 13  2  0  0  0  0
 12 33  1  0  0  0  0
 13 14  1  0  0  0  0
 14 15  1  0  0  0  0
 14 23  2  0  0  0  0
 15 16  1  0  0  0  0
 15 34  1  0  0  0  0
 16 17  1  0  0  0  0
 16 22  2  0  0  0  0
 17 18  2  0  0  0  0
 17 35  1  0  0  0  0
 18 19  1  0  0  0  0
 18 36  1  0  0  0  0
 19 20  2  0  0  0  0
 19 37  1  0  0  0  0
 20 21  1  0  0  0  0
 20 22  1  0  0  0  0
 22 38  1  0  0  0  0
 23 24  1  0  0  0  0
M  END
$$$$
