CHEMBL171125
 OpenBabel04072215363D

 58 62  0  0  0  0  0  0  0  0999 V2000
    2.4665   -0.0525    1.3202 C   0  0  0  0  0  0  0  0  0  0  0  0
    2.4806    0.2044   -0.0808 O   0  0  0  0  0  0  0  0  0  0  0  0
    3.1777   -0.6350   -0.9002 C   0  0  0  0  0  0  0  0  0  0  0  0
    4.2208   -1.4318   -0.4420 C   0  0  0  0  0  0  0  0  0  0  0  0
    4.8433   -2.3805   -1.2834 C   0  0  0  0  0  0  0  0  0  0  0  0
    5.7769   -3.3219   -0.8366 C   0  0  0  0  0  0  0  0  0  0  0  0
    6.0693   -3.4184    0.5494 N   0  0  0  0  0  0  0  0  0  0  0  0
    6.6600   -4.5422    1.1566 C   0  0  0  0  0  0  0  0  0  0  0  0
    6.2427   -5.8474    0.8465 C   0  0  0  0  0  0  0  0  0  0  0  0
    6.8988   -6.9709    1.3752 C   0  0  0  0  0  0  0  0  0  0  0  0
    7.9806   -6.8068    2.2383 C   0  0  0  0  0  0  0  0  0  0  0  0
    8.3456   -5.5202    2.5752 C   0  0  0  0  0  0  0  0  0  0  0  0
    7.6979   -4.4177    2.0644 C   0  0  0  0  0  0  0  0  0  0  0  0
    8.2274   -3.2481    2.5248 O   0  0  0  0  0  0  0  0  0  0  0  0
    9.2789   -3.7463    3.3790 C   0  0  0  0  0  0  0  0  0  0  0  0
    9.3723   -5.1844    3.4013 O   0  0  0  0  0  0  0  0  0  0  0  0
    6.3462   -4.2000   -1.6807 N   0  0  0  0  0  0  0  0  0  0  0  0
    5.9662   -4.1488   -2.9597 C   0  0  0  0  0  0  0  0  0  0  0  0
    5.0509   -3.3268   -3.4784 N   0  0  0  0  0  0  0  0  0  0  0  0
    4.4808   -2.4615   -2.6296 C   0  0  0  0  0  0  0  0  0  0  0  0
    3.4936   -1.6139   -3.0981 C   0  0  0  0  0  0  0  0  0  0  0  0
    2.8466   -0.6923   -2.2581 C   0  0  0  0  0  0  0  0  0  0  0  0
    1.9102    0.0689   -2.9097 O   0  0  0  0  0  0  0  0  0  0  0  0
    1.7556    1.4275   -2.4955 C   0  0  0  0  0  0  0  0  0  0  0  0
    3.0433    2.2565   -2.5556 C   0  0  0  0  0  0  0  0  0  0  0  0
    3.5776    2.3536   -3.9895 C   0  0  0  0  0  0  0  0  0  0  0  0
    4.8386    3.1100   -4.1052 N   0  0  0  0  0  0  0  0  0  0  0  0
    4.7476    4.5089   -3.6344 C   0  0  0  0  0  0  0  0  0  0  0  0
    3.8728    5.3950   -4.5327 C   0  0  0  0  0  0  0  0  0  0  0  0
    4.3771    5.4153   -5.8740 O   0  0  0  0  0  0  0  0  0  0  0  0
    4.4594    4.0896   -6.4145 C   0  0  0  0  0  0  0  0  0  0  0  0
    5.2904    3.1488   -5.5184 C   0  0  0  0  0  0  0  0  0  0  0  0
    2.9948    0.7586    1.8298 H   0  0  0  0  0  0  0  0  0  0  0  0
    2.8868   -1.0133    1.6283 H   0  0  0  0  0  0  0  0  0  0  0  0
    1.4244   -0.0502    1.6520 H   0  0  0  0  0  0  0  0  0  0  0  0
    4.5744   -1.3399    0.5779 H   0  0  0  0  0  0  0  0  0  0  0  0
    6.4545   -2.5496    0.9085 H   0  0  0  0  0  0  0  0  0  0  0  0
    5.4066   -5.9970    0.1671 H   0  0  0  0  0  0  0  0  0  0  0  0
    6.5688   -7.9664    1.0897 H   0  0  0  0  0  0  0  0  0  0  0  0
    8.5203   -7.6626    2.6302 H   0  0  0  0  0  0  0  0  0  0  0  0
    9.0995   -3.3966    4.4030 H   0  0  0  0  0  0  0  0  0  0  0  0
   10.2349   -3.3361    3.0325 H   0  0  0  0  0  0  0  0  0  0  0  0
    6.4406   -4.8504   -3.6402 H   0  0  0  0  0  0  0  0  0  0  0  0
    3.2091   -1.6655   -4.1458 H   0  0  0  0  0  0  0  0  0  0  0  0
    1.2709    1.4875   -1.5165 H   0  0  0  0  0  0  0  0  0  0  0  0
    1.0305    1.8725   -3.1882 H   0  0  0  0  0  0  0  0  0  0  0  0
    3.8233    1.8314   -1.9149 H   0  0  0  0  0  0  0  0  0  0  0  0
    2.8074    3.2488   -2.1599 H   0  0  0  0  0  0  0  0  0  0  0  0
    2.7928    2.7745   -4.6270 H   0  0  0  0  0  0  0  0  0  0  0  0
    3.7636    1.3369   -4.3575 H   0  0  0  0  0  0  0  0  0  0  0  0
    5.7663    4.9195   -3.6297 H   0  0  0  0  0  0  0  0  0  0  0  0
    4.4131    4.5622   -2.5942 H   0  0  0  0  0  0  0  0  0  0  0  0
    3.8850    6.4236   -4.1589 H   0  0  0  0  0  0  0  0  0  0  0  0
    2.8276    5.0646   -4.5406 H   0  0  0  0  0  0  0  0  0  0  0  0
    4.9326    4.1681   -7.3988 H   0  0  0  0  0  0  0  0  0  0  0  0
    3.4454    3.7062   -6.5725 H   0  0  0  0  0  0  0  0  0  0  0  0
    6.3312    3.4980   -5.5208 H   0  0  0  0  0  0  0  0  0  0  0  0
    5.3087    2.1392   -5.9458 H   0  0  0  0  0  0  0  0  0  0  0  0
  1  2  1  0  0  0  0
  1 33  1  0  0  0  0
  1 34  1  0  0  0  0
  1 35  1  0  0  0  0
  2  3  1  0  0  0  0
  3  4  1  0  0  0  0
  3 22  2  0  0  0  0
  4  5  2  0  0  0  0
  4 36  1  0  0  0  0
  5  6  1  0  0  0  0
  5 20  1  0  0  0  0
  6  7  1  0  0  0  0
  6 17  2  0  0  0  0
  7  8  1  0  0  0  0
  7 37  1  0  0  0  0
  8  9  1  0  0  0  0
  8 13  2  0  0  0  0
  9 10  2  0  0  0  0
  9 38  1  0  0  0  0
 10 11  1  0  0  0  0
 10 39  1  0  0  0  0
 11 12  2  0  0  0  0
 11 40  1  0  0  0  0
 12 13  1  0  0  0  0
 12 16  1  0  0  0  0
 13 14  1  0  0  0  0
 14 15  1  0  0  0  0
 15 16  1  0  0  0  0
 15 41  1  0  0  0  0
 15 42  1  0  0  0  0
 17 18  1  0  0  0  0
 18 19  2  0  0  0  0
 18 43  1  0  0  0  0
 19 20  1  0  0  0  0
 20 21  2  0  0  0  0
 21 22  1  0  0  0  0
 21 44  1  0  0  0  0
 22 23  1  0  0  0  0
 23 24  1  0  0  0  0
 24 25  1  0  0  0  0
 24 45  1  0  0  0  0
 24 46  1  0  0  0  0
 25 26  1  0  0  0  0
 25 47  1  0  0  0  0
 25 48  1  0  0  0  0
 26 27  1  0  0  0  0
 26 49  1  0  0  0  0
 26 50  1  0  0  0  0
 27 28  1  0  0  0  0
 27 32  1  0  0  0  0
 28 29  1  0  0  0  0
 28 51  1  0  0  0  0
 28 52  1  0  0  0  0
 29 30  1  0  0  0  0
 29 53  1  0  0  0  0
 29 54  1  0  0  0  0
 30 31  1  0  0  0  0
 31 32  1  0  0  0  0
 31 55  1  0  0  0  0
 31 56  1  0  0  0  0
 32 57  1  0  0  0  0
 32 58  1  0  0  0  0
M  END
$$$$
