CHEMBL3986500
 OpenBabel04072215373D

 68 72  0  0  1  0  0  0  0  0999 V2000
   -1.9779    3.2251   -2.5209 C   0  0  0  0  0  0  0  0  0  0  0  0
   -0.6732    2.6848   -2.1847 N   0  0  0  0  0  0  0  0  0  0  0  0
   -0.3037    2.8844   -0.7889 C   0  0  0  0  0  0  0  0  0  0  0  0
    1.1561    2.4558   -0.7870 C   0  0  0  0  0  0  0  0  0  0  0  0
    1.6928    2.8681   -2.1639 C   0  0  3  0  0  0  0  0  0  0  0  0
    2.3161    1.7641   -2.8325 O   0  0  0  0  0  0  0  0  0  0  0  0
    3.5196    1.3088   -2.3723 C   0  0  0  0  0  0  0  0  0  0  0  0
    3.7892   -0.0368   -2.6472 C   0  0  0  0  0  0  0  0  0  0  0  0
    5.0065   -0.6239   -2.2834 C   0  0  0  0  0  0  0  0  0  0  0  0
    5.2745   -1.9938   -2.5374 N   0  0  0  0  0  0  0  0  0  0  0  0
    4.3421   -2.9827   -2.2488 C   0  0  0  0  0  0  0  0  0  0  0  0
    3.2249   -2.7512   -1.7934 O   0  0  0  0  0  0  0  0  0  0  0  0
    4.8305   -4.2710   -2.4634 N   0  0  0  0  0  0  0  0  0  0  0  0
    4.0147   -5.4010   -2.1907 C   0  0  0  0  0  0  0  0  0  0  0  0
    2.6775   -5.4398   -2.6006 C   0  0  0  0  0  0  0  0  0  0  0  0
    1.8434   -6.5063   -2.2430 C   0  0  0  0  0  0  0  0  0  0  0  0
    2.3486   -7.5863   -1.5142 C   0  0  0  0  0  0  0  0  0  0  0  0
    1.5823   -8.6613   -1.1120 O   0  0  0  0  0  0  0  0  0  0  0  0
    0.5986   -9.1618   -1.9505 C   0  0  0  0  0  0  0  0  0  0  0  0
    0.6839   -9.0981   -3.3377 C   0  0  0  0  0  0  0  0  0  0  0  0
   -0.3799   -9.5736   -4.0727 C   0  0  0  0  0  0  0  0  0  0  0  0
   -1.4616  -10.1534   -3.5281 N   0  0  0  0  0  0  0  0  0  0  0  0
   -1.5193  -10.2894   -2.1825 C   0  0  0  0  0  0  0  0  0  0  0  0
   -2.6356  -10.9481   -1.6271 N   0  0  0  0  0  0  0  0  0  0  0  0
   -3.7072  -11.4205   -2.3854 C   0  0  0  0  0  0  0  0  0  0  0  0
   -3.8537  -11.3122   -3.5956 O   0  0  0  0  0  0  0  0  0  0  0  0
   -4.7945  -12.1381   -1.6618 C   0  0  0  0  0  0  0  0  0  0  0  0
   -5.6000  -11.4272   -0.6046 C   0  0  0  0  0  0  0  0  0  0  0  0
   -4.7781  -12.6312   -0.2425 C   0  0  0  0  0  0  0  0  0  0  0  0
   -0.5056   -9.8053   -1.3634 C   0  0  0  0  0  0  0  0  0  0  0  0
    3.6862   -7.5416   -1.1104 C   0  0  0  0  0  0  0  0  0  0  0  0
    4.1875   -8.5215   -0.3416 F   0  0  0  0  0  0  0  0  0  0  0  0
    4.5277   -6.4781   -1.4640 C   0  0  0  0  0  0  0  0  0  0  0  0
    5.9846    0.1645   -1.6726 C   0  0  0  0  0  0  0  0  0  0  0  0
    5.7300    1.5211   -1.3895 C   0  0  0  0  0  0  0  0  0  0  0  0
    6.7767    2.4062   -0.7580 C   0  0  0  0  0  0  0  0  0  0  0  0
    7.9488    1.7654   -0.4942 F   0  0  0  0  0  0  0  0  0  0  0  0
    7.1015    3.4609   -1.5569 F   0  0  0  0  0  0  0  0  0  0  0  0
    6.3695    2.9467    0.4236 F   0  0  0  0  0  0  0  0  0  0  0  0
    4.4844    2.0810   -1.7341 C   0  0  0  0  0  0  0  0  0  0  0  0
    0.4303    3.2793   -2.9495 C   0  0  0  0  0  0  0  0  0  0  0  0
   -2.7576    2.6968   -1.9605 H   0  0  0  0  0  0  0  0  0  0  0  0
   -2.1951    3.0712   -3.5838 H   0  0  0  0  0  0  0  0  0  0  0  0
   -2.0631    4.2950   -2.3022 H   0  0  0  0  0  0  0  0  0  0  0  0
   -0.9038    2.2735   -0.1061 H   0  0  0  0  0  0  0  0  0  0  0  0
   -0.3920    3.9365   -0.4890 H   0  0  0  0  0  0  0  0  0  0  0  0
    1.2298    1.3714   -0.6416 H   0  0  0  0  0  0  0  0  0  0  0  0
    1.7096    2.9418    0.0227 H   0  0  0  0  0  0  0  0  0  0  0  0
    2.3618    3.7348   -2.1128 H   0  0  0  0  0  0  0  0  0  0  0  0
    3.0356   -0.6202   -3.1731 H   0  0  0  0  0  0  0  0  0  0  0  0
    6.2411   -2.2731   -2.5967 H   0  0  0  0  0  0  0  0  0  0  0  0
    5.8242   -4.3892   -2.3384 H   0  0  0  0  0  0  0  0  0  0  0  0
    2.2617   -4.6279   -3.1950 H   0  0  0  0  0  0  0  0  0  0  0  0
    0.7988   -6.4673   -2.5435 H   0  0  0  0  0  0  0  0  0  0  0  0
    1.5322   -8.6716   -3.8532 H   0  0  0  0  0  0  0  0  0  0  0  0
   -0.4025   -9.4947   -5.1544 H   0  0  0  0  0  0  0  0  0  0  0  0
   -2.6620  -11.0662   -0.6295 H   0  0  0  0  0  0  0  0  0  0  0  0
   -5.3700  -12.7613   -2.3500 H   0  0  0  0  0  0  0  0  0  0  0  0
   -6.6792  -11.5290   -0.6540 H   0  0  0  0  0  0  0  0  0  0  0  0
   -5.2673  -10.4541   -0.2649 H   0  0  0  0  0  0  0  0  0  0  0  0
   -5.3096  -13.5563   -0.0351 H   0  0  0  0  0  0  0  0  0  0  0  0
   -3.9001  -12.4951    0.3734 H   0  0  0  0  0  0  0  0  0  0  0  0
   -0.5559   -9.9097   -0.2839 H   0  0  0  0  0  0  0  0  0  0  0  0
    5.5500   -6.4785   -1.0977 H   0  0  0  0  0  0  0  0  0  0  0  0
    6.9313   -0.2768   -1.3671 H   0  0  0  0  0  0  0  0  0  0  0  0
    4.3147    3.1334   -1.5242 H   0  0  0  0  0  0  0  0  0  0  0  0
    0.4423    2.9220   -3.9844 H   0  0  0  0  0  0  0  0  0  0  0  0
    0.3457    4.3743   -2.9524 H   0  0  0  0  0  0  0  0  0  0  0  0
  1  2  1  0  0  0  0
  1 42  1  0  0  0  0
  1 43  1  0  0  0  0
  1 44  1  0  0  0  0
  2  3  1  0  0  0  0
  2 41  1  0  0  0  0
  3  4  1  0  0  0  0
  3 45  1  0  0  0  0
  3 46  1  0  0  0  0
  4  5  1  0  0  0  0
  4 47  1  0  0  0  0
  4 48  1  0  0  0  0
  5  6  1  0  0  0  0
  5 41  1  0  0  0  0
  5 49  1  0  0  0  0
  6  7  1  0  0  0  0
  7  8  1  0  0  0  0
  7 40  2  0  0  0  0
  8  9  2  0  0  0  0
  8 50  1  0  0  0  0
  9 10  1  0  0  0  0
  9 34  1  0  0  0  0
 10 11  1  0  0  0  0
 10 51  1  0  0  0  0
 11 12  2  0  0  0  0
 11 13  1  0  0  0  0
 13 14  1  0  0  0  0
 13 52  1  0  0  0  0
 14 15  1  0  0  0  0
 14 33  2  0  0  0  0
 15 16  2  0  0  0  0
 15 53  1  0  0  0  0
 16 17  1  0  0  0  0
 16 54  1  0  0  0  0
 17 18  1  0  0  0  0
 17 31  2  0  0  0  0
 18 19  1  0  0  0  0
 19 20  1  0  0  0  0
 19 30  2  0  0  0  0
 20 21  2  0  0  0  0
 20 55  1  0  0  0  0
 21 22  1  0  0  0  0
 21 56  1  0  0  0  0
 22 23  2  0  0  0  0
 23 24  1  0  0  0  0
 23 30  1  0  0  0  0
 24 25  1  0  0  0  0
 24 57  1  0  0  0  0
 25 26  2  0  0  0  0
 25 27  1  0  0  0  0
 27 28  1  0  0  0  0
 27 29  1  0  0  0  0
 27 58  1  0  0  0  0
 28 29  1  0  0  0  0
 28 59  1  0  0  0  0
 28 60  1  0  0  0  0
 29 61  1  0  0  0  0
 29 62  1  0  0  0  0
 30 63  1  0  0  0  0
 31 32  1  0  0  0  0
 31 33  1  0  0  0  0
 33 64  1  0  0  0  0
 34 35  2  0  0  0  0
 34 65  1  0  0  0  0
 35 36  1  0  0  0  0
 35 40  1  0  0  0  0
 36 37  1  0  0  0  0
 36 38  1  0  0  0  0
 36 39  1  0  0  0  0
 40 66  1  0  0  0  0
 41 67  1  0  0  0  0
 41 68  1  0  0  0  0
M  END
$$$$
