CHEMBL4644658
 OpenBabel04072215383D

 74 77  0  0  0  0  0  0  0  0999 V2000
    9.2238   -0.4194    6.4087 C   0  0  0  0  0  0  0  0  0  0  0  0
    8.3070   -0.7104    5.2365 C   0  0  0  0  0  0  0  0  0  0  0  0
    6.9014   -0.7508    5.7071 N   0  0  0  0  0  0  0  0  0  0  0  0
    5.7562   -1.0672    4.4673 S   0  0  0  0  0  0  0  0  0  0  0  0
    6.4912   -1.7741    3.4426 O   0  0  0  0  0  0  0  0  0  0  0  0
    4.5886   -1.6289    5.1074 O   0  0  0  0  0  0  0  0  0  0  0  0
    5.3266    0.5987    3.9733 C   0  0  0  0  0  0  0  0  0  0  0  0
    4.7998    1.3911    5.0145 C   0  0  0  0  0  0  0  0  0  0  0  0
    4.6381    2.7648    4.8589 C   0  0  0  0  0  0  0  0  0  0  0  0
    5.0056    3.3637    3.6647 C   0  0  0  0  0  0  0  0  0  0  0  0
    5.4679    2.5725    2.6108 C   0  0  0  0  0  0  0  0  0  0  0  0
    5.5821    1.1698    2.7151 C   0  0  0  0  0  0  0  0  0  0  0  0
    5.9481    0.5273    1.5356 N   0  0  0  0  0  0  0  0  0  0  0  0
    5.5970   -0.7334    1.0649 C   0  0  0  0  0  0  0  0  0  0  0  0
    4.4735   -1.3296    1.4460 N   0  0  0  0  0  0  0  0  0  0  0  0
    4.3963   -2.6083    1.0947 C   0  0  0  0  0  0  0  0  0  0  0  0
    5.3016   -3.2931    0.4043 N   0  0  0  0  0  0  0  0  0  0  0  0
    6.3671   -2.5831    0.0543 C   0  0  0  0  0  0  0  0  0  0  0  0
    7.4041   -3.2807   -0.5502 N   0  0  0  0  0  0  0  0  0  0  0  0
    8.7688   -2.9699   -0.5589 C   0  0  0  0  0  0  0  0  0  0  0  0
    9.3008   -1.6955   -0.4638 C   0  0  0  0  0  0  0  0  0  0  0  0
   10.6779   -1.4846   -0.5714 C   0  0  0  0  0  0  0  0  0  0  0  0
   11.6004   -2.5324   -0.7605 C   0  0  0  0  0  0  0  0  0  0  0  0
   12.9080   -2.2163   -1.0989 N   0  0  0  0  0  0  0  0  0  0  0  0
   13.2148   -0.9203   -1.7511 C   0  0  0  0  0  0  0  0  0  0  0  0
   14.3695   -1.0654   -2.7659 C   0  0  0  0  0  0  0  0  0  0  0  0
   15.5617   -1.6697   -2.1426 N   0  0  0  0  0  0  0  0  0  0  0  0
   16.6787   -1.7360   -3.0729 C   0  0  0  0  0  0  0  0  0  0  0  0
   15.1892   -3.0164   -1.6497 C   0  0  0  0  0  0  0  0  0  0  0  0
   14.0760   -2.9397   -0.5775 C   0  0  0  0  0  0  0  0  0  0  0  0
   11.0647   -3.8357   -0.6733 C   0  0  0  0  0  0  0  0  0  0  0  0
   11.8715   -4.9606   -0.6282 O   0  0  0  0  0  0  0  0  0  0  0  0
   11.2535   -6.0338    0.0881 C   0  0  0  0  0  0  0  0  0  0  0  0
   12.1415   -7.1052    0.6594 C   0  0  0  0  0  0  0  0  0  0  0  0
   13.3614   -7.1831    0.5320 O   0  0  0  0  0  0  0  0  0  0  0  0
   11.3482   -8.0401    1.2684 O   0  0  0  0  0  0  0  0  0  0  0  0
   11.9542   -9.3186    1.4628 C   0  0  0  0  0  0  0  0  0  0  0  0
   11.7576  -10.1161    0.1881 C   0  0  0  0  0  0  0  0  0  0  0  0
    9.6663   -4.0181   -0.6644 C   0  0  0  0  0  0  0  0  0  0  0  0
    6.5141   -1.2916    0.3060 N   0  0  0  0  0  0  0  0  0  0  0  0
   10.2680   -0.4494    6.0841 H   0  0  0  0  0  0  0  0  0  0  0  0
    9.0905   -1.1561    7.2076 H   0  0  0  0  0  0  0  0  0  0  0  0
    9.0221    0.5720    6.8269 H   0  0  0  0  0  0  0  0  0  0  0  0
    8.5789   -1.6810    4.8131 H   0  0  0  0  0  0  0  0  0  0  0  0
    8.4240    0.0685    4.4761 H   0  0  0  0  0  0  0  0  0  0  0  0
    6.6528    0.0947    6.2182 H   0  0  0  0  0  0  0  0  0  0  0  0
    4.5277    0.9369    5.9664 H   0  0  0  0  0  0  0  0  0  0  0  0
    4.2440    3.3663    5.6740 H   0  0  0  0  0  0  0  0  0  0  0  0
    4.9095    4.4355    3.5347 H   0  0  0  0  0  0  0  0  0  0  0  0
    5.7091    3.0583    1.6664 H   0  0  0  0  0  0  0  0  0  0  0  0
    6.8885    0.7224    1.2142 H   0  0  0  0  0  0  0  0  0  0  0  0
    3.5197   -3.1535    1.4267 H   0  0  0  0  0  0  0  0  0  0  0  0
    7.1636   -4.2624   -0.5684 H   0  0  0  0  0  0  0  0  0  0  0  0
    8.6710   -0.8219   -0.3475 H   0  0  0  0  0  0  0  0  0  0  0  0
   11.0185   -0.4536   -0.5127 H   0  0  0  0  0  0  0  0  0  0  0  0
   13.4726   -0.1654   -0.9962 H   0  0  0  0  0  0  0  0  0  0  0  0
   12.3528   -0.5432   -2.3168 H   0  0  0  0  0  0  0  0  0  0  0  0
   14.6097   -0.0703   -3.1604 H   0  0  0  0  0  0  0  0  0  0  0  0
   14.0244   -1.6735   -3.6143 H   0  0  0  0  0  0  0  0  0  0  0  0
   16.9407   -0.7321   -3.4258 H   0  0  0  0  0  0  0  0  0  0  0  0
   16.4692   -2.3675   -3.9424 H   0  0  0  0  0  0  0  0  0  0  0  0
   17.5653   -2.1267   -2.5618 H   0  0  0  0  0  0  0  0  0  0  0  0
   16.0634   -3.5010   -1.2018 H   0  0  0  0  0  0  0  0  0  0  0  0
   14.8502   -3.6506   -2.4813 H   0  0  0  0  0  0  0  0  0  0  0  0
   14.4675   -2.4090    0.3003 H   0  0  0  0  0  0  0  0  0  0  0  0
   13.8477   -3.9527   -0.2476 H   0  0  0  0  0  0  0  0  0  0  0  0
   10.5879   -6.5715   -0.6071 H   0  0  0  0  0  0  0  0  0  0  0  0
   10.6962   -5.6511    0.9517 H   0  0  0  0  0  0  0  0  0  0  0  0
   11.4431   -9.8109    2.2994 H   0  0  0  0  0  0  0  0  0  0  0  0
   13.0097   -9.2291    1.7282 H   0  0  0  0  0  0  0  0  0  0  0  0
   10.6900  -10.2477   -0.0200 H   0  0  0  0  0  0  0  0  0  0  0  0
   12.2315  -11.0976    0.2584 H   0  0  0  0  0  0  0  0  0  0  0  0
   12.1760   -9.5817   -0.6731 H   0  0  0  0  0  0  0  0  0  0  0  0
    9.2400   -5.0135   -0.7142 H   0  0  0  0  0  0  0  0  0  0  0  0
  1  2  1  0  0  0  0
  1 41  1  0  0  0  0
  1 42  1  0  0  0  0
  1 43  1  0  0  0  0
  2  3  1  0  0  0  0
  2 44  1  0  0  0  0
  2 45  1  0  0  0  0
  3  4  1  0  0  0  0
  3 46  1  0  0  0  0
  4  5  2  0  0  0  0
  4  6  2  0  0  0  0
  4  7  1  0  0  0  0
  7  8  1  0  0  0  0
  7 12  2  0  0  0  0
  8  9  2  0  0  0  0
  8 47  1  0  0  0  0
  9 10  1  0  0  0  0
  9 48  1  0  0  0  0
 10 11  2  0  0  0  0
 10 49  1  0  0  0  0
 11 12  1  0  0  0  0
 11 50  1  0  0  0  0
 12 13  1  0  0  0  0
 13 14  1  0  0  0  0
 13 51  1  0  0  0  0
 14 15  1  0  0  0  0
 14 40  2  0  0  0  0
 15 16  2  0  0  0  0
 16 17  1  0  0  0  0
 16 52  1  0  0  0  0
 17 18  2  0  0  0  0
 18 19  1  0  0  0  0
 18 40  1  0  0  0  0
 19 20  1  0  0  0  0
 19 53  1  0  0  0  0
 20 21  1  0  0  0  0
 20 39  2  0  0  0  0
 21 22  2  0  0  0  0
 21 54  1  0  0  0  0
 22 23  1  0  0  0  0
 22 55  1  0  0  0  0
 23 24  1  0  0  0  0
 23 31  2  0  0  0  0
 24 25  1  0  0  0  0
 24 30  1  0  0  0  0
 25 26  1  0  0  0  0
 25 56  1  0  0  0  0
 25 57  1  0  0  0  0
 26 27  1  0  0  0  0
 26 58  1  0  0  0  0
 26 59  1  0  0  0  0
 27 28  1  0  0  0  0
 27 29  1  0  0  0  0
 28 60  1  0  0  0  0
 28 61  1  0  0  0  0
 28 62  1  0  0  0  0
 29 30  1  0  0  0  0
 29 63  1  0  0  0  0
 29 64  1  0  0  0  0
 30 65  1  0  0  0  0
 30 66  1  0  0  0  0
 31 32  1  0  0  0  0
 31 39  1  0  0  0  0
 32 33  1  0  0  0  0
 33 34  1  0  0  0  0
 33 67  1  0  0  0  0
 33 68  1  0  0  0  0
 34 35  2  0  0  0  0
 34 36  1  0  0  0  0
 36 37  1  0  0  0  0
 37 38  1  0  0  0  0
 37 69  1  0  0  0  0
 37 70  1  0  0  0  0
 38 71  1  0  0  0  0
 38 72  1  0  0  0  0
 38 73  1  0  0  0  0
 39 74  1  0  0  0  0
M  END
$$$$
