CHEMBL4449189
 OpenBabel04072215383D

 51 54  0  0  0  0  0  0  0  0999 V2000
    0.3339    3.7182   -6.4053 O   0  0  0  0  0  0  0  0  0  0  0  0
    0.9166    4.2602   -7.3432 C   0  0  0  0  0  0  0  0  0  0  0  0
    2.1734    5.1002   -7.1932 C   0  0  0  0  0  0  0  0  0  0  0  0
    2.6990    5.2870   -5.4654 S   0  0  0  0  0  0  0  0  0  0  0  0
    3.0852    3.5973   -5.0730 C   0  0  0  0  0  0  0  0  0  0  0  0
    2.8842    3.2177   -3.8032 N   0  0  0  0  0  0  0  0  0  0  0  0
    3.2936    1.9818   -3.4832 C   0  0  0  0  0  0  0  0  0  0  0  0
    3.9076    1.1334   -4.3723 C   0  0  0  0  0  0  0  0  0  0  0  0
    4.0920    1.6136   -5.6535 C   0  0  0  0  0  0  0  0  0  0  0  0
    4.8025    0.8025   -6.5704 N   0  0  0  0  0  0  0  0  0  0  0  0
    5.4136    1.2497   -7.7563 C   0  0  0  0  0  0  0  0  0  0  0  0
    6.0946    2.4696   -7.8029 C   0  0  0  0  0  0  0  0  0  0  0  0
    6.6825    2.9328   -8.9853 C   0  0  0  0  0  0  0  0  0  0  0  0
    6.5967    2.2019  -10.1713 C   0  0  0  0  0  0  0  0  0  0  0  0
    7.1520    2.6325  -11.3623 N   0  0  0  0  0  0  0  0  0  0  0  0
    8.3283    3.5159  -11.4140 C   0  0  0  0  0  0  0  0  0  0  0  0
    7.9518    4.9287  -11.8817 C   0  0  0  0  0  0  0  0  0  0  0  0
    7.2209    4.9009  -13.1186 O   0  0  0  0  0  0  0  0  0  0  0  0
    6.0106    4.1445  -12.9576 C   0  0  0  0  0  0  0  0  0  0  0  0
    6.2969    2.6859  -12.5620 C   0  0  0  0  0  0  0  0  0  0  0  0
    5.9320    0.9659  -10.1086 C   0  0  0  0  0  0  0  0  0  0  0  0
    5.3591    0.4867   -8.9219 C   0  0  0  0  0  0  0  0  0  0  0  0
    3.6820    2.8460   -6.0114 N   0  0  0  0  0  0  0  0  0  0  0  0
    0.3292    4.1051   -8.7126 C   0  0  0  0  0  0  0  0  0  0  0  0
   -0.8548    3.3594   -8.8396 C   0  0  0  0  0  0  0  0  0  0  0  0
   -1.4689    3.2039  -10.0860 C   0  0  0  0  0  0  0  0  0  0  0  0
   -0.8955    3.7962  -11.1989 C   0  0  0  0  0  0  0  0  0  0  0  0
   -1.4856    3.6603  -12.3976 F   0  0  0  0  0  0  0  0  0  0  0  0
    0.2789    4.5306  -11.1019 C   0  0  0  0  0  0  0  0  0  0  0  0
    0.8979    4.6874   -9.8550 C   0  0  0  0  0  0  0  0  0  0  0  0
    1.9549    6.1104   -7.5566 H   0  0  0  0  0  0  0  0  0  0  0  0
    2.9874    4.6789   -7.7900 H   0  0  0  0  0  0  0  0  0  0  0  0
    3.1323    1.6942   -2.4490 H   0  0  0  0  0  0  0  0  0  0  0  0
    4.2697    0.1630   -4.0623 H   0  0  0  0  0  0  0  0  0  0  0  0
    4.4205   -0.1330   -6.6240 H   0  0  0  0  0  0  0  0  0  0  0  0
    6.1781    3.0773   -6.9050 H   0  0  0  0  0  0  0  0  0  0  0  0
    7.1816    3.8956   -8.9543 H   0  0  0  0  0  0  0  0  0  0  0  0
    9.0224    3.0811  -12.1435 H   0  0  0  0  0  0  0  0  0  0  0  0
    8.8683    3.5576  -10.4615 H   0  0  0  0  0  0  0  0  0  0  0  0
    8.8615    5.5135  -12.0524 H   0  0  0  0  0  0  0  0  0  0  0  0
    7.3544    5.4549  -11.1285 H   0  0  0  0  0  0  0  0  0  0  0  0
    5.4770    4.1693  -13.9131 H   0  0  0  0  0  0  0  0  0  0  0  0
    5.3795    4.6419  -12.2114 H   0  0  0  0  0  0  0  0  0  0  0  0
    6.8338    2.1878  -13.3770 H   0  0  0  0  0  0  0  0  0  0  0  0
    5.3424    2.1643  -12.4280 H   0  0  0  0  0  0  0  0  0  0  0  0
    5.8827    0.3388  -10.9965 H   0  0  0  0  0  0  0  0  0  0  0  0
    4.8615   -0.4787   -8.9345 H   0  0  0  0  0  0  0  0  0  0  0  0
   -1.3109    2.8973   -7.9651 H   0  0  0  0  0  0  0  0  0  0  0  0
   -2.3860    2.6359  -10.1827 H   0  0  0  0  0  0  0  0  0  0  0  0
    0.7053    4.9833  -11.9924 H   0  0  0  0  0  0  0  0  0  0  0  0
    1.8141    5.2674   -9.8100 H   0  0  0  0  0  0  0  0  0  0  0  0
  1  2  2  0  0  0  0
  2  3  1  0  0  0  0
  2 24  1  0  0  0  0
  3  4  1  0  0  0  0
  3 31  1  0  0  0  0
  3 32  1  0  0  0  0
  4  5  1  0  0  0  0
  5  6  1  0  0  0  0
  5 23  2  0  0  0  0
  6  7  2  0  0  0  0
  7  8  1  0  0  0  0
  7 33  1  0  0  0  0
  8  9  2  0  0  0  0
  8 34  1  0  0  0  0
  9 10  1  0  0  0  0
  9 23  1  0  0  0  0
 10 11  1  0  0  0  0
 10 35  1  0  0  0  0
 11 12  1  0  0  0  0
 11 22  2  0  0  0  0
 12 13  2  0  0  0  0
 12 36  1  0  0  0  0
 13 14  1  0  0  0  0
 13 37  1  0  0  0  0
 14 15  1  0  0  0  0
 14 21  2  0  0  0  0
 15 16  1  0  0  0  0
 15 20  1  0  0  0  0
 16 17  1  0  0  0  0
 16 38  1  0  0  0  0
 16 39  1  0  0  0  0
 17 18  1  0  0  0  0
 17 40  1  0  0  0  0
 17 41  1  0  0  0  0
 18 19  1  0  0  0  0
 19 20  1  0  0  0  0
 19 42  1  0  0  0  0
 19 43  1  0  0  0  0
 20 44  1  0  0  0  0
 20 45  1  0  0  0  0
 21 22  1  0  0  0  0
 21 46  1  0  0  0  0
 22 47  1  0  0  0  0
 24 25  1  0  0  0  0
 24 30  2  0  0  0  0
 25 26  2  0  0  0  0
 25 48  1  0  0  0  0
 26 27  1  0  0  0  0
 26 49  1  0  0  0  0
 27 28  1  0  0  0  0
 27 29  2  0  0  0  0
 29 30  1  0  0  0  0
 29 50  1  0  0  0  0
 30 51  1  0  0  0  0
M  END
$$$$
