CHEMBL3907047
 OpenBabel04072215373D

 64 67  0  0  1  0  0  0  0  0999 V2000
    1.0235   -1.6863   -4.0752 C   0  0  0  0  0  0  0  0  0  0  0  0
    1.9836   -2.5305   -3.4379 O   0  0  0  0  0  0  0  0  0  0  0  0
    2.9617   -1.9048   -2.7028 C   0  0  0  0  0  0  0  0  0  0  0  0
    2.8506   -0.6083   -2.1983 C   0  0  0  0  0  0  0  0  0  0  0  0
    3.8751   -0.0759   -1.4205 C   0  0  0  0  0  0  0  0  0  0  0  0
    3.8787    1.1690   -0.8479 O   0  0  0  0  0  0  0  0  0  0  0  0
    2.7867    2.0274   -1.1592 C   0  0  0  0  0  0  0  0  0  0  0  0
    5.0098   -0.8490   -1.1401 C   0  0  0  0  0  0  0  0  0  0  0  0
    5.1541   -2.1651   -1.6073 C   0  0  0  0  0  0  0  0  0  0  0  0
    6.2134   -3.0148   -1.1919 N   0  0  0  0  0  0  0  0  0  0  0  0
    6.7709   -2.7607    0.1990 C   0  0  0  0  0  0  0  0  0  0  0  0
    5.7608   -2.9494    1.3679 C   0  0  3  0  0  0  0  0  0  0  0  0
    5.3726   -4.3255    1.5298 O   0  0  0  0  0  0  0  0  0  0  0  0
    6.3971   -2.5288    2.7223 C   0  0  0  0  0  0  0  0  0  0  0  0
    6.8574   -1.1406    2.7251 N   0  0  0  0  0  0  0  0  0  0  0  0
    7.4060   -0.7217    4.0390 C   0  0  0  0  0  0  0  0  0  0  0  0
    7.9079    0.7417    4.1165 C   0  0  0  0  0  0  0  0  0  0  0  0
    7.7231    1.4028    2.9511 F   0  0  0  0  0  0  0  0  0  0  0  0
    7.2423    1.4301    5.0725 F   0  0  0  0  0  0  0  0  0  0  0  0
    9.2248    0.7962    4.4138 F   0  0  0  0  0  0  0  0  0  0  0  0
    7.3004   -3.5231   -2.0002 C   0  0  0  0  0  0  0  0  0  0  0  0
    7.7362   -4.7942   -1.6300 C   0  0  0  0  0  0  0  0  0  0  0  0
    9.0313   -5.1901   -1.9048 C   0  0  0  0  0  0  0  0  0  0  0  0
    9.8830   -4.4219   -2.6553 C   0  0  0  0  0  0  0  0  0  0  0  0
   11.1404   -4.8665   -2.6850 N   0  0  0  0  0  0  0  0  0  0  0  0
   11.9799   -4.2353   -3.5042 C   0  0  0  0  0  0  0  0  0  0  0  0
   11.5666   -3.2226   -4.3311 C   0  0  0  0  0  0  0  0  0  0  0  0
   12.5153   -2.8480   -5.3899 C   0  0  0  0  0  0  0  0  0  0  0  0
   12.6362   -3.3427   -6.7168 C   0  0  0  0  0  0  0  0  0  0  0  0
   13.7724   -2.9620   -7.3156 N   0  0  0  0  0  0  0  0  0  0  0  0
   14.3890   -2.2280   -6.3742 N   0  0  0  0  0  0  0  0  0  0  0  0
   15.5201   -1.3973   -6.7162 C   0  0  0  0  0  0  0  0  0  0  0  0
   13.7587   -2.2802   -5.1603 C   0  0  0  0  0  0  0  0  0  0  0  0
   10.2993   -2.6868   -4.2449 N   0  0  0  0  0  0  0  0  0  0  0  0
    9.4243   -3.2613   -3.3284 C   0  0  0  0  0  0  0  0  0  0  0  0
    8.1077   -2.8042   -2.9337 C   0  0  0  0  0  0  0  0  0  0  0  0
    4.1061   -2.6734   -2.4035 C   0  0  0  0  0  0  0  0  0  0  0  0
    0.3449   -2.3171   -4.6587 H   0  0  0  0  0  0  0  0  0  0  0  0
    1.5156   -0.9937   -4.7672 H   0  0  0  0  0  0  0  0  0  0  0  0
    0.4055   -1.1416   -3.3520 H   0  0  0  0  0  0  0  0  0  0  0  0
    1.9586   -0.0259   -2.3847 H   0  0  0  0  0  0  0  0  0  0  0  0
    2.9700    2.9923   -0.6773 H   0  0  0  0  0  0  0  0  0  0  0  0
    1.8472    1.6300   -0.7609 H   0  0  0  0  0  0  0  0  0  0  0  0
    2.7158    2.2017   -2.2382 H   0  0  0  0  0  0  0  0  0  0  0  0
    5.7774   -0.3942   -0.5218 H   0  0  0  0  0  0  0  0  0  0  0  0
    7.2424   -1.7731    0.2180 H   0  0  0  0  0  0  0  0  0  0  0  0
    7.5753   -3.4750    0.4183 H   0  0  0  0  0  0  0  0  0  0  0  0
    4.8457   -2.3708    1.2073 H   0  0  0  0  0  0  0  0  0  0  0  0
    5.5893   -4.7959    0.7073 H   0  0  0  0  0  0  0  0  0  0  0  0
    7.2386   -3.2003    2.9410 H   0  0  0  0  0  0  0  0  0  0  0  0
    5.6633   -2.6931    3.5229 H   0  0  0  0  0  0  0  0  0  0  0  0
    6.0872   -0.5162    2.4823 H   0  0  0  0  0  0  0  0  0  0  0  0
    8.2410   -1.3800    4.3039 H   0  0  0  0  0  0  0  0  0  0  0  0
    6.6340   -0.8523    4.8074 H   0  0  0  0  0  0  0  0  0  0  0  0
    7.1190   -5.4323   -1.0046 H   0  0  0  0  0  0  0  0  0  0  0  0
    9.4039   -6.1193   -1.4800 H   0  0  0  0  0  0  0  0  0  0  0  0
   13.0025   -4.6037   -3.4928 H   0  0  0  0  0  0  0  0  0  0  0  0
   11.9676   -3.9982   -7.2609 H   0  0  0  0  0  0  0  0  0  0  0  0
   15.7312   -1.4762   -7.7864 H   0  0  0  0  0  0  0  0  0  0  0  0
   16.3912   -1.7058   -6.1337 H   0  0  0  0  0  0  0  0  0  0  0  0
   15.2468   -0.3659   -6.4761 H   0  0  0  0  0  0  0  0  0  0  0  0
   14.2305   -1.8902   -4.2694 H   0  0  0  0  0  0  0  0  0  0  0  0
    7.7554   -1.8424   -3.3087 H   0  0  0  0  0  0  0  0  0  0  0  0
    4.1421   -3.7044   -2.7495 H   0  0  0  0  0  0  0  0  0  0  0  0
  1  2  1  0  0  0  0
  1 38  1  0  0  0  0
  1 39  1  0  0  0  0
  1 40  1  0  0  0  0
  2  3  1  0  0  0  0
  3  4  1  0  0  0  0
  3 37  2  0  0  0  0
  4  5  2  0  0  0  0
  4 41  1  0  0  0  0
  5  6  1  0  0  0  0
  5  8  1  0  0  0  0
  6  7  1  0  0  0  0
  7 42  1  0  0  0  0
  7 43  1  0  0  0  0
  7 44  1  0  0  0  0
  8  9  2  0  0  0  0
  8 45  1  0  0  0  0
  9 10  1  0  0  0  0
  9 37  1  0  0  0  0
 10 11  1  0  0  0  0
 10 21  1  0  0  0  0
 11 12  1  0  0  0  0
 11 46  1  0  0  0  0
 11 47  1  0  0  0  0
 12 13  1  0  0  0  0
 12 14  1  0  0  0  0
 12 48  1  0  0  0  0
 13 49  1  0  0  0  0
 14 15  1  0  0  0  0
 14 50  1  0  0  0  0
 14 51  1  0  0  0  0
 15 16  1  0  0  0  0
 15 52  1  0  0  0  0
 16 17  1  0  0  0  0
 16 53  1  0  0  0  0
 16 54  1  0  0  0  0
 17 18  1  0  0  0  0
 17 19  1  0  0  0  0
 17 20  1  0  0  0  0
 21 22  1  0  0  0  0
 21 36  2  0  0  0  0
 22 23  2  0  0  0  0
 22 55  1  0  0  0  0
 23 24  1  0  0  0  0
 23 56  1  0  0  0  0
 24 25  1  0  0  0  0
 24 35  2  0  0  0  0
 25 26  2  0  0  0  0
 26 27  1  0  0  0  0
 26 57  1  0  0  0  0
 27 28  1  0  0  0  0
 27 34  2  0  0  0  0
 28 29  1  0  0  0  0
 28 33  2  0  0  0  0
 29 30  2  0  0  0  0
 29 58  1  0  0  0  0
 30 31  1  0  0  0  0
 31 32  1  0  0  0  0
 31 33  1  0  0  0  0
 32 59  1  0  0  0  0
 32 60  1  0  0  0  0
 32 61  1  0  0  0  0
 33 62  1  0  0  0  0
 34 35  1  0  0  0  0
 35 36  1  0  0  0  0
 36 63  1  0  0  0  0
 37 64  1  0  0  0  0
M  END
$$$$
