CHEMBL468184
 OpenBabel04072215383D

 51 55  0  0  0  0  0  0  0  0999 V2000
    1.1825   -0.1382    2.1119 C   0  0  0  0  0  0  0  0  0  0  0  0
    2.6308   -0.1360    1.7425 C   0  0  0  0  0  0  0  0  0  0  0  0
    3.1026    0.8536    0.8904 C   0  0  0  0  0  0  0  0  0  0  0  0
    4.4324    0.8614    0.5066 C   0  0  0  0  0  0  0  0  0  0  0  0
    5.3399   -0.0850    1.0167 C   0  0  0  0  0  0  0  0  0  0  0  0
    6.7576   -0.2669    0.9077 C   0  0  0  0  0  0  0  0  0  0  0  0
    7.7749    0.5611    0.2468 C   0  0  0  0  0  0  0  0  0  0  0  0
    8.7943    0.0610   -0.2198 O   0  0  0  0  0  0  0  0  0  0  0  0
    7.5812    2.0374    0.1628 C   0  0  0  0  0  0  0  0  0  0  0  0
    6.8428    2.6405    1.1927 C   0  0  0  0  0  0  0  0  0  0  0  0
    6.3701    3.9409    1.0586 C   0  0  0  0  0  0  0  0  0  0  0  0
    6.8174    4.7245    0.0084 C   0  0  0  0  0  0  0  0  0  0  0  0
    7.7164    4.1871   -0.9132 C   0  0  0  0  0  0  0  0  0  0  0  0
    8.0447    2.8196   -0.9224 C   0  0  0  0  0  0  0  0  0  0  0  0
    8.7214    2.2900   -2.0134 N   0  0  0  0  0  0  0  0  0  0  0  0
    8.6389    2.7956   -3.3751 C   0  0  0  0  0  0  0  0  0  0  0  0
    8.1620    1.7969   -4.4024 C   0  0  0  0  0  0  0  0  0  0  0  0
    8.0840    2.3241   -5.7029 C   0  0  0  0  0  0  0  0  0  0  0  0
    7.7342    1.5375   -6.7205 C   0  0  0  0  0  0  0  0  0  0  0  0
    7.2823    0.3400   -6.3589 C   0  0  0  0  0  0  0  0  0  0  0  0
    6.6580   -0.2386   -7.3100 N   0  0  0  0  0  0  0  0  0  0  0  0
    6.0646   -0.7627   -8.2968 C   0  0  0  0  0  0  0  0  0  0  0  0
    5.8943   -1.7247   -7.3555 C   0  0  0  0  0  0  0  0  0  0  0  0
    6.4247   -1.6795   -5.7745 C   0  0  0  0  0  0  0  0  0  0  0  0
    7.1750   -0.3987   -5.2426 C   0  0  0  0  0  0  0  0  0  0  0  0
    7.8331    0.4113   -4.1710 C   0  0  0  0  0  0  0  0  0  0  0  0
    7.0484   -1.4326    1.5922 C   0  0  0  0  0  0  0  0  0  0  0  0
    5.9024   -1.8963    2.1806 N   0  0  0  0  0  0  0  0  0  0  0  0
    4.8434   -1.0783    1.8599 C   0  0  0  0  0  0  0  0  0  0  0  0
    3.4946   -1.1297    2.2397 C   0  0  0  0  0  0  0  0  0  0  0  0
    0.6607    0.7088    1.6557 H   0  0  0  0  0  0  0  0  0  0  0  0
    1.0807   -0.0313    3.1924 H   0  0  0  0  0  0  0  0  0  0  0  0
    0.7038   -1.0614    1.7732 H   0  0  0  0  0  0  0  0  0  0  0  0
    2.4547    1.6350    0.5018 H   0  0  0  0  0  0  0  0  0  0  0  0
    4.7377    1.6281   -0.1918 H   0  0  0  0  0  0  0  0  0  0  0  0
    6.5273    2.0394    2.0424 H   0  0  0  0  0  0  0  0  0  0  0  0
    5.6321    4.3247    1.7569 H   0  0  0  0  0  0  0  0  0  0  0  0
    6.4644    5.7492   -0.0925 H   0  0  0  0  0  0  0  0  0  0  0  0
    8.1536    4.8642   -1.6462 H   0  0  0  0  0  0  0  0  0  0  0  0
    9.3241    1.5009   -1.7961 H   0  0  0  0  0  0  0  0  0  0  0  0
    9.6299    3.1372   -3.7150 H   0  0  0  0  0  0  0  0  0  0  0  0
    7.8941    3.6024   -3.4336 H   0  0  0  0  0  0  0  0  0  0  0  0
    8.2990    3.3294   -6.0072 H   0  0  0  0  0  0  0  0  0  0  0  0
    7.6559    1.8385   -7.7474 H   0  0  0  0  0  0  0  0  0  0  0  0
    6.2726    0.0836   -8.9242 H   0  0  0  0  0  0  0  0  0  0  0  0
    5.3496   -2.5702   -7.7779 H   0  0  0  0  0  0  0  0  0  0  0  0
    6.2525   -2.5099   -5.0862 H   0  0  0  0  0  0  0  0  0  0  0  0
    8.0782   -0.0027   -3.1882 H   0  0  0  0  0  0  0  0  0  0  0  0
    7.9944   -1.9402    1.7295 H   0  0  0  0  0  0  0  0  0  0  0  0
    5.8437   -2.7108    2.7772 H   0  0  0  0  0  0  0  0  0  0  0  0
    3.1243   -1.9105    2.8968 H   0  0  0  0  0  0  0  0  0  0  0  0
  1  2  1  0  0  0  0
  1 31  1  0  0  0  0
  1 32  1  0  0  0  0
  1 33  1  0  0  0  0
  2  3  1  0  0  0  0
  2 30  2  0  0  0  0
  3  4  2  0  0  0  0
  3 34  1  0  0  0  0
  4  5  1  0  0  0  0
  4 35  1  0  0  0  0
  5  6  1  0  0  0  0
  5 29  2  0  0  0  0
  6  7  1  0  0  0  0
  6 27  2  0  0  0  0
  7  8  2  0  0  0  0
  7  9  1  0  0  0  0
  9 10  1  0  0  0  0
  9 14  2  0  0  0  0
 10 11  2  0  0  0  0
 10 36  1  0  0  0  0
 11 12  1  0  0  0  0
 11 37  1  0  0  0  0
 12 13  2  0  0  0  0
 12 38  1  0  0  0  0
 13 14  1  0  0  0  0
 13 39  1  0  0  0  0
 14 15  1  0  0  0  0
 15 16  1  0  0  0  0
 15 40  1  0  0  0  0
 16 17  1  0  0  0  0
 16 41  1  0  0  0  0
 16 42  1  0  0  0  0
 17 18  1  0  0  0  0
 17 26  2  0  0  0  0
 18 19  2  0  0  0  0
 18 43  1  0  0  0  0
 19 20  1  0  0  0  0
 19 44  1  0  0  0  0
 20 21  1  0  0  0  0
 20 25  2  0  0  0  0
 21 22  2  0  0  0  0
 22 23  1  0  0  0  0
 22 45  1  0  0  0  0
 23 24  2  0  0  0  0
 23 46  1  0  0  0  0
 24 25  1  0  0  0  0
 24 47  1  0  0  0  0
 25 26  1  0  0  0  0
 26 48  1  0  0  0  0
 27 28  1  0  0  0  0
 27 49  1  0  0  0  0
 28 29  1  0  0  0  0
 28 50  1  0  0  0  0
 29 30  1  0  0  0  0
 30 51  1  0  0  0  0
M  END
$$$$
