CHEMBL474046
 OpenBabel04072215383D

 61 65  0  0  0  0  0  0  0  0999 V2000
    2.5542    0.1770   -0.0934 C   0  0  0  0  0  0  0  0  0  0  0  0
    1.0493    0.1145   -0.0643 C   0  0  0  0  0  0  0  0  0  0  0  0
    0.3647    1.3292    0.0713 C   0  0  0  0  0  0  0  0  0  0  0  0
   -1.0274    1.3751    0.0944 C   0  0  0  0  0  0  0  0  0  0  0  0
   -1.7841    0.2115    0.0058 C   0  0  0  0  0  0  0  0  0  0  0  0
   -3.2097    0.2068   -0.0156 N   0  0  0  0  0  0  0  0  0  0  0  0
   -4.0162    1.3377   -0.0507 C   0  0  0  0  0  0  0  0  0  0  0  0
   -3.6213    2.4987   -0.0602 O   0  0  0  0  0  0  0  0  0  0  0  0
   -5.4899    1.1633   -0.1041 C   0  0  0  0  0  0  0  0  0  0  0  0
   -6.1788    0.0473    0.3650 C   0  0  0  0  0  0  0  0  0  0  0  0
   -7.5780    0.0562    0.3308 C   0  0  0  0  0  0  0  0  0  0  0  0
   -8.2460    1.1803   -0.1623 C   0  0  0  0  0  0  0  0  0  0  0  0
   -9.7476    1.2160   -0.1545 C   0  0  0  0  0  0  0  0  0  0  0  0
  -10.3538    0.2016    0.1701 O   0  0  0  0  0  0  0  0  0  0  0  0
  -10.2985    2.4477   -0.4737 N   0  0  0  0  0  0  0  0  0  0  0  0
  -11.6760    2.7796   -0.5231 C   0  0  0  0  0  0  0  0  0  0  0  0
  -12.6777    1.7997   -0.5390 C   0  0  0  0  0  0  0  0  0  0  0  0
  -14.0259    2.1500   -0.6428 C   0  0  0  0  0  0  0  0  0  0  0  0
  -14.3924    3.4859   -0.7412 C   0  0  0  0  0  0  0  0  0  0  0  0
  -13.4082    4.4742   -0.7255 C   0  0  0  0  0  0  0  0  0  0  0  0
  -12.0519    4.1427   -0.5690 C   0  0  0  0  0  0  0  0  0  0  0  0
  -11.0946    5.1799   -0.6419 N   0  0  0  0  0  0  0  0  0  0  0  0
   -7.6055    2.2846   -0.6233 N   0  0  0  0  0  0  0  0  0  0  0  0
   -6.2473    2.2401   -0.5821 C   0  0  0  0  0  0  0  0  0  0  0  0
   -1.0997   -1.0121   -0.0863 C   0  0  0  0  0  0  0  0  0  0  0  0
    0.3137   -1.0912   -0.1485 C   0  0  0  0  0  0  0  0  0  0  0  0
    0.9979   -2.3148   -0.3550 N   0  0  0  0  0  0  0  0  0  0  0  0
    0.5098   -3.4729   -0.8661 C   0  0  0  0  0  0  0  0  0  0  0  0
   -0.7519   -3.8074   -1.0121 N   0  0  0  0  0  0  0  0  0  0  0  0
   -0.8660   -5.0620   -1.5664 C   0  0  0  0  0  0  0  0  0  0  0  0
    0.3156   -5.7092   -1.8731 C   0  0  0  0  0  0  0  0  0  0  0  0
    0.5126   -7.0351   -2.4707 C   0  0  0  0  0  0  0  0  0  0  0  0
   -0.4616   -7.5925   -3.3109 C   0  0  0  0  0  0  0  0  0  0  0  0
   -0.2995   -8.8781   -3.8266 C   0  0  0  0  0  0  0  0  0  0  0  0
    0.8450   -9.5789   -3.4927 C   0  0  0  0  0  0  0  0  0  0  0  0
    1.8163   -9.0831   -2.6995 N   0  0  0  0  0  0  0  0  0  0  0  0
    1.6274   -7.8308   -2.2098 C   0  0  0  0  0  0  0  0  0  0  0  0
    1.6190   -4.6808   -1.4260 S   0  0  0  0  0  0  0  0  0  0  0  0
    2.9030    1.2006   -0.2767 H   0  0  0  0  0  0  0  0  0  0  0  0
    2.9645   -0.4361   -0.9010 H   0  0  0  0  0  0  0  0  0  0  0  0
    2.9639   -0.1488    0.8675 H   0  0  0  0  0  0  0  0  0  0  0  0
    0.9098    2.2687    0.1390 H   0  0  0  0  0  0  0  0  0  0  0  0
   -1.4798    2.3555    0.1790 H   0  0  0  0  0  0  0  0  0  0  0  0
   -3.6396   -0.7048   -0.1073 H   0  0  0  0  0  0  0  0  0  0  0  0
   -5.6662   -0.8040    0.8007 H   0  0  0  0  0  0  0  0  0  0  0  0
   -8.1430   -0.7896    0.7136 H   0  0  0  0  0  0  0  0  0  0  0  0
   -9.6366    3.1911   -0.6760 H   0  0  0  0  0  0  0  0  0  0  0  0
  -12.4365    0.7426   -0.5092 H   0  0  0  0  0  0  0  0  0  0  0  0
  -14.7832    1.3703   -0.6709 H   0  0  0  0  0  0  0  0  0  0  0  0
  -15.4397    3.7574   -0.8417 H   0  0  0  0  0  0  0  0  0  0  0  0
  -13.7135    5.5134   -0.8180 H   0  0  0  0  0  0  0  0  0  0  0  0
  -11.4855    6.0847   -0.3922 H   0  0  0  0  0  0  0  0  0  0  0  0
  -10.2629    4.9856   -0.0959 H   0  0  0  0  0  0  0  0  0  0  0  0
   -5.7583    3.1378   -0.9584 H   0  0  0  0  0  0  0  0  0  0  0  0
   -1.6836   -1.9265   -0.1153 H   0  0  0  0  0  0  0  0  0  0  0  0
    2.0048   -2.2469   -0.2983 H   0  0  0  0  0  0  0  0  0  0  0  0
   -1.8581   -5.4684   -1.7188 H   0  0  0  0  0  0  0  0  0  0  0  0
   -1.3574   -7.0365   -3.5768 H   0  0  0  0  0  0  0  0  0  0  0  0
   -1.0518   -9.3214   -4.4699 H   0  0  0  0  0  0  0  0  0  0  0  0
    1.0146  -10.5862   -3.8626 H   0  0  0  0  0  0  0  0  0  0  0  0
    2.4307   -7.4943   -1.5599 H   0  0  0  0  0  0  0  0  0  0  0  0
  1  2  1  0  0  0  0
  1 39  1  0  0  0  0
  1 40  1  0  0  0  0
  1 41  1  0  0  0  0
  2  3  1  0  0  0  0
  2 26  2  0  0  0  0
  3  4  2  0  0  0  0
  3 42  1  0  0  0  0
  4  5  1  0  0  0  0
  4 43  1  0  0  0  0
  5  6  1  0  0  0  0
  5 25  2  0  0  0  0
  6  7  1  0  0  0  0
  6 44  1  0  0  0  0
  7  8  2  0  0  0  0
  7  9  1  0  0  0  0
  9 10  1  0  0  0  0
  9 24  2  0  0  0  0
 10 11  2  0  0  0  0
 10 45  1  0  0  0  0
 11 12  1  0  0  0  0
 11 46  1  0  0  0  0
 12 13  1  0  0  0  0
 12 23  2  0  0  0  0
 13 14  2  0  0  0  0
 13 15  1  0  0  0  0
 15 16  1  0  0  0  0
 15 47  1  0  0  0  0
 16 17  1  0  0  0  0
 16 21  2  0  0  0  0
 17 18  2  0  0  0  0
 17 48  1  0  0  0  0
 18 19  1  0  0  0  0
 18 49  1  0  0  0  0
 19 20  2  0  0  0  0
 19 50  1  0  0  0  0
 20 21  1  0  0  0  0
 20 51  1  0  0  0  0
 21 22  1  0  0  0  0
 22 52  1  0  0  0  0
 22 53  1  0  0  0  0
 23 24  1  0  0  0  0
 24 54  1  0  0  0  0
 25 26  1  0  0  0  0
 25 55  1  0  0  0  0
 26 27  1  0  0  0  0
 27 28  1  0  0  0  0
 27 56  1  0  0  0  0
 28 29  2  0  0  0  0
 28 38  1  0  0  0  0
 29 30  1  0  0  0  0
 30 31  2  0  0  0  0
 30 57  1  0  0  0  0
 31 32  1  0  0  0  0
 31 38  1  0  0  0  0
 32 33  1  0  0  0  0
 32 37  2  0  0  0  0
 33 34  2  0  0  0  0
 33 58  1  0  0  0  0
 34 35  1  0  0  0  0
 34 59  1  0  0  0  0
 35 36  2  0  0  0  0
 35 60  1  0  0  0  0
 36 37  1  0  0  0  0
 37 61  1  0  0  0  0
M  END
$$$$
