CHEMBL3985051
 OpenBabel04072215373D

 74 76  0  0  0  0  0  0  0  0999 V2000
    1.6286    6.0610   -5.8750 C   0  0  0  0  0  0  0  0  0  0  0  0
    2.6994    5.1634   -6.1780 O   0  0  0  0  0  0  0  0  0  0  0  0
    3.5805    4.9917   -5.1524 C   0  0  0  0  0  0  0  0  0  0  0  0
    3.4998    5.5370   -4.0606 O   0  0  0  0  0  0  0  0  0  0  0  0
    4.6712    4.0296   -5.5677 C   0  0  0  0  0  0  0  0  0  0  0  0
    5.6790    3.8087   -4.4380 C   0  0  0  0  0  0  0  0  0  0  0  0
    6.7939    2.8422   -4.8407 C   0  0  0  0  0  0  0  0  0  0  0  0
    7.7953    2.6564   -3.7037 C   0  0  0  0  0  0  0  0  0  0  0  0
    9.0708    1.4691   -4.1092 S   0  0  3  0  0  0  0  0  0  0  0  0
   10.0270    1.4514   -2.6016 C   0  0  0  0  0  0  0  0  0  0  0  0
    8.4150    0.1797   -4.2171 O   0  0  0  0  0  0  0  0  0  0  0  0
    9.9470    2.0818   -5.2269 N   0  0  0  0  0  0  0  0  0  0  0  0
   11.0363    1.3518   -5.7406 C   0  0  0  0  0  0  0  0  0  0  0  0
   11.6197    0.4963   -5.0788 O   0  0  0  0  0  0  0  0  0  0  0  0
   11.6201    1.6469   -7.0753 C   0  0  0  0  0  0  0  0  0  0  0  0
   11.1012    2.6364   -7.8935 C   0  0  0  0  0  0  0  0  0  0  0  0
   11.6305    2.9739   -9.1011 N   0  0  0  0  0  0  0  0  0  0  0  0
   12.7174    2.2932   -9.5233 C   0  0  0  0  0  0  0  0  0  0  0  0
   13.2811    2.7470  -10.7142 N   0  0  0  0  0  0  0  0  0  0  0  0
   13.2903    1.2564   -8.7765 C   0  0  0  0  0  0  0  0  0  0  0  0
   14.4050    0.4948   -9.2571 C   0  0  0  0  0  0  0  0  0  0  0  0
   15.3078   -0.1621   -9.7006 C   0  0  0  0  0  0  0  0  0  0  0  0
   16.3558   -0.9331  -10.2945 C   0  0  0  0  0  0  0  0  0  0  0  0
   17.4417   -0.2767  -10.8829 C   0  0  0  0  0  0  0  0  0  0  0  0
   18.4503   -1.0107  -11.5026 C   0  0  0  0  0  0  0  0  0  0  0  0
   18.3702   -2.4010  -11.5354 C   0  0  0  0  0  0  0  0  0  0  0  0
   17.2837   -3.0692  -10.9489 C   0  0  0  0  0  0  0  0  0  0  0  0
   17.2942   -4.5569  -11.0058 C   0  0  0  0  0  0  0  0  0  0  0  0
   18.3911   -5.1035  -10.9926 O   0  0  0  0  0  0  0  0  0  0  0  0
   16.0655   -5.1793  -11.1117 N   0  0  0  0  0  0  0  0  0  0  0  0
   15.9218   -6.5519  -11.2515 C   0  0  0  0  0  0  0  0  0  0  0  0
   14.6796   -7.2250  -11.3826 C   0  0  0  0  0  0  0  0  0  0  0  0
   15.0029   -8.5609  -11.4904 C   0  0  0  0  0  0  0  0  0  0  0  0
   14.2363   -9.8489  -11.6221 C   0  0  0  0  0  0  0  0  0  0  0  0
   12.7229   -9.5784  -11.6831 C   0  0  0  0  0  0  0  0  0  0  0  0
   14.6565  -10.5883  -12.9062 C   0  0  0  0  0  0  0  0  0  0  0  0
   14.5273  -10.7495  -10.4068 C   0  0  0  0  0  0  0  0  0  0  0  0
   16.3577   -8.6763  -11.4417 O   0  0  0  0  0  0  0  0  0  0  0  0
   16.9235   -7.4343  -11.2906 N   0  0  0  0  0  0  0  0  0  0  0  0
   16.2771   -2.3322  -10.3147 C   0  0  0  0  0  0  0  0  0  0  0  0
   12.7313    0.9365   -7.5389 C   0  0  0  0  0  0  0  0  0  0  0  0
    0.9809    6.1282   -6.7535 H   0  0  0  0  0  0  0  0  0  0  0  0
    2.0169    7.0606   -5.6545 H   0  0  0  0  0  0  0  0  0  0  0  0
    1.0360    5.6821   -5.0363 H   0  0  0  0  0  0  0  0  0  0  0  0
    5.1805    4.4455   -6.4440 H   0  0  0  0  0  0  0  0  0  0  0  0
    4.2040    3.0771   -5.8415 H   0  0  0  0  0  0  0  0  0  0  0  0
    5.1571    3.4189   -3.5547 H   0  0  0  0  0  0  0  0  0  0  0  0
    6.1161    4.7714   -4.1442 H   0  0  0  0  0  0  0  0  0  0  0  0
    7.3092    3.2218   -5.7306 H   0  0  0  0  0  0  0  0  0  0  0  0
    6.3587    1.8739   -5.1154 H   0  0  0  0  0  0  0  0  0  0  0  0
    7.2886    2.2778   -2.8088 H   0  0  0  0  0  0  0  0  0  0  0  0
    8.2859    3.6019   -3.4512 H   0  0  0  0  0  0  0  0  0  0  0  0
    9.3833    1.1154   -1.7859 H   0  0  0  0  0  0  0  0  0  0  0  0
   10.3993    2.4582   -2.4010 H   0  0  0  0  0  0  0  0  0  0  0  0
   10.8599    0.7551   -2.7079 H   0  0  0  0  0  0  0  0  0  0  0  0
   10.2290    3.2180   -7.6046 H   0  0  0  0  0  0  0  0  0  0  0  0
   12.6592    3.4429  -11.1156 H   0  0  0  0  0  0  0  0  0  0  0  0
   13.5112    1.9976  -11.3550 H   0  0  0  0  0  0  0  0  0  0  0  0
   17.5099    0.8092  -10.8608 H   0  0  0  0  0  0  0  0  0  0  0  0
   19.2996   -0.5060  -11.9563 H   0  0  0  0  0  0  0  0  0  0  0  0
   19.1633   -2.9720  -12.0173 H   0  0  0  0  0  0  0  0  0  0  0  0
   15.2182   -4.6323  -11.1572 H   0  0  0  0  0  0  0  0  0  0  0  0
   13.6881   -6.8005  -11.3857 H   0  0  0  0  0  0  0  0  0  0  0  0
   12.4615   -8.9690  -12.5563 H   0  0  0  0  0  0  0  0  0  0  0  0
   12.3761   -9.0434  -10.7911 H   0  0  0  0  0  0  0  0  0  0  0  0
   12.1545  -10.5131  -11.7494 H   0  0  0  0  0  0  0  0  0  0  0  0
   14.4499   -9.9867  -13.7991 H   0  0  0  0  0  0  0  0  0  0  0  0
   14.1173  -11.5373  -13.0104 H   0  0  0  0  0  0  0  0  0  0  0  0
   15.7284  -10.8192  -12.9085 H   0  0  0  0  0  0  0  0  0  0  0  0
   14.2562  -10.2516   -9.4685 H   0  0  0  0  0  0  0  0  0  0  0  0
   15.5908  -11.0096  -10.3434 H   0  0  0  0  0  0  0  0  0  0  0  0
   13.9632  -11.6875  -10.4638 H   0  0  0  0  0  0  0  0  0  0  0  0
   15.4521   -2.8270   -9.8111 H   0  0  0  0  0  0  0  0  0  0  0  0
   13.1659    0.1428   -6.9346 H   0  0  0  0  0  0  0  0  0  0  0  0
  1  2  1  0  0  0  0
  1 42  1  0  0  0  0
  1 43  1  0  0  0  0
  1 44  1  0  0  0  0
  2  3  1  0  0  0  0
  3  4  2  0  0  0  0
  3  5  1  0  0  0  0
  5  6  1  0  0  0  0
  5 45  1  0  0  0  0
  5 46  1  0  0  0  0
  6  7  1  0  0  0  0
  6 47  1  0  0  0  0
  6 48  1  0  0  0  0
  7  8  1  0  0  0  0
  7 49  1  0  0  0  0
  7 50  1  0  0  0  0
  8  9  1  0  0  0  0
  8 51  1  0  0  0  0
  8 52  1  0  0  0  0
  9 10  1  0  0  0  0
  9 11  2  0  0  0  0
  9 12  2  0  0  0  0
 10 53  1  0  0  0  0
 10 54  1  0  0  0  0
 10 55  1  0  0  0  0
 12 13  1  0  0  0  0
 13 14  2  0  0  0  0
 13 15  1  0  0  0  0
 15 16  1  0  0  0  0
 15 41  2  0  0  0  0
 16 17  2  0  0  0  0
 16 56  1  0  0  0  0
 17 18  1  0  0  0  0
 18 19  1  0  0  0  0
 18 20  2  0  0  0  0
 19 57  1  0  0  0  0
 19 58  1  0  0  0  0
 20 21  1  0  0  0  0
 20 41  1  0  0  0  0
 21 22  3  0  0  0  0
 22 23  1  0  0  0  0
 23 24  1  0  0  0  0
 23 40  2  0  0  0  0
 24 25  2  0  0  0  0
 24 59  1  0  0  0  0
 25 26  1  0  0  0  0
 25 60  1  0  0  0  0
 26 27  2  0  0  0  0
 26 61  1  0  0  0  0
 27 28  1  0  0  0  0
 27 40  1  0  0  0  0
 28 29  2  0  0  0  0
 28 30  1  0  0  0  0
 30 31  1  0  0  0  0
 30 62  1  0  0  0  0
 31 32  1  0  0  0  0
 31 39  2  0  0  0  0
 32 33  2  0  0  0  0
 32 63  1  0  0  0  0
 33 34  1  0  0  0  0
 33 38  1  0  0  0  0
 34 35  1  0  0  0  0
 34 36  1  0  0  0  0
 34 37  1  0  0  0  0
 35 64  1  0  0  0  0
 35 65  1  0  0  0  0
 35 66  1  0  0  0  0
 36 67  1  0  0  0  0
 36 68  1  0  0  0  0
 36 69  1  0  0  0  0
 37 70  1  0  0  0  0
 37 71  1  0  0  0  0
 37 72  1  0  0  0  0
 38 39  1  0  0  0  0
 40 73  1  0  0  0  0
 41 74  1  0  0  0  0
M  END
$$$$
