CHEMBL514351
 OpenBabel04072215383D

 58 61  0  0  0  0  0  0  0  0999 V2000
    2.5260   -0.0189   -0.0302 C   0  0  0  0  0  0  0  0  0  0  0  0
    1.0497   -0.1229    0.2303 C   0  0  0  0  0  0  0  0  0  0  0  0
    0.3801    1.0407    0.6389 C   0  0  0  0  0  0  0  0  0  0  0  0
   -1.0127    1.0843    0.7033 C   0  0  0  0  0  0  0  0  0  0  0  0
   -1.7748   -0.0138    0.3175 C   0  0  0  0  0  0  0  0  0  0  0  0
   -3.1682    0.0390    0.1891 N   0  0  0  0  0  0  0  0  0  0  0  0
   -3.8061    1.2388   -0.3716 C   0  0  0  0  0  0  0  0  0  0  0  0
   -3.6323    1.4635   -1.8683 C   0  0  0  0  0  0  0  0  0  0  0  0
   -2.9264    0.6015   -2.7129 C   0  0  0  0  0  0  0  0  0  0  0  0
   -2.6553    0.9527   -4.0434 C   0  0  0  0  0  0  0  0  0  0  0  0
   -3.1138    2.1593   -4.5855 C   0  0  0  0  0  0  0  0  0  0  0  0
   -2.7078    2.6272   -5.9240 C   0  0  0  0  0  0  0  0  0  0  0  0
   -2.3767    1.8128   -6.9390 C   0  0  0  0  0  0  0  0  0  0  0  0
   -1.9145    2.3552   -8.2400 C   0  0  0  0  0  0  0  0  0  0  0  0
   -1.7532    3.5492   -8.4671 O   0  0  0  0  0  0  0  0  0  0  0  0
   -1.6945    1.3809   -9.1784 N   0  0  0  0  0  0  0  0  0  0  0  0
   -1.3273    1.8096  -10.4729 O   0  0  0  0  0  0  0  0  0  0  0  0
   -3.8976    2.9851   -3.7735 C   0  0  0  0  0  0  0  0  0  0  0  0
   -4.1588    2.6385   -2.4378 C   0  0  0  0  0  0  0  0  0  0  0  0
   -1.0927   -1.2230    0.1025 C   0  0  0  0  0  0  0  0  0  0  0  0
    0.3161   -1.3136    0.0926 C   0  0  0  0  0  0  0  0  0  0  0  0
    0.9522   -2.5652   -0.0325 N   0  0  0  0  0  0  0  0  0  0  0  0
    0.6134   -3.7588    0.6225 C   0  0  0  0  0  0  0  0  0  0  0  0
    1.4565   -4.7898    0.4809 N   0  0  0  0  0  0  0  0  0  0  0  0
    1.1663   -5.9164    1.1606 C   0  0  0  0  0  0  0  0  0  0  0  0
    0.0885   -6.0453    2.0048 C   0  0  0  0  0  0  0  0  0  0  0  0
   -0.7149   -4.9332    2.1255 C   0  0  0  0  0  0  0  0  0  0  0  0
   -1.8503   -4.8266    3.0583 C   0  0  0  0  0  0  0  0  0  0  0  0
   -2.2746   -3.5781    3.5462 C   0  0  0  0  0  0  0  0  0  0  0  0
   -3.3203   -3.4781    4.4630 C   0  0  0  0  0  0  0  0  0  0  0  0
   -3.9326   -4.6418    4.8825 C   0  0  0  0  0  0  0  0  0  0  0  0
   -3.5792   -5.8683    4.4365 N   0  0  0  0  0  0  0  0  0  0  0  0
   -2.5579   -5.9268    3.5432 C   0  0  0  0  0  0  0  0  0  0  0  0
   -0.4631   -3.8128    1.4172 N   0  0  0  0  0  0  0  0  0  0  0  0
    2.7625    0.9796   -0.4207 H   0  0  0  0  0  0  0  0  0  0  0  0
    2.8439   -0.7197   -0.8087 H   0  0  0  0  0  0  0  0  0  0  0  0
    3.1051   -0.1864    0.8802 H   0  0  0  0  0  0  0  0  0  0  0  0
    0.9420    1.9397    0.8825 H   0  0  0  0  0  0  0  0  0  0  0  0
   -1.4850    2.0036    1.0334 H   0  0  0  0  0  0  0  0  0  0  0  0
   -3.5686   -0.8188   -0.1781 H   0  0  0  0  0  0  0  0  0  0  0  0
   -3.4581    2.1363    0.1528 H   0  0  0  0  0  0  0  0  0  0  0  0
   -4.8802    1.1620   -0.1661 H   0  0  0  0  0  0  0  0  0  0  0  0
   -2.5242   -0.3371   -2.3436 H   0  0  0  0  0  0  0  0  0  0  0  0
   -2.0332    0.2780   -4.6252 H   0  0  0  0  0  0  0  0  0  0  0  0
   -2.6561    3.7078   -6.0567 H   0  0  0  0  0  0  0  0  0  0  0  0
   -2.4213    0.7365   -6.8435 H   0  0  0  0  0  0  0  0  0  0  0  0
   -1.8959    0.3953   -9.0623 H   0  0  0  0  0  0  0  0  0  0  0  0
   -1.3213    2.7871  -10.3752 H   0  0  0  0  0  0  0  0  0  0  0  0
   -4.2919    3.9232   -4.1604 H   0  0  0  0  0  0  0  0  0  0  0  0
   -4.7508    3.3220   -1.8311 H   0  0  0  0  0  0  0  0  0  0  0  0
   -1.6716   -2.1214   -0.1039 H   0  0  0  0  0  0  0  0  0  0  0  0
    1.9543   -2.5640   -0.1462 H   0  0  0  0  0  0  0  0  0  0  0  0
    1.8611   -6.7389    1.0106 H   0  0  0  0  0  0  0  0  0  0  0  0
   -0.0673   -6.9562    2.5653 H   0  0  0  0  0  0  0  0  0  0  0  0
   -1.7854   -2.6650    3.2133 H   0  0  0  0  0  0  0  0  0  0  0  0
   -3.6406   -2.5127    4.8380 H   0  0  0  0  0  0  0  0  0  0  0  0
   -4.7411   -4.6244    5.6007 H   0  0  0  0  0  0  0  0  0  0  0  0
   -2.3315   -6.9370    3.2148 H   0  0  0  0  0  0  0  0  0  0  0  0
  1  2  1  0  0  0  0
  1 35  1  0  0  0  0
  1 36  1  0  0  0  0
  1 37  1  0  0  0  0
  2  3  1  0  0  0  0
  2 21  2  0  0  0  0
  3  4  2  0  0  0  0
  3 38  1  0  0  0  0
  4  5  1  0  0  0  0
  4 39  1  0  0  0  0
  5  6  1  0  0  0  0
  5 20  2  0  0  0  0
  6  7  1  0  0  0  0
  6 40  1  0  0  0  0
  7  8  1  0  0  0  0
  7 41  1  0  0  0  0
  7 42  1  0  0  0  0
  8  9  1  0  0  0  0
  8 19  2  0  0  0  0
  9 10  2  0  0  0  0
  9 43  1  0  0  0  0
 10 11  1  0  0  0  0
 10 44  1  0  0  0  0
 11 12  1  0  0  0  0
 11 18  2  0  0  0  0
 12 13  2  0  0  0  0
 12 45  1  0  0  0  0
 13 14  1  0  0  0  0
 13 46  1  0  0  0  0
 14 15  2  0  0  0  0
 14 16  1  0  0  0  0
 16 17  1  0  0  0  0
 16 47  1  0  0  0  0
 17 48  1  0  0  0  0
 18 19  1  0  0  0  0
 18 49  1  0  0  0  0
 19 50  1  0  0  0  0
 20 21  1  0  0  0  0
 20 51  1  0  0  0  0
 21 22  1  0  0  0  0
 22 23  1  0  0  0  0
 22 52  1  0  0  0  0
 23 24  1  0  0  0  0
 23 34  2  0  0  0  0
 24 25  2  0  0  0  0
 25 26  1  0  0  0  0
 25 53  1  0  0  0  0
 26 27  2  0  0  0  0
 26 54  1  0  0  0  0
 27 28  1  0  0  0  0
 27 34  1  0  0  0  0
 28 29  1  0  0  0  0
 28 33  2  0  0  0  0
 29 30  2  0  0  0  0
 29 55  1  0  0  0  0
 30 31  1  0  0  0  0
 30 56  1  0  0  0  0
 31 32  2  0  0  0  0
 31 57  1  0  0  0  0
 32 33  1  0  0  0  0
 33 58  1  0  0  0  0
M  END
$$$$
