CHEMBL3671500
 OpenBabel04072215373D

 53 55  0  0  0  0  0  0  0  0999 V2000
    2.4524   -1.7563   -1.7194 C   0  0  0  0  0  0  0  0  0  0  0  0
    3.1641   -0.8939   -0.9821 C   0  0  0  0  0  0  0  0  0  0  0  0
    3.9988    0.1323   -1.6598 C   0  0  0  0  0  0  0  0  0  0  0  0
    4.1096    0.1657   -2.8802 O   0  0  0  0  0  0  0  0  0  0  0  0
    4.5520    1.0426   -0.7758 N   0  0  0  0  0  0  0  0  0  0  0  0
    5.1772    2.2047   -1.2631 C   0  0  0  0  0  0  0  0  0  0  0  0
    6.2257    1.9994   -2.1632 C   0  0  0  0  0  0  0  0  0  0  0  0
    6.8200    3.0612   -2.8640 C   0  0  0  0  0  0  0  0  0  0  0  0
    7.8566    2.8907   -3.7952 C   0  0  0  0  0  0  0  0  0  0  0  0
    8.3033    1.5847   -4.0906 N   0  0  0  0  0  0  0  0  0  0  0  0
    9.5956    1.1435   -4.4293 C   0  0  0  0  0  0  0  0  0  0  0  0
   10.7442    1.8251   -4.0123 C   0  0  0  0  0  0  0  0  0  0  0  0
   12.0131    1.2681   -4.1969 C   0  0  0  0  0  0  0  0  0  0  0  0
   12.1432    0.0243   -4.8122 C   0  0  0  0  0  0  0  0  0  0  0  0
   13.8502   -0.7700   -4.9647 Br  0  0  0  0  0  0  0  0  0  0  0  0
   11.0204   -0.6534   -5.2756 C   0  0  0  0  0  0  0  0  0  0  0  0
    9.7628   -0.0925   -5.0724 C   0  0  0  0  0  0  0  0  0  0  0  0
    8.6797   -0.7714   -5.4837 F   0  0  0  0  0  0  0  0  0  0  0  0
    8.4286    3.9313   -4.4172 N   0  0  0  0  0  0  0  0  0  0  0  0
    7.9118    5.1368   -4.1460 C   0  0  0  0  0  0  0  0  0  0  0  0
    6.9188    5.4059   -3.2843 N   0  0  0  0  0  0  0  0  0  0  0  0
    6.3825    4.3656   -2.6378 C   0  0  0  0  0  0  0  0  0  0  0  0
    5.3640    4.5650   -1.6991 C   0  0  0  0  0  0  0  0  0  0  0  0
    4.7709    3.5124   -0.9730 C   0  0  0  0  0  0  0  0  0  0  0  0
    3.7275    3.9103   -0.1772 O   0  0  0  0  0  0  0  0  0  0  0  0
    3.5856    3.2523    1.0789 C   0  0  0  0  0  0  0  0  0  0  0  0
    2.5299    3.9385    1.9631 C   0  0  0  0  0  0  0  0  0  0  0  0
    1.1846    3.8109    1.3835 N   0  0  0  0  0  0  0  0  0  0  0  0
    0.1529    4.2669    2.3197 C   0  0  0  0  0  0  0  0  0  0  0  0
   -1.2171    4.0883    1.6790 C   0  0  0  0  0  0  0  0  0  0  0  0
   -1.5346    4.9097    0.4565 C   0  0  0  0  0  0  0  0  0  0  0  0
   -2.0466    3.3066    2.1503 O   0  0  0  0  0  0  0  0  0  0  0  0
    1.8325   -2.5155   -1.2570 H   0  0  0  0  0  0  0  0  0  0  0  0
    2.4702   -1.7206   -2.8070 H   0  0  0  0  0  0  0  0  0  0  0  0
    3.1366   -0.9306    0.0981 H   0  0  0  0  0  0  0  0  0  0  0  0
    4.2445    1.0112    0.1779 H   0  0  0  0  0  0  0  0  0  0  0  0
    6.5777    0.9825   -2.3284 H   0  0  0  0  0  0  0  0  0  0  0  0
    7.5590    1.0151   -4.4879 H   0  0  0  0  0  0  0  0  0  0  0  0
   10.6593    2.7812   -3.5007 H   0  0  0  0  0  0  0  0  0  0  0  0
   12.8861    1.8054   -3.8377 H   0  0  0  0  0  0  0  0  0  0  0  0
   11.1004   -1.6182   -5.7661 H   0  0  0  0  0  0  0  0  0  0  0  0
    8.3361    5.9776   -4.6859 H   0  0  0  0  0  0  0  0  0  0  0  0
    5.0068    5.5825   -1.5462 H   0  0  0  0  0  0  0  0  0  0  0  0
    4.5476    3.2354    1.6043 H   0  0  0  0  0  0  0  0  0  0  0  0
    3.2171    2.2385    0.9365 H   0  0  0  0  0  0  0  0  0  0  0  0
    2.7792    4.9958    2.0960 H   0  0  0  0  0  0  0  0  0  0  0  0
    2.5516    3.4434    2.9424 H   0  0  0  0  0  0  0  0  0  0  0  0
    0.9998    2.8387    1.1316 H   0  0  0  0  0  0  0  0  0  0  0  0
    0.2781    5.3223    2.5819 H   0  0  0  0  0  0  0  0  0  0  0  0
    0.1764    3.6719    3.2402 H   0  0  0  0  0  0  0  0  0  0  0  0
   -0.6612    5.4803    0.1310 H   0  0  0  0  0  0  0  0  0  0  0  0
   -2.3416    5.6075    0.6911 H   0  0  0  0  0  0  0  0  0  0  0  0
   -1.8347    4.2415   -0.3551 H   0  0  0  0  0  0  0  0  0  0  0  0
  1  2  2  0  0  0  0
  1 33  1  0  0  0  0
  1 34  1  0  0  0  0
  2  3  1  0  0  0  0
  2 35  1  0  0  0  0
  3  4  2  0  0  0  0
  3  5  1  0  0  0  0
  5  6  1  0  0  0  0
  5 36  1  0  0  0  0
  6  7  1  0  0  0  0
  6 24  2  0  0  0  0
  7  8  2  0  0  0  0
  7 37  1  0  0  0  0
  8  9  1  0  0  0  0
  8 22  1  0  0  0  0
  9 10  1  0  0  0  0
  9 19  2  0  0  0  0
 10 11  1  0  0  0  0
 10 38  1  0  0  0  0
 11 12  1  0  0  0  0
 11 17  2  0  0  0  0
 12 13  2  0  0  0  0
 12 39  1  0  0  0  0
 13 14  1  0  0  0  0
 13 40  1  0  0  0  0
 14 15  1  0  0  0  0
 14 16  2  0  0  0  0
 16 17  1  0  0  0  0
 16 41  1  0  0  0  0
 17 18  1  0  0  0  0
 19 20  1  0  0  0  0
 20 21  2  0  0  0  0
 20 42  1  0  0  0  0
 21 22  1  0  0  0  0
 22 23  2  0  0  0  0
 23 24  1  0  0  0  0
 23 43  1  0  0  0  0
 24 25  1  0  0  0  0
 25 26  1  0  0  0  0
 26 27  1  0  0  0  0
 26 44  1  0  0  0  0
 26 45  1  0  0  0  0
 27 28  1  0  0  0  0
 27 46  1  0  0  0  0
 27 47  1  0  0  0  0
 28 29  1  0  0  0  0
 28 48  1  0  0  0  0
 29 30  1  0  0  0  0
 29 49  1  0  0  0  0
 29 50  1  0  0  0  0
 30 31  1  0  0  0  0
 30 32  2  0  0  0  0
 31 51  1  0  0  0  0
 31 52  1  0  0  0  0
 31 53  1  0  0  0  0
M  END
$$$$
