CHEMBL3901644
 OpenBabel04072215373D

 58 62  0  0  0  0  0  0  0  0999 V2000
    0.3317    4.3982   -1.1497 C   0  0  0  0  0  0  0  0  0  0  0  0
    1.7339    4.6613   -1.1908 O   0  0  0  0  0  0  0  0  0  0  0  0
    2.5916    3.7124   -0.6900 C   0  0  0  0  0  0  0  0  0  0  0  0
    2.1933    2.5584   -0.0226 C   0  0  0  0  0  0  0  0  0  0  0  0
    3.1626    1.6265    0.3689 C   0  0  0  0  0  0  0  0  0  0  0  0
    2.8846    0.4202    0.9567 O   0  0  0  0  0  0  0  0  0  0  0  0
    1.7135    0.3872    1.7661 C   0  0  0  0  0  0  0  0  0  0  0  0
    4.5166    1.8406    0.0779 C   0  0  0  0  0  0  0  0  0  0  0  0
    4.9544    2.9829   -0.5952 C   0  0  0  0  0  0  0  0  0  0  0  0
    6.2592    3.0825   -1.1403 N   0  0  0  0  0  0  0  0  0  0  0  0
    6.7981    1.8096   -1.7926 C   0  0  0  0  0  0  0  0  0  0  0  0
    5.8796    0.9743   -2.7255 C   0  0  0  0  0  0  0  0  0  0  0  0
    6.4696   -0.3356   -2.9065 O   0  0  0  0  0  0  0  0  0  0  0  0
    6.1265   -0.7458   -4.2345 C   0  0  0  0  0  0  0  0  0  0  0  0
    5.2619    0.3609   -4.7876 C   0  0  0  0  0  0  0  0  0  0  0  0
    5.6776    1.5135   -4.0427 O   0  0  0  0  0  0  0  0  0  0  0  0
    7.4010    3.8645   -0.7093 C   0  0  0  0  0  0  0  0  0  0  0  0
    8.1871    4.3289   -1.7674 C   0  0  0  0  0  0  0  0  0  0  0  0
    9.5373    4.5472   -1.5877 C   0  0  0  0  0  0  0  0  0  0  0  0
   10.1276    4.4895   -0.3479 C   0  0  0  0  0  0  0  0  0  0  0  0
   11.4621    4.5265   -0.3930 N   0  0  0  0  0  0  0  0  0  0  0  0
   12.1015    4.6258    0.7780 C   0  0  0  0  0  0  0  0  0  0  0  0
   11.4308    4.7695    1.9729 C   0  0  0  0  0  0  0  0  0  0  0  0
   12.2548    5.2579    3.0827 C   0  0  0  0  0  0  0  0  0  0  0  0
   12.4673    6.5979    3.5126 C   0  0  0  0  0  0  0  0  0  0  0  0
   13.5152    6.7320    4.3354 N   0  0  0  0  0  0  0  0  0  0  0  0
   14.0019    5.4836    4.4304 N   0  0  0  0  0  0  0  0  0  0  0  0
   15.0388    5.1743    5.3903 C   0  0  0  0  0  0  0  0  0  0  0  0
   13.3737    4.6038    3.5879 C   0  0  0  0  0  0  0  0  0  0  0  0
   10.0528    4.6059    2.0390 N   0  0  0  0  0  0  0  0  0  0  0  0
    9.3549    4.3773    0.8315 C   0  0  0  0  0  0  0  0  0  0  0  0
    7.9520    3.9926    0.6003 C   0  0  0  0  0  0  0  0  0  0  0  0
    3.9671    3.9344   -0.9379 C   0  0  0  0  0  0  0  0  0  0  0  0
   -0.1611    5.0532   -1.8712 H   0  0  0  0  0  0  0  0  0  0  0  0
   -0.0741    4.6207   -0.1571 H   0  0  0  0  0  0  0  0  0  0  0  0
    0.0807    3.3676   -1.4421 H   0  0  0  0  0  0  0  0  0  0  0  0
    1.1478    2.3542    0.1624 H   0  0  0  0  0  0  0  0  0  0  0  0
    1.7566   -0.5206    2.3751 H   0  0  0  0  0  0  0  0  0  0  0  0
    0.8108    0.3337    1.1497 H   0  0  0  0  0  0  0  0  0  0  0  0
    1.6768    1.2457    2.4453 H   0  0  0  0  0  0  0  0  0  0  0  0
    5.2225    1.0554    0.3420 H   0  0  0  0  0  0  0  0  0  0  0  0
    7.1763    1.1615   -0.9916 H   0  0  0  0  0  0  0  0  0  0  0  0
    7.6743    2.0424   -2.4119 H   0  0  0  0  0  0  0  0  0  0  0  0
    4.8936    0.8047   -2.2841 H   0  0  0  0  0  0  0  0  0  0  0  0
    5.6079   -1.7088   -4.1990 H   0  0  0  0  0  0  0  0  0  0  0  0
    7.0451   -0.8723   -4.8180 H   0  0  0  0  0  0  0  0  0  0  0  0
    4.2018    0.1684   -4.5819 H   0  0  0  0  0  0  0  0  0  0  0  0
    5.3843    0.5039   -5.8651 H   0  0  0  0  0  0  0  0  0  0  0  0
    7.7787    4.3458   -2.7737 H   0  0  0  0  0  0  0  0  0  0  0  0
   10.1583    4.7171   -2.4557 H   0  0  0  0  0  0  0  0  0  0  0  0
   13.1790    4.6408    0.7065 H   0  0  0  0  0  0  0  0  0  0  0  0
   11.9375    7.4948    3.2173 H   0  0  0  0  0  0  0  0  0  0  0  0
   15.3157    6.0740    5.9485 H   0  0  0  0  0  0  0  0  0  0  0  0
   15.9135    4.7734    4.8716 H   0  0  0  0  0  0  0  0  0  0  0  0
   14.6326    4.4306    6.0812 H   0  0  0  0  0  0  0  0  0  0  0  0
   13.7755    3.6145    3.4250 H   0  0  0  0  0  0  0  0  0  0  0  0
    7.3488    3.7440    1.4694 H   0  0  0  0  0  0  0  0  0  0  0  0
    4.2548    4.8270   -1.4935 H   0  0  0  0  0  0  0  0  0  0  0  0
  1  2  1  0  0  0  0
  1 34  1  0  0  0  0
  1 35  1  0  0  0  0
  1 36  1  0  0  0  0
  2  3  1  0  0  0  0
  3  4  1  0  0  0  0
  3 33  2  0  0  0  0
  4  5  2  0  0  0  0
  4 37  1  0  0  0  0
  5  6  1  0  0  0  0
  5  8  1  0  0  0  0
  6  7  1  0  0  0  0
  7 38  1  0  0  0  0
  7 39  1  0  0  0  0
  7 40  1  0  0  0  0
  8  9  2  0  0  0  0
  8 41  1  0  0  0  0
  9 10  1  0  0  0  0
  9 33  1  0  0  0  0
 10 11  1  0  0  0  0
 10 17  1  0  0  0  0
 11 12  1  0  0  0  0
 11 42  1  0  0  0  0
 11 43  1  0  0  0  0
 12 13  1  0  0  0  0
 12 16  1  0  0  0  0
 12 44  1  0  0  0  0
 13 14  1  0  0  0  0
 14 15  1  0  0  0  0
 14 45  1  0  0  0  0
 14 46  1  0  0  0  0
 15 16  1  0  0  0  0
 15 47  1  0  0  0  0
 15 48  1  0  0  0  0
 17 18  1  0  0  0  0
 17 32  2  0  0  0  0
 18 19  2  0  0  0  0
 18 49  1  0  0  0  0
 19 20  1  0  0  0  0
 19 50  1  0  0  0  0
 20 21  1  0  0  0  0
 20 31  2  0  0  0  0
 21 22  2  0  0  0  0
 22 23  1  0  0  0  0
 22 51  1  0  0  0  0
 23 24  1  0  0  0  0
 23 30  2  0  0  0  0
 24 25  1  0  0  0  0
 24 29  2  0  0  0  0
 25 26  2  0  0  0  0
 25 52  1  0  0  0  0
 26 27  1  0  0  0  0
 27 28  1  0  0  0  0
 27 29  1  0  0  0  0
 28 53  1  0  0  0  0
 28 54  1  0  0  0  0
 28 55  1  0  0  0  0
 29 56  1  0  0  0  0
 30 31  1  0  0  0  0
 31 32  1  0  0  0  0
 32 57  1  0  0  0  0
 33 58  1  0  0  0  0
M  END
$$$$
