CHEMBL3898881
 OpenBabel04072215373D

 56 59  0  0  0  0  0  0  0  0999 V2000
    0.8582   -3.5969    2.4975 C   0  0  0  0  0  0  0  0  0  0  0  0
    2.2373   -3.5169    2.8702 O   0  0  0  0  0  0  0  0  0  0  0  0
    3.0760   -2.8185    2.0331 C   0  0  0  0  0  0  0  0  0  0  0  0
    2.6710   -2.2386    0.8291 C   0  0  0  0  0  0  0  0  0  0  0  0
    3.5699   -1.4758    0.0923 C   0  0  0  0  0  0  0  0  0  0  0  0
    3.2873   -0.8103   -1.0713 O   0  0  0  0  0  0  0  0  0  0  0  0
    2.0088   -1.0355   -1.6548 C   0  0  0  0  0  0  0  0  0  0  0  0
    4.8827   -1.3113    0.5579 C   0  0  0  0  0  0  0  0  0  0  0  0
    5.3489   -1.8997    1.7489 C   0  0  0  0  0  0  0  0  0  0  0  0
    6.6293   -1.5857    2.2885 N   0  0  0  0  0  0  0  0  0  0  0  0
    7.0869   -0.1404    2.0947 C   0  0  0  0  0  0  0  0  0  0  0  0
    6.1299    1.0251    2.4554 C   0  0  0  0  0  0  0  0  0  0  0  0
    5.9012    1.3603    3.9290 C   0  0  0  0  0  0  0  0  0  0  0  0
    7.1146    1.7079    4.5825 O   0  0  0  0  0  0  0  0  0  0  0  0
    7.7372   -2.4266    2.6771 C   0  0  0  0  0  0  0  0  0  0  0  0
    8.3508   -2.0031    3.8555 C   0  0  0  0  0  0  0  0  0  0  0  0
    9.6810   -2.2595    4.0579 C   0  0  0  0  0  0  0  0  0  0  0  0
   10.4064   -3.1197    3.2776 C   0  0  0  0  0  0  0  0  0  0  0  0
   11.6805   -3.0818    3.6365 N   0  0  0  0  0  0  0  0  0  0  0  0
   12.4947   -3.9908    3.1098 C   0  0  0  0  0  0  0  0  0  0  0  0
   12.0679   -4.9850    2.2587 C   0  0  0  0  0  0  0  0  0  0  0  0
   13.1199   -6.0315    2.0590 C   0  0  0  0  0  0  0  0  0  0  0  0
   13.2999   -7.2756    2.7391 C   0  0  0  0  0  0  0  0  0  0  0  0
   14.5670   -7.7235    2.7331 N   0  0  0  0  0  0  0  0  0  0  0  0
   15.2538   -6.7510    2.1156 N   0  0  0  0  0  0  0  0  0  0  0  0
   16.6949   -6.8303    1.9850 C   0  0  0  0  0  0  0  0  0  0  0  0
   14.4455   -5.7037    1.7459 C   0  0  0  0  0  0  0  0  0  0  0  0
   10.7463   -4.9636    1.7932 N   0  0  0  0  0  0  0  0  0  0  0  0
    9.8378   -3.9287    2.2739 C   0  0  0  0  0  0  0  0  0  0  0  0
    8.4442   -3.4714    1.9475 C   0  0  0  0  0  0  0  0  0  0  0  0
    4.4142   -2.6681    2.4716 C   0  0  0  0  0  0  0  0  0  0  0  0
    0.3069   -4.0774    3.3123 H   0  0  0  0  0  0  0  0  0  0  0  0
    0.7309   -4.2154    1.6018 H   0  0  0  0  0  0  0  0  0  0  0  0
    0.4139   -2.6048    2.3512 H   0  0  0  0  0  0  0  0  0  0  0  0
    1.6553   -2.3614    0.4772 H   0  0  0  0  0  0  0  0  0  0  0  0
    1.9683   -0.4816   -2.5977 H   0  0  0  0  0  0  0  0  0  0  0  0
    1.2065   -0.6555   -1.0132 H   0  0  0  0  0  0  0  0  0  0  0  0
    1.8616   -2.0960   -1.8851 H   0  0  0  0  0  0  0  0  0  0  0  0
    5.5377   -0.6739   -0.0292 H   0  0  0  0  0  0  0  0  0  0  0  0
    7.3722   -0.0307    1.0431 H   0  0  0  0  0  0  0  0  0  0  0  0
    8.0113    0.0636    2.6452 H   0  0  0  0  0  0  0  0  0  0  0  0
    5.1586    0.9358    1.9637 H   0  0  0  0  0  0  0  0  0  0  0  0
    6.6019    1.9220    2.0251 H   0  0  0  0  0  0  0  0  0  0  0  0
    5.3959    0.5618    4.4777 H   0  0  0  0  0  0  0  0  0  0  0  0
    5.2610    2.2515    3.9901 H   0  0  0  0  0  0  0  0  0  0  0  0
    7.5443    0.8874    4.8707 H   0  0  0  0  0  0  0  0  0  0  0  0
    7.8573   -1.2932    4.5052 H   0  0  0  0  0  0  0  0  0  0  0  0
   10.2023   -1.7363    4.8584 H   0  0  0  0  0  0  0  0  0  0  0  0
   13.5173   -3.9197    3.4581 H   0  0  0  0  0  0  0  0  0  0  0  0
   12.5808   -7.8409    3.3215 H   0  0  0  0  0  0  0  0  0  0  0  0
   17.0712   -7.7665    2.4076 H   0  0  0  0  0  0  0  0  0  0  0  0
   17.1602   -5.9872    2.5085 H   0  0  0  0  0  0  0  0  0  0  0  0
   16.9433   -6.7869    0.9189 H   0  0  0  0  0  0  0  0  0  0  0  0
   14.8953   -4.7875    1.3884 H   0  0  0  0  0  0  0  0  0  0  0  0
    7.9459   -3.9154    1.0840 H   0  0  0  0  0  0  0  0  0  0  0  0
    4.6937   -3.0909    3.4338 H   0  0  0  0  0  0  0  0  0  0  0  0
  1  2  1  0  0  0  0
  1 32  1  0  0  0  0
  1 33  1  0  0  0  0
  1 34  1  0  0  0  0
  2  3  1  0  0  0  0
  3  4  1  0  0  0  0
  3 31  2  0  0  0  0
  4  5  2  0  0  0  0
  4 35  1  0  0  0  0
  5  6  1  0  0  0  0
  5  8  1  0  0  0  0
  6  7  1  0  0  0  0
  7 36  1  0  0  0  0
  7 37  1  0  0  0  0
  7 38  1  0  0  0  0
  8  9  2  0  0  0  0
  8 39  1  0  0  0  0
  9 10  1  0  0  0  0
  9 31  1  0  0  0  0
 10 11  1  0  0  0  0
 10 15  1  0  0  0  0
 11 12  1  0  0  0  0
 11 40  1  0  0  0  0
 11 41  1  0  0  0  0
 12 13  1  0  0  0  0
 12 42  1  0  0  0  0
 12 43  1  0  0  0  0
 13 14  1  0  0  0  0
 13 44  1  0  0  0  0
 13 45  1  0  0  0  0
 14 46  1  0  0  0  0
 15 16  1  0  0  0  0
 15 30  2  0  0  0  0
 16 17  2  0  0  0  0
 16 47  1  0  0  0  0
 17 18  1  0  0  0  0
 17 48  1  0  0  0  0
 18 19  1  0  0  0  0
 18 29  2  0  0  0  0
 19 20  2  0  0  0  0
 20 21  1  0  0  0  0
 20 49  1  0  0  0  0
 21 22  1  0  0  0  0
 21 28  2  0  0  0  0
 22 23  1  0  0  0  0
 22 27  2  0  0  0  0
 23 24  2  0  0  0  0
 23 50  1  0  0  0  0
 24 25  1  0  0  0  0
 25 26  1  0  0  0  0
 25 27  1  0  0  0  0
 26 51  1  0  0  0  0
 26 52  1  0  0  0  0
 26 53  1  0  0  0  0
 27 54  1  0  0  0  0
 28 29  1  0  0  0  0
 29 30  1  0  0  0  0
 30 55  1  0  0  0  0
 31 56  1  0  0  0  0
M  END
$$$$
