CHEMBL1242844
 OpenBabel04072215363D

 44 47  0  0  0  0  0  0  0  0999 V2000
    0.8935    0.2487   -0.0086 N   0  0  0  0  0  0  0  0  0  0  0  0
    2.2785    0.1405    0.0444 C   0  0  0  0  0  0  0  0  0  0  0  0
    2.9515    1.3097    0.0421 N   0  0  0  0  0  0  0  0  0  0  0  0
    4.2919    1.2842    0.1398 C   0  0  0  0  0  0  0  0  0  0  0  0
    5.0870    0.2122    0.2685 N   0  0  0  0  0  0  0  0  0  0  0  0
    4.3766   -0.9345    0.2620 C   0  0  0  0  0  0  0  0  0  0  0  0
    3.0035   -1.0633    0.1194 C   0  0  0  0  0  0  0  0  0  0  0  0
    2.7724   -2.4755    0.0626 C   0  0  0  0  0  0  0  0  0  0  0  0
    1.5287   -3.2236   -0.2072 C   0  0  0  0  0  0  0  0  0  0  0  0
    0.4927   -2.6834   -0.9865 C   0  0  0  0  0  0  0  0  0  0  0  0
   -0.7007   -3.3881   -1.1950 C   0  0  0  0  0  0  0  0  0  0  0  0
   -0.8332   -4.6702   -0.6802 C   0  0  0  0  0  0  0  0  0  0  0  0
   -1.9634   -5.3597   -0.8854 F   0  0  0  0  0  0  0  0  0  0  0  0
    0.2102   -5.2489    0.0304 C   0  0  0  0  0  0  0  0  0  0  0  0
    0.1109   -6.5308    0.4941 O   0  0  0  0  0  0  0  0  0  0  0  0
    1.3800   -4.5326    0.2803 C   0  0  0  0  0  0  0  0  0  0  0  0
    3.9198   -3.1558    0.2731 N   0  0  0  0  0  0  0  0  0  0  0  0
    4.8738   -2.2067    0.3602 N   0  0  0  0  0  0  0  0  0  0  0  0
    6.2621   -2.5908    0.2186 C   0  0  0  0  0  0  0  0  0  0  0  0
    7.1510   -2.7592    1.4701 C   0  0  0  0  0  0  0  0  0  0  0  0
    6.6888   -3.8230    2.4834 C   0  0  0  0  0  0  0  0  0  0  0  0
    6.0542   -3.3009    3.7755 C   0  0  0  0  0  0  0  0  0  0  0  0
    6.6817   -2.0928    4.3038 N   0  0  0  0  0  0  0  0  0  0  0  0
    6.6776   -1.0367    3.2954 C   0  0  0  0  0  0  0  0  0  0  0  0
    7.5642   -1.4350    2.1258 C   0  0  0  0  0  0  0  0  0  0  0  0
    0.6209    1.2103    0.1696 H   0  0  0  0  0  0  0  0  0  0  0  0
    0.4043   -0.4413    0.5483 H   0  0  0  0  0  0  0  0  0  0  0  0
    4.7888    2.2497    0.1155 H   0  0  0  0  0  0  0  0  0  0  0  0
    0.5941   -1.7131   -1.4666 H   0  0  0  0  0  0  0  0  0  0  0  0
   -1.5137   -2.9467   -1.7647 H   0  0  0  0  0  0  0  0  0  0  0  0
   -0.7405   -6.8828    0.1724 H   0  0  0  0  0  0  0  0  0  0  0  0
    2.1818   -5.0109    0.8386 H   0  0  0  0  0  0  0  0  0  0  0  0
    6.7282   -1.8597   -0.4557 H   0  0  0  0  0  0  0  0  0  0  0  0
    6.2644   -3.5372   -0.3390 H   0  0  0  0  0  0  0  0  0  0  0  0
    8.0832   -3.1626    1.0426 H   0  0  0  0  0  0  0  0  0  0  0  0
    7.5753   -4.4061    2.7707 H   0  0  0  0  0  0  0  0  0  0  0  0
    6.0066   -4.5402    2.0117 H   0  0  0  0  0  0  0  0  0  0  0  0
    6.1318   -4.0822    4.5424 H   0  0  0  0  0  0  0  0  0  0  0  0
    4.9829   -3.1238    3.6316 H   0  0  0  0  0  0  0  0  0  0  0  0
    7.6418   -2.2957    4.5825 H   0  0  0  0  0  0  0  0  0  0  0  0
    7.0650   -0.1162    3.7456 H   0  0  0  0  0  0  0  0  0  0  0  0
    5.6554   -0.8226    2.9717 H   0  0  0  0  0  0  0  0  0  0  0  0
    8.5927   -1.5482    2.4991 H   0  0  0  0  0  0  0  0  0  0  0  0
    7.6060   -0.6262    1.3884 H   0  0  0  0  0  0  0  0  0  0  0  0
  1  2  1  0  0  0  0
  1 26  1  0  0  0  0
  1 27  1  0  0  0  0
  2  3  1  0  0  0  0
  2  7  2  0  0  0  0
  3  4  2  0  0  0  0
  4  5  1  0  0  0  0
  4 28  1  0  0  0  0
  5  6  2  0  0  0  0
  6  7  1  0  0  0  0
  6 18  1  0  0  0  0
  7  8  1  0  0  0  0
  8  9  1  0  0  0  0
  8 17  2  0  0  0  0
  9 10  1  0  0  0  0
  9 16  2  0  0  0  0
 10 11  2  0  0  0  0
 10 29  1  0  0  0  0
 11 12  1  0  0  0  0
 11 30  1  0  0  0  0
 12 13  1  0  0  0  0
 12 14  2  0  0  0  0
 14 15  1  0  0  0  0
 14 16  1  0  0  0  0
 15 31  1  0  0  0  0
 16 32  1  0  0  0  0
 17 18  1  0  0  0  0
 18 19  1  0  0  0  0
 19 20  1  0  0  0  0
 19 33  1  0  0  0  0
 19 34  1  0  0  0  0
 20 21  1  0  0  0  0
 20 25  1  0  0  0  0
 20 35  1  0  0  0  0
 21 22  1  0  0  0  0
 21 36  1  0  0  0  0
 21 37  1  0  0  0  0
 22 23  1  0  0  0  0
 22 38  1  0  0  0  0
 22 39  1  0  0  0  0
 23 24  1  0  0  0  0
 23 40  1  0  0  0  0
 24 25  1  0  0  0  0
 24 41  1  0  0  0  0
 24 42  1  0  0  0  0
 25 43  1  0  0  0  0
 25 44  1  0  0  0  0
M  END
$$$$
