CHEMBL3671528
 OpenBabel04072215373D

 61 63  0  0  0  0  0  0  0  0999 V2000
    2.5729   -2.2376   -1.2613 C   0  0  0  0  0  0  0  0  0  0  0  0
    3.2664   -1.2021   -0.7700 C   0  0  0  0  0  0  0  0  0  0  0  0
    4.0900   -0.3757   -1.6883 C   0  0  0  0  0  0  0  0  0  0  0  0
    4.2069   -0.6644   -2.8745 O   0  0  0  0  0  0  0  0  0  0  0  0
    4.6274    0.7452   -1.0745 N   0  0  0  0  0  0  0  0  0  0  0  0
    5.2802    1.7222   -1.8568 C   0  0  0  0  0  0  0  0  0  0  0  0
    6.3129    1.2626   -2.6793 C   0  0  0  0  0  0  0  0  0  0  0  0
    6.9022    2.0798   -3.6571 C   0  0  0  0  0  0  0  0  0  0  0  0
    7.9196    1.6485   -4.5251 C   0  0  0  0  0  0  0  0  0  0  0  0
    8.3632    0.3085   -4.4513 N   0  0  0  0  0  0  0  0  0  0  0  0
    9.6472   -0.2205   -4.6829 C   0  0  0  0  0  0  0  0  0  0  0  0
   10.8065    0.5409   -4.4971 C   0  0  0  0  0  0  0  0  0  0  0  0
   12.0689   -0.0605   -4.5213 C   0  0  0  0  0  0  0  0  0  0  0  0
   12.1810   -1.4316   -4.7460 C   0  0  0  0  0  0  0  0  0  0  0  0
   13.8771   -2.2595   -4.6472 Br  0  0  0  0  0  0  0  0  0  0  0  0
   11.0498   -2.2005   -4.9959 C   0  0  0  0  0  0  0  0  0  0  0  0
    9.7992   -1.5903   -4.9546 C   0  0  0  0  0  0  0  0  0  0  0  0
    8.7069   -2.3464   -5.1515 F   0  0  0  0  0  0  0  0  0  0  0  0
    8.4769    2.4706   -5.4247 N   0  0  0  0  0  0  0  0  0  0  0  0
    7.9690    3.7044   -5.4965 C   0  0  0  0  0  0  0  0  0  0  0  0
    6.9938    4.2126   -4.7249 N   0  0  0  0  0  0  0  0  0  0  0  0
    6.4731    3.4004   -3.7979 C   0  0  0  0  0  0  0  0  0  0  0  0
    5.4799    3.8671   -2.9288 C   0  0  0  0  0  0  0  0  0  0  0  0
    4.9023    3.0680   -1.9232 C   0  0  0  0  0  0  0  0  0  0  0  0
    3.9269    3.7091   -1.1960 O   0  0  0  0  0  0  0  0  0  0  0  0
    3.7956    3.3168    0.1693 C   0  0  0  0  0  0  0  0  0  0  0  0
    3.3401    4.4866    1.0490 C   0  0  0  0  0  0  0  0  0  0  0  0
    3.3132    4.1159    2.4584 N   0  0  0  0  0  0  0  0  0  0  0  0
    4.4827    4.0348    3.1888 C   0  0  0  0  0  0  0  0  0  0  0  0
    5.5753    4.3994    2.7430 O   0  0  0  0  0  0  0  0  0  0  0  0
    4.3358    3.4154    4.5818 C   0  0  0  0  0  0  0  0  0  0  0  0
    3.9698    1.9730    4.5007 N   0  0  0  0  0  0  0  0  0  0  0  0
    5.0395    1.2154    3.8331 C   0  0  0  0  0  0  0  0  0  0  0  0
    3.7618    1.4695    5.8781 C   0  0  0  0  0  0  0  0  0  0  0  0
    3.3564   -0.0009    5.9511 C   0  0  0  0  0  0  0  0  0  0  0  0
    1.9644   -2.8633   -0.6185 H   0  0  0  0  0  0  0  0  0  0  0  0
    2.5955   -2.4844   -2.3210 H   0  0  0  0  0  0  0  0  0  0  0  0
    3.2396   -0.9597    0.2835 H   0  0  0  0  0  0  0  0  0  0  0  0
    4.2811    0.9913   -0.1640 H   0  0  0  0  0  0  0  0  0  0  0  0
    6.6608    0.2376   -2.5559 H   0  0  0  0  0  0  0  0  0  0  0  0
    7.6102   -0.3436   -4.6577 H   0  0  0  0  0  0  0  0  0  0  0  0
   10.7343    1.6041   -4.2823 H   0  0  0  0  0  0  0  0  0  0  0  0
   12.9492    0.5476   -4.3306 H   0  0  0  0  0  0  0  0  0  0  0  0
   11.1172   -3.2657   -5.1880 H   0  0  0  0  0  0  0  0  0  0  0  0
    8.3816    4.3594   -6.2548 H   0  0  0  0  0  0  0  0  0  0  0  0
    5.1365    4.8930   -3.0512 H   0  0  0  0  0  0  0  0  0  0  0  0
    4.7447    2.9354    0.5618 H   0  0  0  0  0  0  0  0  0  0  0  0
    3.0314    2.5328    0.2294 H   0  0  0  0  0  0  0  0  0  0  0  0
    2.3342    4.8149    0.7674 H   0  0  0  0  0  0  0  0  0  0  0  0
    4.0125    5.3409    0.9113 H   0  0  0  0  0  0  0  0  0  0  0  0
    2.5092    3.6223    2.8309 H   0  0  0  0  0  0  0  0  0  0  0  0
    3.5555    3.9793    5.1065 H   0  0  0  0  0  0  0  0  0  0  0  0
    5.2775    3.5617    5.1285 H   0  0  0  0  0  0  0  0  0  0  0  0
    5.2610    1.6166    2.8391 H   0  0  0  0  0  0  0  0  0  0  0  0
    4.7246    0.1818    3.6555 H   0  0  0  0  0  0  0  0  0  0  0  0
    5.9674    1.2050    4.4157 H   0  0  0  0  0  0  0  0  0  0  0  0
    2.9584    2.0510    6.3476 H   0  0  0  0  0  0  0  0  0  0  0  0
    4.6626    1.6174    6.4888 H   0  0  0  0  0  0  0  0  0  0  0  0
    2.4846   -0.2039    5.3215 H   0  0  0  0  0  0  0  0  0  0  0  0
    3.0989   -0.2671    6.9817 H   0  0  0  0  0  0  0  0  0  0  0  0
    4.1717   -0.6639    5.6442 H   0  0  0  0  0  0  0  0  0  0  0  0
  1  2  2  0  0  0  0
  1 36  1  0  0  0  0
  1 37  1  0  0  0  0
  2  3  1  0  0  0  0
  2 38  1  0  0  0  0
  3  4  2  0  0  0  0
  3  5  1  0  0  0  0
  5  6  1  0  0  0  0
  5 39  1  0  0  0  0
  6  7  1  0  0  0  0
  6 24  2  0  0  0  0
  7  8  2  0  0  0  0
  7 40  1  0  0  0  0
  8  9  1  0  0  0  0
  8 22  1  0  0  0  0
  9 10  1  0  0  0  0
  9 19  2  0  0  0  0
 10 11  1  0  0  0  0
 10 41  1  0  0  0  0
 11 12  1  0  0  0  0
 11 17  2  0  0  0  0
 12 13  2  0  0  0  0
 12 42  1  0  0  0  0
 13 14  1  0  0  0  0
 13 43  1  0  0  0  0
 14 15  1  0  0  0  0
 14 16  2  0  0  0  0
 16 17  1  0  0  0  0
 16 44  1  0  0  0  0
 17 18  1  0  0  0  0
 19 20  1  0  0  0  0
 20 21  2  0  0  0  0
 20 45  1  0  0  0  0
 21 22  1  0  0  0  0
 22 23  2  0  0  0  0
 23 24  1  0  0  0  0
 23 46  1  0  0  0  0
 24 25  1  0  0  0  0
 25 26  1  0  0  0  0
 26 27  1  0  0  0  0
 26 47  1  0  0  0  0
 26 48  1  0  0  0  0
 27 28  1  0  0  0  0
 27 49  1  0  0  0  0
 27 50  1  0  0  0  0
 28 29  1  0  0  0  0
 28 51  1  0  0  0  0
 29 30  2  0  0  0  0
 29 31  1  0  0  0  0
 31 32  1  0  0  0  0
 31 52  1  0  0  0  0
 31 53  1  0  0  0  0
 32 33  1  0  0  0  0
 32 34  1  0  0  0  0
 33 54  1  0  0  0  0
 33 55  1  0  0  0  0
 33 56  1  0  0  0  0
 34 35  1  0  0  0  0
 34 57  1  0  0  0  0
 34 58  1  0  0  0  0
 35 59  1  0  0  0  0
 35 60  1  0  0  0  0
 35 61  1  0  0  0  0
M  END
$$$$
