CHEMBL3656096
 OpenBabel04072215373D

 52 55  0  0  0  0  0  0  0  0999 V2000
    2.7810   -6.3179   -0.5692 C   0  0  0  0  0  0  0  0  0  0  0  0
    1.3099   -6.5925   -0.6808 C   0  0  0  0  0  0  0  0  0  0  0  0
    0.8745   -7.8709   -1.0473 C   0  0  0  0  0  0  0  0  0  0  0  0
   -0.4805   -8.1428   -1.1521 C   0  0  0  0  0  0  0  0  0  0  0  0
   -1.4178   -7.1424   -0.8978 C   0  0  0  0  0  0  0  0  0  0  0  0
   -1.0192   -5.8532   -0.5203 C   0  0  0  0  0  0  0  0  0  0  0  0
   -1.9442   -4.8101   -0.2622 N   0  0  0  0  0  0  0  0  0  0  0  0
   -3.3237   -4.9469   -0.2080 C   0  0  0  0  0  0  0  0  0  0  0  0
   -3.9341   -6.0106   -0.2730 O   0  0  0  0  0  0  0  0  0  0  0  0
   -3.9759   -3.7251   -0.1105 N   0  0  0  0  0  0  0  0  0  0  0  0
   -5.3951   -3.6648   -0.0485 C   0  0  0  0  0  0  0  0  0  0  0  0
   -6.1468   -4.5409    0.7409 C   0  0  0  0  0  0  0  0  0  0  0  0
   -7.5457   -4.4841    0.7230 C   0  0  0  0  0  0  0  0  0  0  0  0
   -8.2070   -3.5590   -0.0903 C   0  0  0  0  0  0  0  0  0  0  0  0
   -9.5833   -3.5830   -0.0264 O   0  0  0  0  0  0  0  0  0  0  0  0
  -10.3372   -3.2441   -1.1279 C   0  0  0  0  0  0  0  0  0  0  0  0
   -9.9814   -3.5353   -2.4402 C   0  0  0  0  0  0  0  0  0  0  0  0
  -10.8350   -3.1254   -3.4482 C   0  0  0  0  0  0  0  0  0  0  0  0
  -12.0123   -2.4995   -3.2315 N   0  0  0  0  0  0  0  0  0  0  0  0
  -12.3666   -2.2818   -1.9426 C   0  0  0  0  0  0  0  0  0  0  0  0
  -13.6704   -1.6372   -1.7848 C   0  0  0  0  0  0  0  0  0  0  0  0
  -14.4101   -1.2703   -0.6713 C   0  0  0  0  0  0  0  0  0  0  0  0
  -15.6331   -0.6605   -1.0994 C   0  0  0  0  0  0  0  0  0  0  0  0
  -16.7476   -0.1034   -0.3370 C   0  0  0  0  0  0  0  0  0  0  0  0
  -17.7456    0.3826   -0.8479 O   0  0  0  0  0  0  0  0  0  0  0  0
  -16.6035   -0.1563    1.0137 O   0  0  0  0  0  0  0  0  0  0  0  0
  -15.5916   -0.6913   -2.4859 C   0  0  0  0  0  0  0  0  0  0  0  0
  -14.4212   -1.2753   -2.8816 N   0  0  0  0  0  0  0  0  0  0  0  0
  -11.5657   -2.6390   -0.8678 C   0  0  0  0  0  0  0  0  0  0  0  0
   -7.4615   -2.6454   -0.8375 C   0  0  0  0  0  0  0  0  0  0  0  0
   -6.0680   -2.7099   -0.8133 C   0  0  0  0  0  0  0  0  0  0  0  0
   -5.3655   -1.8738   -1.5943 F   0  0  0  0  0  0  0  0  0  0  0  0
    0.3572   -5.5878   -0.4185 C   0  0  0  0  0  0  0  0  0  0  0  0
    3.3712   -7.2046   -0.8304 H   0  0  0  0  0  0  0  0  0  0  0  0
    3.0408   -6.0396    0.4565 H   0  0  0  0  0  0  0  0  0  0  0  0
    3.0726   -5.5164   -1.2542 H   0  0  0  0  0  0  0  0  0  0  0  0
    1.5889   -8.6655   -1.2528 H   0  0  0  0  0  0  0  0  0  0  0  0
   -0.8245   -9.1347   -1.4352 H   0  0  0  0  0  0  0  0  0  0  0  0
   -2.4599   -7.4131   -1.0064 H   0  0  0  0  0  0  0  0  0  0  0  0
   -1.5668   -3.9174    0.0228 H   0  0  0  0  0  0  0  0  0  0  0  0
   -3.5369   -2.9676   -0.6194 H   0  0  0  0  0  0  0  0  0  0  0  0
   -5.6577   -5.2793    1.3726 H   0  0  0  0  0  0  0  0  0  0  0  0
   -8.1162   -5.1757    1.3392 H   0  0  0  0  0  0  0  0  0  0  0  0
   -9.0662   -4.0606   -2.6868 H   0  0  0  0  0  0  0  0  0  0  0  0
  -10.5855   -3.2965   -4.4920 H   0  0  0  0  0  0  0  0  0  0  0  0
  -14.0873   -1.4327    0.3484 H   0  0  0  0  0  0  0  0  0  0  0  0
  -15.7682   -0.5591    1.2895 H   0  0  0  0  0  0  0  0  0  0  0  0
  -16.3086   -0.3396   -3.2166 H   0  0  0  0  0  0  0  0  0  0  0  0
  -14.1191   -1.4344   -3.8355 H   0  0  0  0  0  0  0  0  0  0  0  0
  -11.8757   -2.4566    0.1541 H   0  0  0  0  0  0  0  0  0  0  0  0
   -7.9359   -1.8911   -1.4551 H   0  0  0  0  0  0  0  0  0  0  0  0
    0.7054   -4.5973   -0.1329 H   0  0  0  0  0  0  0  0  0  0  0  0
  1  2  1  0  0  0  0
  1 34  1  0  0  0  0
  1 35  1  0  0  0  0
  1 36  1  0  0  0  0
  2  3  1  0  0  0  0
  2 33  2  0  0  0  0
  3  4  2  0  0  0  0
  3 37  1  0  0  0  0
  4  5  1  0  0  0  0
  4 38  1  0  0  0  0
  5  6  2  0  0  0  0
  5 39  1  0  0  0  0
  6  7  1  0  0  0  0
  6 33  1  0  0  0  0
  7  8  1  0  0  0  0
  7 40  1  0  0  0  0
  8  9  2  0  0  0  0
  8 10  1  0  0  0  0
 10 11  1  0  0  0  0
 10 41  1  0  0  0  0
 11 12  1  0  0  0  0
 11 31  2  0  0  0  0
 12 13  2  0  0  0  0
 12 42  1  0  0  0  0
 13 14  1  0  0  0  0
 13 43  1  0  0  0  0
 14 15  1  0  0  0  0
 14 30  2  0  0  0  0
 15 16  1  0  0  0  0
 16 17  1  0  0  0  0
 16 29  2  0  0  0  0
 17 18  2  0  0  0  0
 17 44  1  0  0  0  0
 18 19  1  0  0  0  0
 18 45  1  0  0  0  0
 19 20  2  0  0  0  0
 20 21  1  0  0  0  0
 20 29  1  0  0  0  0
 21 22  2  0  0  0  0
 21 28  1  0  0  0  0
 22 23  1  0  0  0  0
 22 46  1  0  0  0  0
 23 24  1  0  0  0  0
 23 27  2  0  0  0  0
 24 25  2  0  0  0  0
 24 26  1  0  0  0  0
 26 47  1  0  0  0  0
 27 28  1  0  0  0  0
 27 48  1  0  0  0  0
 28 49  1  0  0  0  0
 29 50  1  0  0  0  0
 30 31  1  0  0  0  0
 30 51  1  0  0  0  0
 31 32  1  0  0  0  0
 33 52  1  0  0  0  0
M  END
$$$$
