CHEMBL2312304
 OpenBabel04072215363D

 62 65  0  0  0  0  0  0  0  0999 V2000
    2.0460    0.8625   -0.3502 O   0  0  0  0  0  0  0  0  0  0  0  0
    2.0194   -0.3094    0.0118 C   0  0  0  0  0  0  0  0  0  0  0  0
    1.2315   -1.2777   -0.6221 N   0  0  0  0  0  0  0  0  0  0  0  0
    0.3816   -1.0120   -1.7794 C   0  0  0  0  0  0  0  0  0  0  0  0
   -1.0118   -1.6560   -1.6812 C   0  0  0  0  0  0  0  0  0  0  0  0
   -1.8936   -1.0514   -0.5871 C   0  0  0  0  0  0  0  0  0  0  0  0
   -3.2191   -1.6606   -0.5638 N   0  0  0  0  0  0  0  0  0  0  0  0
   -4.3758   -1.0651   -1.1581 C   0  0  0  0  0  0  0  0  0  0  0  0
   -5.4221   -2.1324   -0.9453 C   0  0  0  0  0  0  0  0  0  0  0  0
   -4.9473   -2.8921    0.1704 O   0  0  0  0  0  0  0  0  0  0  0  0
   -3.6017   -2.6642    0.2954 C   0  0  0  0  0  0  0  0  0  0  0  0
   -2.8803   -3.2601    1.0772 O   0  0  0  0  0  0  0  0  0  0  0  0
    2.8360   -0.7426    1.1976 C   0  0  0  0  0  0  0  0  0  0  0  0
    2.5691   -1.9646    1.7919 C   0  0  0  0  0  0  0  0  0  0  0  0
    3.2068   -2.4640    2.8728 N   0  0  0  0  0  0  0  0  0  0  0  0
    4.1404   -1.6898    3.4147 C   0  0  0  0  0  0  0  0  0  0  0  0
    4.7931   -2.0599    4.5675 N   0  0  0  0  0  0  0  0  0  0  0  0
    4.9014   -3.4707    4.8749 C   0  0  0  0  0  0  0  0  0  0  0  0
    5.0080   -3.6755    6.3759 C   0  0  0  0  0  0  0  0  0  0  0  0
    4.3761   -2.7746    7.2607 C   0  0  0  0  0  0  0  0  0  0  0  0
    4.4247   -2.9660    8.6414 C   0  0  0  0  0  0  0  0  0  0  0  0
    3.6579   -1.8387    9.6900 Cl  0  0  0  0  0  0  0  0  0  0  0  0
    5.0834   -4.0681    9.1739 C   0  0  0  0  0  0  0  0  0  0  0  0
    5.6850   -4.9899    8.3165 C   0  0  0  0  0  0  0  0  0  0  0  0
    5.6406   -4.8019    6.9286 C   0  0  0  0  0  0  0  0  0  0  0  0
    6.3691   -6.0193    5.9423 Cl  0  0  0  0  0  0  0  0  0  0  0  0
    4.4541   -0.4861    2.9382 N   0  0  0  0  0  0  0  0  0  0  0  0
    3.8011    0.0183    1.8559 C   0  0  0  0  0  0  0  0  0  0  0  0
    4.2465    1.2741    1.4290 N   0  0  0  0  0  0  0  0  0  0  0  0
    4.7666    2.1759    2.4807 C   0  0  0  0  0  0  0  0  0  0  0  0
    3.6657    3.0264    3.1331 C   0  0  0  0  0  0  0  0  0  0  0  0
    4.1265    4.4824    3.0985 C   0  0  0  0  0  0  0  0  0  0  0  0
    5.5757    4.4730    2.6483 C   0  0  0  0  0  0  0  0  0  0  0  0
    5.7622    3.1721    1.8836 C   0  0  0  0  0  0  0  0  0  0  0  0
    1.4464   -2.2594   -0.4764 H   0  0  0  0  0  0  0  0  0  0  0  0
    0.8988   -1.4594   -2.6378 H   0  0  0  0  0  0  0  0  0  0  0  0
    0.3035    0.0628   -1.9646 H   0  0  0  0  0  0  0  0  0  0  0  0
   -0.9180   -2.7379   -1.5200 H   0  0  0  0  0  0  0  0  0  0  0  0
   -1.5193   -1.5345   -2.6476 H   0  0  0  0  0  0  0  0  0  0  0  0
   -2.0146    0.0273   -0.7298 H   0  0  0  0  0  0  0  0  0  0  0  0
   -1.4274   -1.2140    0.3906 H   0  0  0  0  0  0  0  0  0  0  0  0
   -4.2204   -0.8265   -2.2126 H   0  0  0  0  0  0  0  0  0  0  0  0
   -4.6256   -0.1570   -0.5997 H   0  0  0  0  0  0  0  0  0  0  0  0
   -5.5077   -2.8084   -1.8025 H   0  0  0  0  0  0  0  0  0  0  0  0
   -6.4074   -1.7130   -0.7244 H   0  0  0  0  0  0  0  0  0  0  0  0
    1.7815   -2.6273    1.4477 H   0  0  0  0  0  0  0  0  0  0  0  0
    5.6446   -1.5163    4.6403 H   0  0  0  0  0  0  0  0  0  0  0  0
    5.7917   -3.8540    4.3647 H   0  0  0  0  0  0  0  0  0  0  0  0
    4.0340   -4.0495    4.5365 H   0  0  0  0  0  0  0  0  0  0  0  0
    3.8337   -1.9164    6.8655 H   0  0  0  0  0  0  0  0  0  0  0  0
    5.1210   -4.2220   10.2490 H   0  0  0  0  0  0  0  0  0  0  0  0
    6.1803   -5.8620    8.7374 H   0  0  0  0  0  0  0  0  0  0  0  0
    3.5983    1.7153    0.7726 H   0  0  0  0  0  0  0  0  0  0  0  0
    5.3003    1.6382    3.2759 H   0  0  0  0  0  0  0  0  0  0  0  0
    3.5211    2.7129    4.1755 H   0  0  0  0  0  0  0  0  0  0  0  0
    2.6933    2.9248    2.6399 H   0  0  0  0  0  0  0  0  0  0  0  0
    4.0236    4.9644    4.0783 H   0  0  0  0  0  0  0  0  0  0  0  0
    3.5118    5.0543    2.3949 H   0  0  0  0  0  0  0  0  0  0  0  0
    6.2446    4.5144    3.5158 H   0  0  0  0  0  0  0  0  0  0  0  0
    5.8047    5.3404    2.0192 H   0  0  0  0  0  0  0  0  0  0  0  0
    6.7904    2.8079    1.9989 H   0  0  0  0  0  0  0  0  0  0  0  0
    5.5901    3.3274    0.8143 H   0  0  0  0  0  0  0  0  0  0  0  0
  1  2  2  0  0  0  0
  2  3  1  0  0  0  0
  2 13  1  0  0  0  0
  3  4  1  0  0  0  0
  3 35  1  0  0  0  0
  4  5  1  0  0  0  0
  4 36  1  0  0  0  0
  4 37  1  0  0  0  0
  5  6  1  0  0  0  0
  5 38  1  0  0  0  0
  5 39  1  0  0  0  0
  6  7  1  0  0  0  0
  6 40  1  0  0  0  0
  6 41  1  0  0  0  0
  7  8  1  0  0  0  0
  7 11  1  0  0  0  0
  8  9  1  0  0  0  0
  8 42  1  0  0  0  0
  8 43  1  0  0  0  0
  9 10  1  0  0  0  0
  9 44  1  0  0  0  0
  9 45  1  0  0  0  0
 10 11  1  0  0  0  0
 11 12  2  0  0  0  0
 13 14  1  0  0  0  0
 13 28  2  0  0  0  0
 14 15  2  0  0  0  0
 14 46  1  0  0  0  0
 15 16  1  0  0  0  0
 16 17  1  0  0  0  0
 16 27  2  0  0  0  0
 17 18  1  0  0  0  0
 17 47  1  0  0  0  0
 18 19  1  0  0  0  0
 18 48  1  0  0  0  0
 18 49  1  0  0  0  0
 19 20  1  0  0  0  0
 19 25  2  0  0  0  0
 20 21  2  0  0  0  0
 20 50  1  0  0  0  0
 21 22  1  0  0  0  0
 21 23  1  0  0  0  0
 23 24  2  0  0  0  0
 23 51  1  0  0  0  0
 24 25  1  0  0  0  0
 24 52  1  0  0  0  0
 25 26  1  0  0  0  0
 27 28  1  0  0  0  0
 28 29  1  0  0  0  0
 29 30  1  0  0  0  0
 29 53  1  0  0  0  0
 30 31  1  0  0  0  0
 30 34  1  0  0  0  0
 30 54  1  0  0  0  0
 31 32  1  0  0  0  0
 31 55  1  0  0  0  0
 31 56  1  0  0  0  0
 32 33  1  0  0  0  0
 32 57  1  0  0  0  0
 32 58  1  0  0  0  0
 33 34  1  0  0  0  0
 33 59  1  0  0  0  0
 33 60  1  0  0  0  0
 34 61  1  0  0  0  0
 34 62  1  0  0  0  0
M  END
$$$$
