CHEMBL257836
 OpenBabel04072215363D

 54 58  0  0  0  0  0  0  0  0999 V2000
   -1.9276   -0.1371    1.0967 C   0  0  0  0  0  0  0  0  0  0  0  0
   -0.5996   -0.0758    0.4677 C   0  0  0  0  0  0  0  0  0  0  0  0
   -0.1202   -0.7994   -0.5168 N   0  0  0  0  0  0  0  0  0  0  0  0
    1.1029   -0.2561   -0.8227 N   0  0  0  0  0  0  0  0  0  0  0  0
    1.3057    0.7594   -0.0039 C   0  0  0  0  0  0  0  0  0  0  0  0
    2.4951    1.6691   -0.0636 C   0  0  0  0  0  0  0  0  0  0  0  0
    2.7377    2.6318    0.8813 C   0  0  0  0  0  0  0  0  0  0  0  0
    3.8779    3.2853    0.5304 N   0  0  0  0  0  0  0  0  0  0  0  0
    4.4251    4.2577    1.2729 N   0  0  0  0  0  0  0  0  0  0  0  0
    5.4649    4.8009    0.7403 C   0  0  0  0  0  0  0  0  0  0  0  0
    6.0062    4.4928   -0.4744 N   0  0  0  0  0  0  0  0  0  0  0  0
    5.4964    3.5387   -1.2042 C   0  0  0  0  0  0  0  0  0  0  0  0
    6.0899    3.2640   -2.4209 N   0  0  0  0  0  0  0  0  0  0  0  0
    6.8723    4.2068   -3.1416 C   0  0  0  0  0  0  0  0  0  0  0  0
    6.5042    5.5580   -3.2455 C   0  0  0  0  0  0  0  0  0  0  0  0
    7.2798    6.4745   -3.9824 C   0  0  0  0  0  0  0  0  0  0  0  0
    6.8429    7.8974   -4.0152 C   0  0  0  0  0  0  0  0  0  0  0  0
    5.8254    8.2298   -3.4113 O   0  0  0  0  0  0  0  0  0  0  0  0
    7.6157    8.7960   -4.7312 N   0  0  0  0  0  0  0  0  0  0  0  0
    7.2996   10.1890   -4.7984 C   0  0  0  0  0  0  0  0  0  0  0  0
    8.1702   11.1453   -5.5659 C   0  0  0  0  0  0  0  0  0  0  0  0
    8.1428   11.1966   -4.0668 C   0  0  0  0  0  0  0  0  0  0  0  0
    8.4206    6.0091   -4.6391 C   0  0  0  0  0  0  0  0  0  0  0  0
    9.1928    6.8394   -5.3569 F   0  0  0  0  0  0  0  0  0  0  0  0
    8.7913    4.6687   -4.5739 C   0  0  0  0  0  0  0  0  0  0  0  0
    8.0132    3.7836   -3.8350 C   0  0  0  0  0  0  0  0  0  0  0  0
    8.3806    2.4946   -3.7688 F   0  0  0  0  0  0  0  0  0  0  0  0
    4.3546    2.8207   -0.6747 C   0  0  0  0  0  0  0  0  0  0  0  0
    3.5252    1.7605   -1.0817 C   0  0  0  0  0  0  0  0  0  0  0  0
    3.4933    0.8881   -2.3303 C   0  0  0  0  0  0  0  0  0  0  0  0
    2.5782    1.4828   -3.4041 C   0  0  0  0  0  0  0  0  0  0  0  0
    4.8180    0.4505   -2.9342 C   0  0  0  0  0  0  0  0  0  0  0  0
    0.2579    0.9074    0.8804 O   0  0  0  0  0  0  0  0  0  0  0  0
   -2.4389   -1.0639    0.8180 H   0  0  0  0  0  0  0  0  0  0  0  0
   -2.5400    0.7020    0.7529 H   0  0  0  0  0  0  0  0  0  0  0  0
   -1.8546   -0.0967    2.1862 H   0  0  0  0  0  0  0  0  0  0  0  0
    2.2040    2.9139    1.7795 H   0  0  0  0  0  0  0  0  0  0  0  0
    5.9833    5.5965    1.3037 H   0  0  0  0  0  0  0  0  0  0  0  0
    6.5447    2.3549   -2.4214 H   0  0  0  0  0  0  0  0  0  0  0  0
    5.6033    5.9093   -2.7434 H   0  0  0  0  0  0  0  0  0  0  0  0
    8.4372    8.4648   -5.2263 H   0  0  0  0  0  0  0  0  0  0  0  0
    6.2286   10.3827   -4.8305 H   0  0  0  0  0  0  0  0  0  0  0  0
    7.6792   11.9452   -6.1089 H   0  0  0  0  0  0  0  0  0  0  0  0
    9.0690   10.7736   -6.0420 H   0  0  0  0  0  0  0  0  0  0  0  0
    7.6301   12.0248   -3.5907 H   0  0  0  0  0  0  0  0  0  0  0  0
    9.0154   10.8483   -3.5276 H   0  0  0  0  0  0  0  0  0  0  0  0
    9.6790    4.3195   -5.0893 H   0  0  0  0  0  0  0  0  0  0  0  0
    3.0490   -0.0677   -2.0315 H   0  0  0  0  0  0  0  0  0  0  0  0
    2.9125    2.4799   -3.7079 H   0  0  0  0  0  0  0  0  0  0  0  0
    1.5486    1.5743   -3.0393 H   0  0  0  0  0  0  0  0  0  0  0  0
    2.5512    0.8433   -4.2933 H   0  0  0  0  0  0  0  0  0  0  0  0
    5.2891    1.2410   -3.5158 H   0  0  0  0  0  0  0  0  0  0  0  0
    4.6443   -0.3671   -3.6459 H   0  0  0  0  0  0  0  0  0  0  0  0
    5.5095    0.0806   -2.1714 H   0  0  0  0  0  0  0  0  0  0  0  0
  1  2  1  0  0  0  0
  1 34  1  0  0  0  0
  1 35  1  0  0  0  0
  1 36  1  0  0  0  0
  2  3  2  0  0  0  0
  2 33  1  0  0  0  0
  3  4  1  0  0  0  0
  4  5  2  0  0  0  0
  5  6  1  0  0  0  0
  5 33  1  0  0  0  0
  6  7  2  0  0  0  0
  6 29  1  0  0  0  0
  7  8  1  0  0  0  0
  7 37  1  0  0  0  0
  8  9  1  0  0  0  0
  8 28  1  0  0  0  0
  9 10  2  0  0  0  0
 10 11  1  0  0  0  0
 10 38  1  0  0  0  0
 11 12  2  0  0  0  0
 12 13  1  0  0  0  0
 12 28  1  0  0  0  0
 13 14  1  0  0  0  0
 13 39  1  0  0  0  0
 14 15  1  0  0  0  0
 14 26  2  0  0  0  0
 15 16  2  0  0  0  0
 15 40  1  0  0  0  0
 16 17  1  0  0  0  0
 16 23  1  0  0  0  0
 17 18  2  0  0  0  0
 17 19  1  0  0  0  0
 19 20  1  0  0  0  0
 19 41  1  0  0  0  0
 20 21  1  0  0  0  0
 20 22  1  0  0  0  0
 20 42  1  0  0  0  0
 21 22  1  0  0  0  0
 21 43  1  0  0  0  0
 21 44  1  0  0  0  0
 22 45  1  0  0  0  0
 22 46  1  0  0  0  0
 23 24  1  0  0  0  0
 23 25  2  0  0  0  0
 25 26  1  0  0  0  0
 25 47  1  0  0  0  0
 26 27  1  0  0  0  0
 28 29  2  0  0  0  0
 29 30  1  0  0  0  0
 30 31  1  0  0  0  0
 30 32  1  0  0  0  0
 30 48  1  0  0  0  0
 31 49  1  0  0  0  0
 31 50  1  0  0  0  0
 31 51  1  0  0  0  0
 32 52  1  0  0  0  0
 32 53  1  0  0  0  0
 32 54  1  0  0  0  0
M  END
$$$$
