CHEMBL312526
 OpenBabel04072215363D

 43 46  0  0  0  0  0  0  0  0999 V2000
    0.9555   -0.6531   -3.7963 C   0  0  0  0  0  0  0  0  0  0  0  0
    0.2300   -0.4765   -2.4963 C   0  0  0  0  0  0  0  0  0  0  0  0
   -0.5803   -1.4871   -1.9867 C   0  0  0  0  0  0  0  0  0  0  0  0
   -1.1983   -1.3142   -0.7395 C   0  0  0  0  0  0  0  0  0  0  0  0
   -2.0116   -2.4345   -0.1231 C   0  0  0  0  0  0  0  0  0  0  0  0
   -1.1812   -3.6723    0.1350 C   0  0  0  0  0  0  0  0  0  0  0  0
   -1.2525   -4.6019   -0.8398 N   0  0  0  0  0  0  0  0  0  0  0  0
   -0.4069   -5.6657   -0.8303 N   0  0  0  0  0  0  0  0  0  0  0  0
    0.5387   -5.8013    0.1252 C   0  0  0  0  0  0  0  0  0  0  0  0
    1.4226   -6.9167    0.0674 N   0  0  0  0  0  0  0  0  0  0  0  0
    1.5601   -7.7336   -1.0785 C   0  0  0  0  0  0  0  0  0  0  0  0
    1.7507   -7.1557   -2.3436 C   0  0  0  0  0  0  0  0  0  0  0  0
    1.8055   -7.9428   -3.4935 C   0  0  0  0  0  0  0  0  0  0  0  0
    1.6814   -9.3228   -3.3854 C   0  0  0  0  0  0  0  0  0  0  0  0
    1.6944  -10.2944   -4.8049 Cl  0  0  0  0  0  0  0  0  0  0  0  0
    1.5335   -9.9204   -2.1345 C   0  0  0  0  0  0  0  0  0  0  0  0
    1.4826   -9.1279   -0.9816 C   0  0  0  0  0  0  0  0  0  0  0  0
    0.6465   -4.8639    1.1737 C   0  0  0  0  0  0  0  0  0  0  0  0
    1.6522   -4.9232    2.1696 C   0  0  0  0  0  0  0  0  0  0  0  0
    1.7164   -3.9873    3.2019 C   0  0  0  0  0  0  0  0  0  0  0  0
    0.7707   -2.9766    3.2733 C   0  0  0  0  0  0  0  0  0  0  0  0
   -0.2052   -2.8728    2.2832 C   0  0  0  0  0  0  0  0  0  0  0  0
   -0.2681   -3.7858    1.2041 C   0  0  0  0  0  0  0  0  0  0  0  0
   -1.0049   -0.1060   -0.0698 C   0  0  0  0  0  0  0  0  0  0  0  0
   -0.1977    0.8542   -0.6586 C   0  0  0  0  0  0  0  0  0  0  0  0
    0.4221    0.6955   -1.8472 N   0  0  0  0  0  0  0  0  0  0  0  0
    0.8076   -1.6550   -4.2121 H   0  0  0  0  0  0  0  0  0  0  0  0
    2.0297   -0.5082   -3.6423 H   0  0  0  0  0  0  0  0  0  0  0  0
    0.5994    0.0794   -4.5267 H   0  0  0  0  0  0  0  0  0  0  0  0
   -0.7071   -2.4141   -2.5412 H   0  0  0  0  0  0  0  0  0  0  0  0
   -2.8291   -2.6812   -0.8142 H   0  0  0  0  0  0  0  0  0  0  0  0
   -2.5077   -2.1082    0.7980 H   0  0  0  0  0  0  0  0  0  0  0  0
    1.3345   -7.4521    0.9240 H   0  0  0  0  0  0  0  0  0  0  0  0
    1.8342   -6.0753   -2.4394 H   0  0  0  0  0  0  0  0  0  0  0  0
    1.9256   -7.4677   -4.4635 H   0  0  0  0  0  0  0  0  0  0  0  0
    1.4374  -10.9992   -2.0517 H   0  0  0  0  0  0  0  0  0  0  0  0
    1.3423   -9.6124   -0.0192 H   0  0  0  0  0  0  0  0  0  0  0  0
    2.4217   -5.6922    2.1299 H   0  0  0  0  0  0  0  0  0  0  0  0
    2.5073   -4.0478    3.9456 H   0  0  0  0  0  0  0  0  0  0  0  0
    0.7982   -2.2573    4.0875 H   0  0  0  0  0  0  0  0  0  0  0  0
   -0.9232   -2.0612    2.3714 H   0  0  0  0  0  0  0  0  0  0  0  0
   -1.4549    0.0898    0.8967 H   0  0  0  0  0  0  0  0  0  0  0  0
   -0.0128    1.8059   -0.1688 H   0  0  0  0  0  0  0  0  0  0  0  0
  1  2  1  0  0  0  0
  1 27  1  0  0  0  0
  1 28  1  0  0  0  0
  1 29  1  0  0  0  0
  2  3  1  0  0  0  0
  2 26  2  0  0  0  0
  3  4  2  0  0  0  0
  3 30  1  0  0  0  0
  4  5  1  0  0  0  0
  4 24  1  0  0  0  0
  5  6  1  0  0  0  0
  5 31  1  0  0  0  0
  5 32  1  0  0  0  0
  6  7  1  0  0  0  0
  6 23  2  0  0  0  0
  7  8  2  0  0  0  0
  8  9  1  0  0  0  0
  9 10  1  0  0  0  0
  9 18  2  0  0  0  0
 10 11  1  0  0  0  0
 10 33  1  0  0  0  0
 11 12  1  0  0  0  0
 11 17  2  0  0  0  0
 12 13  2  0  0  0  0
 12 34  1  0  0  0  0
 13 14  1  0  0  0  0
 13 35  1  0  0  0  0
 14 15  1  0  0  0  0
 14 16  2  0  0  0  0
 16 17  1  0  0  0  0
 16 36  1  0  0  0  0
 17 37  1  0  0  0  0
 18 19  1  0  0  0  0
 18 23  1  0  0  0  0
 19 20  2  0  0  0  0
 19 38  1  0  0  0  0
 20 21  1  0  0  0  0
 20 39  1  0  0  0  0
 21 22  2  0  0  0  0
 21 40  1  0  0  0  0
 22 23  1  0  0  0  0
 22 41  1  0  0  0  0
 24 25  2  0  0  0  0
 24 42  1  0  0  0  0
 25 26  1  0  0  0  0
 25 43  1  0  0  0  0
M  END
$$$$
