CHEMBL246167
 OpenBabel04072215363D

 38 41  0  0  0  0  0  0  0  0999 V2000
    2.2281   -0.9614   -0.3062 F   0  0  0  0  0  0  0  0  0  0  0  0
    1.9345    0.0846    0.5144 C   0  0  0  0  0  0  0  0  0  0  0  0
    0.6108   -0.0180    0.8076 F   0  0  0  0  0  0  0  0  0  0  0  0
    2.6158   -0.1276    1.6704 F   0  0  0  0  0  0  0  0  0  0  0  0
    2.2719    1.4045   -0.1167 C   0  0  0  0  0  0  0  0  0  0  0  0
    2.8089    1.6639   -1.3674 C   0  0  0  0  0  0  0  0  0  0  0  0
    2.8494    3.0264   -1.4762 N   0  0  0  0  0  0  0  0  0  0  0  0
    2.3803    3.5614   -0.3053 C   0  0  0  0  0  0  0  0  0  0  0  0
    2.2599    5.0324   -0.0704 C   0  0  0  0  0  0  0  0  0  0  0  0
    2.4862    5.9070   -1.0653 N   0  0  0  0  0  0  0  0  0  0  0  0
    2.2427    7.1004   -0.4990 N   0  0  0  0  0  0  0  0  0  0  0  0
    1.9065    7.0266    0.8204 C   0  0  0  0  0  0  0  0  0  0  0  0
    1.9228    5.6884    1.1458 C   0  0  0  0  0  0  0  0  0  0  0  0
    1.7123    5.1145    2.4374 C   0  0  0  0  0  0  0  0  0  0  0  0
    1.4459    5.7832    3.5700 C   0  0  0  0  0  0  0  0  0  0  0  0
    1.3989    5.0958    4.8672 C   0  0  0  0  0  0  0  0  0  0  0  0
    2.5919    4.9772    5.5827 C   0  0  0  0  0  0  0  0  0  0  0  0
    2.7054    4.4042    6.7997 N   0  0  0  0  0  0  0  0  0  0  0  0
    1.5648    3.9173    7.3341 C   0  0  0  0  0  0  0  0  0  0  0  0
    0.3122    3.9629    6.7173 C   0  0  0  0  0  0  0  0  0  0  0  0
   -0.8340    3.4386    7.3410 C   0  0  0  0  0  0  0  0  0  0  0  0
   -2.0719    3.4832    6.7032 C   0  0  0  0  0  0  0  0  0  0  0  0
   -2.1759    4.0445    5.4352 C   0  0  0  0  0  0  0  0  0  0  0  0
   -1.0450    4.5769    4.8094 C   0  0  0  0  0  0  0  0  0  0  0  0
    0.2218    4.5574    5.4375 C   0  0  0  0  0  0  0  0  0  0  0  0
    2.0444    2.6076    0.5385 N   0  0  0  0  0  0  0  0  0  0  0  0
    3.1330    1.0110   -2.1662 H   0  0  0  0  0  0  0  0  0  0  0  0
    3.1650    3.5818   -2.2606 H   0  0  0  0  0  0  0  0  0  0  0  0
    2.3373    7.9348   -1.0716 H   0  0  0  0  0  0  0  0  0  0  0  0
    1.7111    7.9195    1.3962 H   0  0  0  0  0  0  0  0  0  0  0  0
    1.8231    4.0321    2.5088 H   0  0  0  0  0  0  0  0  0  0  0  0
    1.3278    6.8610    3.6022 H   0  0  0  0  0  0  0  0  0  0  0  0
    3.5263    5.3591    5.1778 H   0  0  0  0  0  0  0  0  0  0  0  0
    1.6909    3.4671    8.3157 H   0  0  0  0  0  0  0  0  0  0  0  0
   -0.7668    2.9911    8.3305 H   0  0  0  0  0  0  0  0  0  0  0  0
   -2.9520    3.0753    7.1936 H   0  0  0  0  0  0  0  0  0  0  0  0
   -3.1374    4.0683    4.9284 H   0  0  0  0  0  0  0  0  0  0  0  0
   -1.1595    5.0026    3.8145 H   0  0  0  0  0  0  0  0  0  0  0  0
  1  2  1  0  0  0  0
  2  3  1  0  0  0  0
  2  4  1  0  0  0  0
  2  5  1  0  0  0  0
  5  6  2  0  0  0  0
  5 26  1  0  0  0  0
  6  7  1  0  0  0  0
  6 27  1  0  0  0  0
  7  8  1  0  0  0  0
  7 28  1  0  0  0  0
  8  9  1  0  0  0  0
  8 26  2  0  0  0  0
  9 10  2  0  0  0  0
  9 13  1  0  0  0  0
 10 11  1  0  0  0  0
 11 12  1  0  0  0  0
 11 29  1  0  0  0  0
 12 13  2  0  0  0  0
 12 30  1  0  0  0  0
 13 14  1  0  0  0  0
 14 15  2  0  0  0  0
 14 31  1  0  0  0  0
 15 16  1  0  0  0  0
 15 32  1  0  0  0  0
 16 17  1  0  0  0  0
 16 25  2  0  0  0  0
 17 18  2  0  0  0  0
 17 33  1  0  0  0  0
 18 19  1  0  0  0  0
 19 20  2  0  0  0  0
 19 34  1  0  0  0  0
 20 21  1  0  0  0  0
 20 25  1  0  0  0  0
 21 22  2  0  0  0  0
 21 35  1  0  0  0  0
 22 23  1  0  0  0  0
 22 36  1  0  0  0  0
 23 24  2  0  0  0  0
 23 37  1  0  0  0  0
 24 25  1  0  0  0  0
 24 38  1  0  0  0  0
M  END
$$$$
