CHEMBL1964777
 OpenBabel04072215363D

 29 31  0  0  0  0  0  0  0  0999 V2000
    1.3014    0.4295   -0.1230 N   0  0  0  0  0  0  0  0  0  0  0  0
    2.4954   -0.1893    0.1362 C   0  0  0  0  0  0  0  0  0  0  0  0
    2.9167   -0.2184    1.2876 O   0  0  0  0  0  0  0  0  0  0  0  0
    3.1820   -0.7892   -0.9968 C   0  0  0  0  0  0  0  0  0  0  0  0
    4.3685   -1.4987   -0.9683 C   0  0  0  0  0  0  0  0  0  0  0  0
    4.7730   -1.9995   -2.2567 C   0  0  0  0  0  0  0  0  0  0  0  0
    5.8908   -2.7705   -2.6504 C   0  0  0  0  0  0  0  0  0  0  0  0
    6.8401   -3.1259   -1.7127 O   0  0  0  0  0  0  0  0  0  0  0  0
    8.1472   -3.2977   -2.1180 C   0  0  0  0  0  0  0  0  0  0  0  0
    8.7682   -2.5104   -3.0968 C   0  0  0  0  0  0  0  0  0  0  0  0
   10.0739   -2.7936   -3.5045 C   0  0  0  0  0  0  0  0  0  0  0  0
   10.7824   -3.8235   -2.8906 C   0  0  0  0  0  0  0  0  0  0  0  0
   10.1852   -4.5491   -1.8650 C   0  0  0  0  0  0  0  0  0  0  0  0
   10.8826   -5.5159   -1.2540 F   0  0  0  0  0  0  0  0  0  0  0  0
    8.8743   -4.2959   -1.4713 C   0  0  0  0  0  0  0  0  0  0  0  0
    5.9191   -3.1874   -3.9817 C   0  0  0  0  0  0  0  0  0  0  0  0
    5.0403   -2.8011   -4.9306 N   0  0  0  0  0  0  0  0  0  0  0  0
    4.0184   -1.9968   -4.5745 C   0  0  0  0  0  0  0  0  0  0  0  0
    3.8559   -1.6205   -3.2390 C   0  0  0  0  0  0  0  0  0  0  0  0
    2.5761   -0.6768   -2.5878 S   0  0  0  0  0  0  0  0  0  0  0  0
    0.8012    0.8353    0.6559 H   0  0  0  0  0  0  0  0  0  0  0  0
    0.9021    0.4589   -1.0475 H   0  0  0  0  0  0  0  0  0  0  0  0
    4.9189   -1.6759   -0.0506 H   0  0  0  0  0  0  0  0  0  0  0  0
    8.2410   -1.6848   -3.5693 H   0  0  0  0  0  0  0  0  0  0  0  0
   10.5323   -2.2130   -4.3010 H   0  0  0  0  0  0  0  0  0  0  0  0
   11.7970   -4.0586   -3.1971 H   0  0  0  0  0  0  0  0  0  0  0  0
    8.4324   -4.8847   -0.6746 H   0  0  0  0  0  0  0  0  0  0  0  0
    6.6922   -3.8571   -4.3475 H   0  0  0  0  0  0  0  0  0  0  0  0
    3.3375   -1.6912   -5.3601 H   0  0  0  0  0  0  0  0  0  0  0  0
  1  2  1  0  0  0  0
  1 21  1  0  0  0  0
  1 22  1  0  0  0  0
  2  3  2  0  0  0  0
  2  4  1  0  0  0  0
  4  5  2  0  0  0  0
  4 20  1  0  0  0  0
  5  6  1  0  0  0  0
  5 23  1  0  0  0  0
  6  7  1  0  0  0  0
  6 19  2  0  0  0  0
  7  8  1  0  0  0  0
  7 16  2  0  0  0  0
  8  9  1  0  0  0  0
  9 10  1  0  0  0  0
  9 15  2  0  0  0  0
 10 11  2  0  0  0  0
 10 24  1  0  0  0  0
 11 12  1  0  0  0  0
 11 25  1  0  0  0  0
 12 13  2  0  0  0  0
 12 26  1  0  0  0  0
 13 14  1  0  0  0  0
 13 15  1  0  0  0  0
 15 27  1  0  0  0  0
 16 17  1  0  0  0  0
 16 28  1  0  0  0  0
 17 18  2  0  0  0  0
 18 19  1  0  0  0  0
 18 29  1  0  0  0  0
 19 20  1  0  0  0  0
M  END
$$$$
