CHEMBL194872
 OpenBabel04072215363D

 54 57  0  0  0  0  0  0  0  0999 V2000
   -1.5881   -8.5759    4.3809 C   0  0  0  0  0  0  0  0  0  0  0  0
   -1.9728   -7.5366    3.4818 O   0  0  0  0  0  0  0  0  0  0  0  0
   -0.8273   -6.7587    3.1914 N   0  0  0  0  0  0  0  0  0  0  0  0
   -0.1398   -7.1312    2.0576 C   0  0  0  0  0  0  0  0  0  0  0  0
   -0.3296   -8.1691    1.4302 O   0  0  0  0  0  0  0  0  0  0  0  0
    0.9386   -6.2155    1.6134 C   0  0  0  0  0  0  0  0  0  0  0  0
    2.0130   -6.7668    0.8990 C   0  0  0  0  0  0  0  0  0  0  0  0
    3.0463   -5.9594    0.4095 C   0  0  0  0  0  0  0  0  0  0  0  0
    4.1545   -6.4859   -0.2865 N   0  0  0  0  0  0  0  0  0  0  0  0
    4.5866   -7.7924   -0.2696 C   0  0  0  0  0  0  0  0  0  0  0  0
    4.5226   -8.4453    0.8591 N   0  0  0  0  0  0  0  0  0  0  0  0
    4.9681   -9.7320    0.9416 C   0  0  0  0  0  0  0  0  0  0  0  0
    5.4634  -10.4360   -0.0188 N   0  0  0  0  0  0  0  0  0  0  0  0
    5.5248   -9.7867   -1.1896 N   0  0  0  0  0  0  0  0  0  0  0  0
    5.9807  -10.3540   -2.3398 C   0  0  0  0  0  0  0  0  0  0  0  0
    5.9236   -9.4082   -3.3344 C   0  0  0  0  0  0  0  0  0  0  0  0
    6.3791   -9.6917   -4.7320 C   0  0  0  0  0  0  0  0  0  0  0  0
    6.4572   -8.7908   -5.6923 N   0  0  0  0  0  0  0  0  0  0  0  0
    6.8971   -9.4264   -6.8286 N   0  0  0  0  0  0  0  0  0  0  0  0
    7.0552  -10.6871   -6.4981 C   0  0  0  0  0  0  0  0  0  0  0  0
    7.4846  -11.8123   -7.3418 C   0  0  0  0  0  0  0  0  0  0  0  0
    6.3051  -12.5391   -7.9442 C   0  0  0  0  0  0  0  0  0  0  0  0
    5.1067  -12.0490   -7.5669 F   0  0  0  0  0  0  0  0  0  0  0  0
    6.3534  -12.4928   -9.2964 F   0  0  0  0  0  0  0  0  0  0  0  0
    6.3293  -13.8481   -7.5933 F   0  0  0  0  0  0  0  0  0  0  0  0
    6.7788  -10.9351   -5.1827 O   0  0  0  0  0  0  0  0  0  0  0  0
    5.3517   -8.2034   -2.7719 C   0  0  0  0  0  0  0  0  0  0  0  0
    5.0376   -6.9604   -3.5847 C   0  0  0  0  0  0  0  0  0  0  0  0
    3.5515   -6.6058   -3.6107 C   0  0  0  0  0  0  0  0  0  0  0  0
    5.9461   -5.7725   -3.2737 C   0  0  0  0  0  0  0  0  0  0  0  0
    5.1376   -8.4888   -1.4140 C   0  0  0  0  0  0  0  0  0  0  0  0
    2.9835   -4.5829    0.6797 C   0  0  0  0  0  0  0  0  0  0  0  0
    3.9615   -3.7797    0.2333 F   0  0  0  0  0  0  0  0  0  0  0  0
    1.9357   -4.0217    1.4043 C   0  0  0  0  0  0  0  0  0  0  0  0
    0.9170   -4.8457    1.8675 C   0  0  0  0  0  0  0  0  0  0  0  0
   -0.0910   -4.2913    2.5575 F   0  0  0  0  0  0  0  0  0  0  0  0
   -2.4782   -9.1576    4.6379 H   0  0  0  0  0  0  0  0  0  0  0  0
   -1.1659   -8.1497    5.2965 H   0  0  0  0  0  0  0  0  0  0  0  0
   -0.8614   -9.2436    3.9093 H   0  0  0  0  0  0  0  0  0  0  0  0
   -0.8822   -5.7847    3.4730 H   0  0  0  0  0  0  0  0  0  0  0  0
    2.0200   -7.8394    0.7090 H   0  0  0  0  0  0  0  0  0  0  0  0
    4.4899   -5.8749   -1.0130 H   0  0  0  0  0  0  0  0  0  0  0  0
    4.8924  -10.1989    1.9393 H   0  0  0  0  0  0  0  0  0  0  0  0
    6.3144  -11.3828   -2.3421 H   0  0  0  0  0  0  0  0  0  0  0  0
    8.1009  -12.5052   -6.7591 H   0  0  0  0  0  0  0  0  0  0  0  0
    8.1261  -11.4296   -8.1439 H   0  0  0  0  0  0  0  0  0  0  0  0
    5.2528   -7.1843   -4.6320 H   0  0  0  0  0  0  0  0  0  0  0  0
    3.1339   -6.4087   -2.6244 H   0  0  0  0  0  0  0  0  0  0  0  0
    2.9734   -7.4294   -4.0465 H   0  0  0  0  0  0  0  0  0  0  0  0
    3.3779   -5.7187   -4.2295 H   0  0  0  0  0  0  0  0  0  0  0  0
    5.7721   -5.3327   -2.2925 H   0  0  0  0  0  0  0  0  0  0  0  0
    5.7952   -4.9789   -4.0148 H   0  0  0  0  0  0  0  0  0  0  0  0
    7.0006   -6.0669   -3.3168 H   0  0  0  0  0  0  0  0  0  0  0  0
    1.9154   -2.9558    1.6023 H   0  0  0  0  0  0  0  0  0  0  0  0
  1  2  1  0  0  0  0
  1 37  1  0  0  0  0
  1 38  1  0  0  0  0
  1 39  1  0  0  0  0
  2  3  1  0  0  0  0
  3  4  1  0  0  0  0
  3 40  1  0  0  0  0
  4  5  2  0  0  0  0
  4  6  1  0  0  0  0
  6  7  1  0  0  0  0
  6 35  2  0  0  0  0
  7  8  2  0  0  0  0
  7 41  1  0  0  0  0
  8  9  1  0  0  0  0
  8 32  1  0  0  0  0
  9 10  1  0  0  0  0
  9 42  1  0  0  0  0
 10 11  2  0  0  0  0
 10 31  1  0  0  0  0
 11 12  1  0  0  0  0
 12 13  2  0  0  0  0
 12 43  1  0  0  0  0
 13 14  1  0  0  0  0
 14 15  1  0  0  0  0
 14 31  1  0  0  0  0
 15 16  2  0  0  0  0
 15 44  1  0  0  0  0
 16 17  1  0  0  0  0
 16 27  1  0  0  0  0
 17 18  2  0  0  0  0
 17 26  1  0  0  0  0
 18 19  1  0  0  0  0
 19 20  2  0  0  0  0
 20 21  1  0  0  0  0
 20 26  1  0  0  0  0
 21 22  1  0  0  0  0
 21 45  1  0  0  0  0
 21 46  1  0  0  0  0
 22 23  1  0  0  0  0
 22 24  1  0  0  0  0
 22 25  1  0  0  0  0
 27 28  1  0  0  0  0
 27 31  2  0  0  0  0
 28 29  1  0  0  0  0
 28 30  1  0  0  0  0
 28 47  1  0  0  0  0
 29 48  1  0  0  0  0
 29 49  1  0  0  0  0
 29 50  1  0  0  0  0
 30 51  1  0  0  0  0
 30 52  1  0  0  0  0
 30 53  1  0  0  0  0
 32 33  1  0  0  0  0
 32 34  2  0  0  0  0
 34 35  1  0  0  0  0
 34 54  1  0  0  0  0
 35 36  1  0  0  0  0
M  END
$$$$
