CHEMBL180331
 OpenBabel04072215363D

 52 55  0  0  0  0  0  0  0  0999 V2000
    5.5707    1.6235    0.4496 C   0  0  0  0  0  0  0  0  0  0  0  0
    4.3801    1.1676   -0.1939 O   0  0  0  0  0  0  0  0  0  0  0  0
    4.5467    0.1308   -1.0757 C   0  0  0  0  0  0  0  0  0  0  0  0
    5.6292   -0.7534   -1.0138 C   0  0  0  0  0  0  0  0  0  0  0  0
    5.8300   -1.7726   -1.9330 C   0  0  0  0  0  0  0  0  0  0  0  0
    6.9440   -2.5051   -1.7999 N   0  0  0  0  0  0  0  0  0  0  0  0
    7.1894   -3.4709   -2.7039 C   0  0  0  0  0  0  0  0  0  0  0  0
    6.3690   -3.7325   -3.7755 C   0  0  0  0  0  0  0  0  0  0  0  0
    5.2084   -2.9744   -3.9233 C   0  0  0  0  0  0  0  0  0  0  0  0
    4.4721   -3.3385   -5.0411 O   0  0  0  0  0  0  0  0  0  0  0  0
    3.7627   -2.4052   -5.7562 C   0  0  0  0  0  0  0  0  0  0  0  0
    4.1473   -1.0799   -5.9096 C   0  0  0  0  0  0  0  0  0  0  0  0
    3.2280   -0.1531   -6.4058 C   0  0  0  0  0  0  0  0  0  0  0  0
    1.9493   -0.5417   -6.8288 C   0  0  0  0  0  0  0  0  0  0  0  0
    0.9329    0.3876   -7.2042 N   0  0  0  0  0  0  0  0  0  0  0  0
    1.0001    1.7439   -6.9744 C   0  0  0  0  0  0  0  0  0  0  0  0
    1.9358    2.3027   -6.4068 O   0  0  0  0  0  0  0  0  0  0  0  0
   -0.1057    2.4432   -7.4474 N   0  0  0  0  0  0  0  0  0  0  0  0
   -0.1692    3.8641   -7.4480 C   0  0  0  0  0  0  0  0  0  0  0  0
    0.9846    4.6647   -7.4592 C   0  0  0  0  0  0  0  0  0  0  0  0
    0.9027    6.0541   -7.3689 C   0  0  0  0  0  0  0  0  0  0  0  0
   -0.3421    6.6543   -7.3057 C   0  0  0  0  0  0  0  0  0  0  0  0
   -0.4262    7.9869   -7.2021 F   0  0  0  0  0  0  0  0  0  0  0  0
   -1.5031    5.8894   -7.3511 C   0  0  0  0  0  0  0  0  0  0  0  0
   -1.4197    4.4917   -7.4305 C   0  0  0  0  0  0  0  0  0  0  0  0
    1.6553   -1.9086   -6.8574 C   0  0  0  0  0  0  0  0  0  0  0  0
    2.5583   -2.8358   -6.3163 C   0  0  0  0  0  0  0  0  0  0  0  0
    4.8761   -1.9853   -2.9489 C   0  0  0  0  0  0  0  0  0  0  0  0
    3.7054   -1.1865   -2.9061 C   0  0  0  0  0  0  0  0  0  0  0  0
    3.5682   -0.0949   -2.0406 C   0  0  0  0  0  0  0  0  0  0  0  0
    2.4149    0.6177   -2.2280 O   0  0  0  0  0  0  0  0  0  0  0  0
    2.5236    2.0376   -2.1909 C   0  0  0  0  0  0  0  0  0  0  0  0
    5.3408    2.5576    0.9704 H   0  0  0  0  0  0  0  0  0  0  0  0
    6.3622    1.8329   -0.2775 H   0  0  0  0  0  0  0  0  0  0  0  0
    5.9079    0.9033    1.2016 H   0  0  0  0  0  0  0  0  0  0  0  0
    6.3776   -0.6682   -0.2277 H   0  0  0  0  0  0  0  0  0  0  0  0
    8.1033   -4.0366   -2.5391 H   0  0  0  0  0  0  0  0  0  0  0  0
    6.6268   -4.5077   -4.4877 H   0  0  0  0  0  0  0  0  0  0  0  0
    5.1050   -0.7189   -5.5427 H   0  0  0  0  0  0  0  0  0  0  0  0
    3.5439    0.8845   -6.3950 H   0  0  0  0  0  0  0  0  0  0  0  0
    0.0594    0.0001   -7.5210 H   0  0  0  0  0  0  0  0  0  0  0  0
   -0.9786    1.9433   -7.4853 H   0  0  0  0  0  0  0  0  0  0  0  0
    1.9774    4.2286   -7.5313 H   0  0  0  0  0  0  0  0  0  0  0  0
    1.8062    6.6553   -7.3386 H   0  0  0  0  0  0  0  0  0  0  0  0
   -2.4653    6.3889   -7.3081 H   0  0  0  0  0  0  0  0  0  0  0  0
   -2.3393    3.9142   -7.4399 H   0  0  0  0  0  0  0  0  0  0  0  0
    0.7052   -2.2715   -7.2365 H   0  0  0  0  0  0  0  0  0  0  0  0
    2.2960   -3.8899   -6.2790 H   0  0  0  0  0  0  0  0  0  0  0  0
    2.8823   -1.3723   -3.5919 H   0  0  0  0  0  0  0  0  0  0  0  0
    2.0275    2.4392   -3.0825 H   0  0  0  0  0  0  0  0  0  0  0  0
    3.5483    2.4226   -2.1901 H   0  0  0  0  0  0  0  0  0  0  0  0
    1.9793    2.4038   -1.3156 H   0  0  0  0  0  0  0  0  0  0  0  0
  1  2  1  0  0  0  0
  1 33  1  0  0  0  0
  1 34  1  0  0  0  0
  1 35  1  0  0  0  0
  2  3  1  0  0  0  0
  3  4  1  0  0  0  0
  3 30  2  0  0  0  0
  4  5  2  0  0  0  0
  4 36  1  0  0  0  0
  5  6  1  0  0  0  0
  5 28  1  0  0  0  0
  6  7  2  0  0  0  0
  7  8  1  0  0  0  0
  7 37  1  0  0  0  0
  8  9  2  0  0  0  0
  8 38  1  0  0  0  0
  9 10  1  0  0  0  0
  9 28  1  0  0  0  0
 10 11  1  0  0  0  0
 11 12  1  0  0  0  0
 11 27  2  0  0  0  0
 12 13  2  0  0  0  0
 12 39  1  0  0  0  0
 13 14  1  0  0  0  0
 13 40  1  0  0  0  0
 14 15  1  0  0  0  0
 14 26  2  0  0  0  0
 15 16  1  0  0  0  0
 15 41  1  0  0  0  0
 16 17  2  0  0  0  0
 16 18  1  0  0  0  0
 18 19  1  0  0  0  0
 18 42  1  0  0  0  0
 19 20  1  0  0  0  0
 19 25  2  0  0  0  0
 20 21  2  0  0  0  0
 20 43  1  0  0  0  0
 21 22  1  0  0  0  0
 21 44  1  0  0  0  0
 22 23  1  0  0  0  0
 22 24  2  0  0  0  0
 24 25  1  0  0  0  0
 24 45  1  0  0  0  0
 25 46  1  0  0  0  0
 26 27  1  0  0  0  0
 26 47  1  0  0  0  0
 27 48  1  0  0  0  0
 28 29  2  0  0  0  0
 29 30  1  0  0  0  0
 29 49  1  0  0  0  0
 30 31  1  0  0  0  0
 31 32  1  0  0  0  0
 32 50  1  0  0  0  0
 32 51  1  0  0  0  0
 32 52  1  0  0  0  0
M  END
$$$$
