CHEMBL3823527
 OpenBabel04072215373D

 37 39  0  0  0  0  0  0  0  0999 V2000
    1.0355   -0.5332    0.6382 C   0  0  0  0  0  0  0  0  0  0  0  0
    2.4197   -0.2854    0.4008 O   0  0  0  0  0  0  0  0  0  0  0  0
    3.0095    0.5623    1.2982 C   0  0  0  0  0  0  0  0  0  0  0  0
    2.6496    0.6672    2.6348 C   0  0  0  0  0  0  0  0  0  0  0  0
    3.3325    1.5575    3.4632 C   0  0  0  0  0  0  0  0  0  0  0  0
    4.3609    2.3551    2.9933 C   0  0  0  0  0  0  0  0  0  0  0  0
    4.9451    3.1724    3.8795 N   0  0  0  0  0  0  0  0  0  0  0  0
    5.9514    3.9507    3.4521 C   0  0  0  0  0  0  0  0  0  0  0  0
    6.3803    3.9774    2.1439 C   0  0  0  0  0  0  0  0  0  0  0  0
    5.7410    3.1742    1.1897 C   0  0  0  0  0  0  0  0  0  0  0  0
    6.0684    3.3748   -0.1818 N   0  0  0  0  0  0  0  0  0  0  0  0
    6.4221    4.6218   -0.7540 C   0  0  0  0  0  0  0  0  0  0  0  0
    5.8073    5.8014   -0.2871 C   0  0  0  0  0  0  0  0  0  0  0  0
    6.2809    7.0483   -0.6675 C   0  0  0  0  0  0  0  0  0  0  0  0
    5.7420    8.1938   -0.1642 O   0  0  0  0  0  0  0  0  0  0  0  0
    7.3444    7.1530   -1.5503 C   0  0  0  0  0  0  0  0  0  0  0  0
    7.9044    5.9943   -2.0943 C   0  0  0  0  0  0  0  0  0  0  0  0
    7.4400    4.7201   -1.7211 C   0  0  0  0  0  0  0  0  0  0  0  0
    8.0718    3.5009   -2.3326 C   0  0  0  0  0  0  0  0  0  0  0  0
    4.7304    2.2792    1.6263 C   0  0  0  0  0  0  0  0  0  0  0  0
    4.0574    1.3436    0.8034 C   0  0  0  0  0  0  0  0  0  0  0  0
    0.6215   -1.0055   -0.2582 H   0  0  0  0  0  0  0  0  0  0  0  0
    0.4867    0.3990    0.8093 H   0  0  0  0  0  0  0  0  0  0  0  0
    0.8976   -1.2267    1.4740 H   0  0  0  0  0  0  0  0  0  0  0  0
    1.8600    0.0633    3.0682 H   0  0  0  0  0  0  0  0  0  0  0  0
    3.0480    1.6354    4.5106 H   0  0  0  0  0  0  0  0  0  0  0  0
    6.4005    4.5935    4.2011 H   0  0  0  0  0  0  0  0  0  0  0  0
    7.1892    4.6466    1.8672 H   0  0  0  0  0  0  0  0  0  0  0  0
    5.7023    2.7088   -0.8467 H   0  0  0  0  0  0  0  0  0  0  0  0
    4.9733    5.7270    0.4052 H   0  0  0  0  0  0  0  0  0  0  0  0
    5.0314    7.9534    0.4546 H   0  0  0  0  0  0  0  0  0  0  0  0
    7.7371    8.1306   -1.8125 H   0  0  0  0  0  0  0  0  0  0  0  0
    8.7301    6.0968   -2.7961 H   0  0  0  0  0  0  0  0  0  0  0  0
    8.8949    3.7721   -3.0029 H   0  0  0  0  0  0  0  0  0  0  0  0
    7.3309    2.9563   -2.9249 H   0  0  0  0  0  0  0  0  0  0  0  0
    8.4799    2.8431   -1.5592 H   0  0  0  0  0  0  0  0  0  0  0  0
    4.3405    1.2110   -0.2370 H   0  0  0  0  0  0  0  0  0  0  0  0
  1  2  1  0  0  0  0
  1 22  1  0  0  0  0
  1 23  1  0  0  0  0
  1 24  1  0  0  0  0
  2  3  1  0  0  0  0
  3  4  1  0  0  0  0
  3 21  2  0  0  0  0
  4  5  2  0  0  0  0
  4 25  1  0  0  0  0
  5  6  1  0  0  0  0
  5 26  1  0  0  0  0
  6  7  1  0  0  0  0
  6 20  2  0  0  0  0
  7  8  2  0  0  0  0
  8  9  1  0  0  0  0
  8 27  1  0  0  0  0
  9 10  2  0  0  0  0
  9 28  1  0  0  0  0
 10 11  1  0  0  0  0
 10 20  1  0  0  0  0
 11 12  1  0  0  0  0
 11 29  1  0  0  0  0
 12 13  1  0  0  0  0
 12 18  2  0  0  0  0
 13 14  2  0  0  0  0
 13 30  1  0  0  0  0
 14 15  1  0  0  0  0
 14 16  1  0  0  0  0
 15 31  1  0  0  0  0
 16 17  2  0  0  0  0
 16 32  1  0  0  0  0
 17 18  1  0  0  0  0
 17 33  1  0  0  0  0
 18 19  1  0  0  0  0
 19 34  1  0  0  0  0
 19 35  1  0  0  0  0
 19 36  1  0  0  0  0
 20 21  1  0  0  0  0
 21 37  1  0  0  0  0
M  END
$$$$
