CHEMBL4638231
 OpenBabel04072215383D

101106  0  0  0  0  0  0  0  0999 V2000
    4.0758    4.0242    7.1278 C   0  0  0  0  0  0  0  0  0  0  0  0
    4.7673    2.7812    6.5917 C   0  0  0  0  0  0  0  0  0  0  0  0
    4.1844    1.5743    7.2078 N   0  0  0  0  0  0  0  0  0  0  0  0
    4.8430    0.0744    6.6940 S   0  0  0  0  0  0  0  0  0  0  0  0
    6.2046    0.3293    6.2793 O   0  0  0  0  0  0  0  0  0  0  0  0
    4.5082   -0.8876    7.7217 O   0  0  0  0  0  0  0  0  0  0  0  0
    3.8276   -0.3093    5.2879 C   0  0  0  0  0  0  0  0  0  0  0  0
    2.4468   -0.4536    5.5643 C   0  0  0  0  0  0  0  0  0  0  0  0
    1.5311   -0.7167    4.5499 C   0  0  0  0  0  0  0  0  0  0  0  0
    1.9778   -0.8049    3.2441 C   0  0  0  0  0  0  0  0  0  0  0  0
    3.3410   -0.6836    2.9724 C   0  0  0  0  0  0  0  0  0  0  0  0
    4.3152   -0.5153    3.9904 C   0  0  0  0  0  0  0  0  0  0  0  0
    5.6976   -0.5009    3.6023 N   0  0  0  0  0  0  0  0  0  0  0  0
    6.1544   -1.3539    2.5396 C   0  0  0  0  0  0  0  0  0  0  0  0
    5.4711   -2.5073    2.3571 N   0  0  0  0  0  0  0  0  0  0  0  0
    5.6186   -3.1694    1.2069 C   0  0  0  0  0  0  0  0  0  0  0  0
    4.7239   -4.2010    0.9793 N   0  0  0  0  0  0  0  0  0  0  0  0
    4.2135   -4.6970   -0.2248 C   0  0  0  0  0  0  0  0  0  0  0  0
    4.1461   -3.9859   -1.4177 C   0  0  0  0  0  0  0  0  0  0  0  0
    3.6718   -4.5925   -2.5953 C   0  0  0  0  0  0  0  0  0  0  0  0
    3.3008   -5.9542   -2.6270 C   0  0  0  0  0  0  0  0  0  0  0  0
    2.9865   -6.5063   -3.8861 N   0  0  0  0  0  0  0  0  0  0  0  0
    3.3743   -7.9009   -4.1169 C   0  0  0  0  0  0  0  0  0  0  0  0
    3.5391   -8.0825   -5.6186 C   0  0  0  0  0  0  0  0  0  0  0  0
    2.2304   -7.8366   -6.4083 C   0  0  0  0  0  0  0  0  0  0  0  0
    1.2290   -8.9430   -6.4116 N   0  0  0  0  0  0  0  0  0  0  0  0
    1.7967  -10.3127   -6.4484 C   0  0  0  0  0  0  0  0  0  0  0  0
    2.5032  -10.6894   -7.7727 C   0  0  0  0  0  0  0  0  0  0  0  0
    1.5930  -10.6192   -8.9268 N   0  0  0  0  0  0  0  0  0  0  0  0
    2.3233  -10.8513  -10.1749 C   0  0  0  0  0  0  0  0  0  0  0  0
    0.8897   -9.3234   -8.9595 C   0  0  0  0  0  0  0  0  0  0  0  0
    0.3114   -8.8568   -7.5877 C   0  0  0  0  0  0  0  0  0  0  0  0
    1.6087   -6.4864   -5.9237 C   0  0  0  0  0  0  0  0  0  0  0  0
    1.6398   -6.2298   -4.4017 C   0  0  0  0  0  0  0  0  0  0  0  0
    3.3617   -6.6678   -1.4083 C   0  0  0  0  0  0  0  0  0  0  0  0
    3.0195   -7.9976   -1.4142 O   0  0  0  0  0  0  0  0  0  0  0  0
    2.7089   -8.5841   -0.1580 C   0  0  0  0  0  0  0  0  0  0  0  0
    3.8066   -6.0326   -0.2375 C   0  0  0  0  0  0  0  0  0  0  0  0
    6.5369   -2.8648    0.2968 N   0  0  0  0  0  0  0  0  0  0  0  0
    7.3124   -1.8030    0.5623 C   0  0  0  0  0  0  0  0  0  0  0  0
    7.1620   -0.9641    1.6572 C   0  0  0  0  0  0  0  0  0  0  0  0
    7.9259    0.2246    1.8082 N   0  0  0  0  0  0  0  0  0  0  0  0
    8.5264    0.8468    0.7226 C   0  0  0  0  0  0  0  0  0  0  0  0
    8.3972    0.4902   -0.4464 O   0  0  0  0  0  0  0  0  0  0  0  0
    9.3093    2.0770    0.9562 C   0  0  0  0  0  0  0  0  0  0  0  0
   10.0260    2.3378    2.1250 C   0  0  0  0  0  0  0  0  0  0  0  0
   10.8044    3.5019    2.2116 C   0  0  0  0  0  0  0  0  0  0  0  0
   11.6079    3.8086    3.4419 C   0  0  0  0  0  0  0  0  0  0  0  0
   10.8449    4.3966    1.1287 C   0  0  0  0  0  0  0  0  0  0  0  0
   10.1389    4.1341   -0.0504 C   0  0  0  0  0  0  0  0  0  0  0  0
   10.2279    5.0228   -1.2527 C   0  0  0  0  0  0  0  0  0  0  0  0
    9.3642    2.9749   -0.1230 C   0  0  0  0  0  0  0  0  0  0  0  0
    4.5524    4.9247    6.7240 H   0  0  0  0  0  0  0  0  0  0  0  0
    4.1294    4.0750    8.2208 H   0  0  0  0  0  0  0  0  0  0  0  0
    3.0185    4.0458    6.8432 H   0  0  0  0  0  0  0  0  0  0  0  0
    5.8292    2.8389    6.8499 H   0  0  0  0  0  0  0  0  0  0  0  0
    4.6561    2.7426    5.5045 H   0  0  0  0  0  0  0  0  0  0  0  0
    3.1660    1.5551    7.2135 H   0  0  0  0  0  0  0  0  0  0  0  0
    2.0804   -0.3916    6.5878 H   0  0  0  0  0  0  0  0  0  0  0  0
    0.4770   -0.8516    4.7764 H   0  0  0  0  0  0  0  0  0  0  0  0
    1.2842   -1.0062    2.4314 H   0  0  0  0  0  0  0  0  0  0  0  0
    3.6451   -0.7794    1.9301 H   0  0  0  0  0  0  0  0  0  0  0  0
    5.9276    0.4573    3.3584 H   0  0  0  0  0  0  0  0  0  0  0  0
    4.1767   -4.3760    1.8081 H   0  0  0  0  0  0  0  0  0  0  0  0
    4.4648   -2.9459   -1.4604 H   0  0  0  0  0  0  0  0  0  0  0  0
    3.6527   -4.0131   -3.5122 H   0  0  0  0  0  0  0  0  0  0  0  0
    2.6181   -8.5953   -3.7309 H   0  0  0  0  0  0  0  0  0  0  0  0
    4.3360   -8.1229   -3.6416 H   0  0  0  0  0  0  0  0  0  0  0  0
    3.9742   -9.0655   -5.8229 H   0  0  0  0  0  0  0  0  0  0  0  0
    4.2894   -7.3645   -5.9754 H   0  0  0  0  0  0  0  0  0  0  0  0
    2.5494   -7.6851   -7.4470 H   0  0  0  0  0  0  0  0  0  0  0  0
    0.9737  -11.0239   -6.2855 H   0  0  0  0  0  0  0  0  0  0  0  0
    2.4642  -10.4890   -5.5993 H   0  0  0  0  0  0  0  0  0  0  0  0
    2.8749  -11.7176   -7.6796 H   0  0  0  0  0  0  0  0  0  0  0  0
    3.3758  -10.0436   -7.9289 H   0  0  0  0  0  0  0  0  0  0  0  0
    2.8554  -11.8093  -10.1446 H   0  0  0  0  0  0  0  0  0  0  0  0
    3.0600  -10.0638  -10.3753 H   0  0  0  0  0  0  0  0  0  0  0  0
    1.6344  -10.9001  -11.0255 H   0  0  0  0  0  0  0  0  0  0  0  0
    0.0535   -9.4065   -9.6663 H   0  0  0  0  0  0  0  0  0  0  0  0
    1.5543   -8.5399   -9.3436 H   0  0  0  0  0  0  0  0  0  0  0  0
   -0.5653   -9.4797   -7.3633 H   0  0  0  0  0  0  0  0  0  0  0  0
   -0.0831   -7.8422   -7.7063 H   0  0  0  0  0  0  0  0  0  0  0  0
    0.5791   -6.3681   -6.2778 H   0  0  0  0  0  0  0  0  0  0  0  0
    2.1774   -5.6797   -6.4070 H   0  0  0  0  0  0  0  0  0  0  0  0
    0.8959   -6.8550   -3.8930 H   0  0  0  0  0  0  0  0  0  0  0  0
    1.3572   -5.1824   -4.2272 H   0  0  0  0  0  0  0  0  0  0  0  0
    2.3880   -9.6126   -0.3391 H   0  0  0  0  0  0  0  0  0  0  0  0
    1.8848   -8.0472    0.3233 H   0  0  0  0  0  0  0  0  0  0  0  0
    3.5860   -8.6341    0.4961 H   0  0  0  0  0  0  0  0  0  0  0  0
    3.9217   -6.5828    0.6903 H   0  0  0  0  0  0  0  0  0  0  0  0
    8.0755   -1.6560   -0.1944 H   0  0  0  0  0  0  0  0  0  0  0  0
    7.9273    0.6794    2.7119 H   0  0  0  0  0  0  0  0  0  0  0  0
   10.0341    1.6219    2.9431 H   0  0  0  0  0  0  0  0  0  0  0  0
   11.6098    2.9675    4.1423 H   0  0  0  0  0  0  0  0  0  0  0  0
   11.1902    4.6817    3.9525 H   0  0  0  0  0  0  0  0  0  0  0  0
   12.6486    4.0153    3.1699 H   0  0  0  0  0  0  0  0  0  0  0  0
   11.4583    5.2956    1.1951 H   0  0  0  0  0  0  0  0  0  0  0  0
   10.7961    5.9330   -1.0469 H   0  0  0  0  0  0  0  0  0  0  0  0
    9.2239    5.3147   -1.5806 H   0  0  0  0  0  0  0  0  0  0  0  0
   10.7229    4.4882   -2.0729 H   0  0  0  0  0  0  0  0  0  0  0  0
    8.8369    2.7507   -1.0464 H   0  0  0  0  0  0  0  0  0  0  0  0
  1  2  1  0  0  0  0
  1 53  1  0  0  0  0
  1 54  1  0  0  0  0
  1 55  1  0  0  0  0
  2  3  1  0  0  0  0
  2 56  1  0  0  0  0
  2 57  1  0  0  0  0
  3  4  1  0  0  0  0
  3 58  1  0  0  0  0
  4  5  2  0  0  0  0
  4  6  2  0  0  0  0
  4  7  1  0  0  0  0
  7  8  1  0  0  0  0
  7 12  2  0  0  0  0
  8  9  2  0  0  0  0
  8 59  1  0  0  0  0
  9 10  1  0  0  0  0
  9 60  1  0  0  0  0
 10 11  2  0  0  0  0
 10 61  1  0  0  0  0
 11 12  1  0  0  0  0
 11 62  1  0  0  0  0
 12 13  1  0  0  0  0
 13 14  1  0  0  0  0
 13 63  1  0  0  0  0
 14 15  1  0  0  0  0
 14 41  2  0  0  0  0
 15 16  2  0  0  0  0
 16 17  1  0  0  0  0
 16 39  1  0  0  0  0
 17 18  1  0  0  0  0
 17 64  1  0  0  0  0
 18 19  1  0  0  0  0
 18 38  2  0  0  0  0
 19 20  2  0  0  0  0
 19 65  1  0  0  0  0
 20 21  1  0  0  0  0
 20 66  1  0  0  0  0
 21 22  1  0  0  0  0
 21 35  2  0  0  0  0
 22 23  1  0  0  0  0
 22 34  1  0  0  0  0
 23 24  1  0  0  0  0
 23 67  1  0  0  0  0
 23 68  1  0  0  0  0
 24 25  1  0  0  0  0
 24 69  1  0  0  0  0
 24 70  1  0  0  0  0
 25 26  1  0  0  0  0
 25 33  1  0  0  0  0
 25 71  1  0  0  0  0
 26 27  1  0  0  0  0
 26 32  1  0  0  0  0
 27 28  1  0  0  0  0
 27 72  1  0  0  0  0
 27 73  1  0  0  0  0
 28 29  1  0  0  0  0
 28 74  1  0  0  0  0
 28 75  1  0  0  0  0
 29 30  1  0  0  0  0
 29 31  1  0  0  0  0
 30 76  1  0  0  0  0
 30 77  1  0  0  0  0
 30 78  1  0  0  0  0
 31 32  1  0  0  0  0
 31 79  1  0  0  0  0
 31 80  1  0  0  0  0
 32 81  1  0  0  0  0
 32 82  1  0  0  0  0
 33 34  1  0  0  0  0
 33 83  1  0  0  0  0
 33 84  1  0  0  0  0
 34 85  1  0  0  0  0
 34 86  1  0  0  0  0
 35 36  1  0  0  0  0
 35 38  1  0  0  0  0
 36 37  1  0  0  0  0
 37 87  1  0  0  0  0
 37 88  1  0  0  0  0
 37 89  1  0  0  0  0
 38 90  1  0  0  0  0
 39 40  2  0  0  0  0
 40 41  1  0  0  0  0
 40 91  1  0  0  0  0
 41 42  1  0  0  0  0
 42 43  1  0  0  0  0
 42 92  1  0  0  0  0
 43 44  2  0  0  0  0
 43 45  1  0  0  0  0
 45 46  1  0  0  0  0
 45 52  2  0  0  0  0
 46 47  2  0  0  0  0
 46 93  1  0  0  0  0
 47 48  1  0  0  0  0
 47 49  1  0  0  0  0
 48 94  1  0  0  0  0
 48 95  1  0  0  0  0
 48 96  1  0  0  0  0
 49 50  2  0  0  0  0
 49 97  1  0  0  0  0
 50 51  1  0  0  0  0
 50 52  1  0  0  0  0
 51 98  1  0  0  0  0
 51 99  1  0  0  0  0
 51100  1  0  0  0  0
 52101  1  0  0  0  0
M  END
$$$$
