CHEMBL411284
 OpenBabel04072215383D

 52 56  0  0  0  0  0  0  0  0999 V2000
    9.5121   -5.2721    0.3993 C   0  0  0  0  0  0  0  0  0  0  0  0
    9.7082   -5.1966   -1.0170 O   0  0  0  0  0  0  0  0  0  0  0  0
    8.6856   -4.6179   -1.7235 C   0  0  0  0  0  0  0  0  0  0  0  0
    7.8980   -3.6081   -1.1505 C   0  0  0  0  0  0  0  0  0  0  0  0
    6.7692   -3.1065   -1.7705 C   0  0  0  0  0  0  0  0  0  0  0  0
    6.0150   -2.2448   -1.0815 N   0  0  0  0  0  0  0  0  0  0  0  0
    4.8740   -1.8548   -1.6510 C   0  0  0  0  0  0  0  0  0  0  0  0
    4.4447   -2.2243   -2.8537 N   0  0  0  0  0  0  0  0  0  0  0  0
    5.2645   -3.0288   -3.5650 C   0  0  0  0  0  0  0  0  0  0  0  0
    4.8824   -3.3776   -4.8677 O   0  0  0  0  0  0  0  0  0  0  0  0
    3.8962   -2.6011   -5.4445 C   0  0  0  0  0  0  0  0  0  0  0  0
    3.9341   -1.2131   -5.3961 C   0  0  0  0  0  0  0  0  0  0  0  0
    2.8323   -0.4661   -5.8118 C   0  0  0  0  0  0  0  0  0  0  0  0
    1.7043   -1.0663   -6.4144 C   0  0  0  0  0  0  0  0  0  0  0  0
    0.5386   -0.3709   -6.8502 C   0  0  0  0  0  0  0  0  0  0  0  0
    0.2948    1.0971   -6.6662 C   0  0  0  0  0  0  0  0  0  0  0  0
   -0.8356    1.4873   -6.3841 O   0  0  0  0  0  0  0  0  0  0  0  0
    1.3534    1.9608   -6.8818 N   0  0  0  0  0  0  0  0  0  0  0  0
    1.2182    3.3758   -6.7159 C   0  0  0  0  0  0  0  0  0  0  0  0
    2.4249    4.2735   -6.7469 C   0  0  0  0  0  0  0  0  0  0  0  0
    1.6851    4.0619   -5.4595 C   0  0  0  0  0  0  0  0  0  0  0  0
   -0.5352   -1.0737   -7.4288 C   0  0  0  0  0  0  0  0  0  0  0  0
   -0.4734   -2.4547   -7.5905 C   0  0  0  0  0  0  0  0  0  0  0  0
    0.6510   -3.1503   -7.1578 C   0  0  0  0  0  0  0  0  0  0  0  0
    1.7344   -2.4864   -6.5635 C   0  0  0  0  0  0  0  0  0  0  0  0
    2.8251   -3.2338   -6.0700 C   0  0  0  0  0  0  0  0  0  0  0  0
    6.4573   -3.5483   -3.0575 C   0  0  0  0  0  0  0  0  0  0  0  0
    7.3225   -4.4584   -3.7080 C   0  0  0  0  0  0  0  0  0  0  0  0
    8.4212   -5.0183   -3.0393 C   0  0  0  0  0  0  0  0  0  0  0  0
    9.0903   -5.9272   -3.8113 O   0  0  0  0  0  0  0  0  0  0  0  0
    9.9863   -6.8329   -3.1849 C   0  0  0  0  0  0  0  0  0  0  0  0
    9.9676   -6.1991    0.7588 H   0  0  0  0  0  0  0  0  0  0  0  0
    8.4555   -5.3046    0.6940 H   0  0  0  0  0  0  0  0  0  0  0  0
   10.0143   -4.4286    0.8835 H   0  0  0  0  0  0  0  0  0  0  0  0
    8.1356   -3.2116   -0.1666 H   0  0  0  0  0  0  0  0  0  0  0  0
    4.2434   -1.1754   -1.0893 H   0  0  0  0  0  0  0  0  0  0  0  0
    4.7782   -0.6984   -4.9442 H   0  0  0  0  0  0  0  0  0  0  0  0
    2.8722    0.5944   -5.5971 H   0  0  0  0  0  0  0  0  0  0  0  0
    2.2030    1.6047   -7.3008 H   0  0  0  0  0  0  0  0  0  0  0  0
    0.3063    3.7671   -7.1635 H   0  0  0  0  0  0  0  0  0  0  0  0
    2.3214    5.2337   -7.2396 H   0  0  0  0  0  0  0  0  0  0  0  0
    3.4098    3.8326   -6.8358 H   0  0  0  0  0  0  0  0  0  0  0  0
    1.0814    4.8789   -5.0788 H   0  0  0  0  0  0  0  0  0  0  0  0
    2.1611    3.4713   -4.6860 H   0  0  0  0  0  0  0  0  0  0  0  0
   -1.4325   -0.5401   -7.7388 H   0  0  0  0  0  0  0  0  0  0  0  0
   -1.3140   -2.9844   -8.0307 H   0  0  0  0  0  0  0  0  0  0  0  0
    0.6625   -4.2337   -7.2729 H   0  0  0  0  0  0  0  0  0  0  0  0
    2.8182   -4.3198   -6.1336 H   0  0  0  0  0  0  0  0  0  0  0  0
    7.1106   -4.7767   -4.7274 H   0  0  0  0  0  0  0  0  0  0  0  0
   10.1785   -7.6427   -3.8970 H   0  0  0  0  0  0  0  0  0  0  0  0
    9.5532   -7.2939   -2.2921 H   0  0  0  0  0  0  0  0  0  0  0  0
   10.9435   -6.3476   -2.9723 H   0  0  0  0  0  0  0  0  0  0  0  0
  1  2  1  0  0  0  0
  1 32  1  0  0  0  0
  1 33  1  0  0  0  0
  1 34  1  0  0  0  0
  2  3  1  0  0  0  0
  3  4  1  0  0  0  0
  3 29  2  0  0  0  0
  4  5  2  0  0  0  0
  4 35  1  0  0  0  0
  5  6  1  0  0  0  0
  5 27  1  0  0  0  0
  6  7  2  0  0  0  0
  7  8  1  0  0  0  0
  7 36  1  0  0  0  0
  8  9  2  0  0  0  0
  9 10  1  0  0  0  0
  9 27  1  0  0  0  0
 10 11  1  0  0  0  0
 11 12  1  0  0  0  0
 11 26  2  0  0  0  0
 12 13  2  0  0  0  0
 12 37  1  0  0  0  0
 13 14  1  0  0  0  0
 13 38  1  0  0  0  0
 14 15  1  0  0  0  0
 14 25  2  0  0  0  0
 15 16  1  0  0  0  0
 15 22  2  0  0  0  0
 16 17  2  0  0  0  0
 16 18  1  0  0  0  0
 18 19  1  0  0  0  0
 18 39  1  0  0  0  0
 19 20  1  0  0  0  0
 19 21  1  0  0  0  0
 19 40  1  0  0  0  0
 20 21  1  0  0  0  0
 20 41  1  0  0  0  0
 20 42  1  0  0  0  0
 21 43  1  0  0  0  0
 21 44  1  0  0  0  0
 22 23  1  0  0  0  0
 22 45  1  0  0  0  0
 23 24  2  0  0  0  0
 23 46  1  0  0  0  0
 24 25  1  0  0  0  0
 24 47  1  0  0  0  0
 25 26  1  0  0  0  0
 26 48  1  0  0  0  0
 27 28  2  0  0  0  0
 28 29  1  0  0  0  0
 28 49  1  0  0  0  0
 29 30  1  0  0  0  0
 30 31  1  0  0  0  0
 31 50  1  0  0  0  0
 31 51  1  0  0  0  0
 31 52  1  0  0  0  0
M  END
$$$$
