CHEMBL245947
 OpenBabel04072215363D

 62 65  0  0  0  0  0  0  0  0999 V2000
   -1.6030    5.5666   -5.7775 C   0  0  0  0  0  0  0  0  0  0  0  0
   -1.2449    6.8626   -6.3171 N   0  0  0  0  0  0  0  0  0  0  0  0
   -0.1034    7.4721   -5.8068 C   0  0  0  0  0  0  0  0  0  0  0  0
    1.0634    6.7646   -5.5148 C   0  0  0  0  0  0  0  0  0  0  0  0
    2.1623    7.4092   -4.9405 C   0  0  0  0  0  0  0  0  0  0  0  0
    3.3861    6.6783   -4.5171 C   0  0  0  0  0  0  0  0  0  0  0  0
    4.6441    7.3074   -4.6525 C   0  0  0  0  0  0  0  0  0  0  0  0
    5.8188    6.7033   -4.2109 C   0  0  0  0  0  0  0  0  0  0  0  0
    5.7215    5.4763   -3.5987 C   0  0  0  0  0  0  0  0  0  0  0  0
    4.5562    4.8314   -3.4294 N   0  0  0  0  0  0  0  0  0  0  0  0
    3.4242    5.3912   -3.9499 C   0  0  0  0  0  0  0  0  0  0  0  0
    2.2791    4.5822   -3.9354 O   0  0  0  0  0  0  0  0  0  0  0  0
    2.5034    3.2129   -4.0652 C   0  0  0  0  0  0  0  0  0  0  0  0
    3.4795    2.7259   -4.9533 C   0  0  0  0  0  0  0  0  0  0  0  0
    3.8677    1.3878   -4.9494 C   0  0  0  0  0  0  0  0  0  0  0  0
    4.9171    0.8831   -5.7537 N   0  0  0  0  0  0  0  0  0  0  0  0
    5.5267    1.5463   -6.8078 C   0  0  0  0  0  0  0  0  0  0  0  0
    5.2375    2.6556   -7.2432 O   0  0  0  0  0  0  0  0  0  0  0  0
    6.5836    0.7854   -7.5278 C   0  0  0  0  0  0  0  0  0  0  0  0
    6.6785    0.9679   -8.9128 C   0  0  0  0  0  0  0  0  0  0  0  0
    7.6334    0.2722   -9.6475 C   0  0  0  0  0  0  0  0  0  0  0  0
    8.5214   -0.5837   -8.9972 C   0  0  0  0  0  0  0  0  0  0  0  0
    8.4822   -0.7399   -7.6015 C   0  0  0  0  0  0  0  0  0  0  0  0
    9.5353   -1.5992   -6.9221 C   0  0  0  0  0  0  0  0  0  0  0  0
   10.4037   -0.7660   -5.9756 C   0  0  0  0  0  0  0  0  0  0  0  0
    8.9232   -2.7970   -6.1950 C   0  0  0  0  0  0  0  0  0  0  0  0
    7.4916   -0.0566   -6.8708 C   0  0  0  0  0  0  0  0  0  0  0  0
    3.2092    0.5102   -4.0867 C   0  0  0  0  0  0  0  0  0  0  0  0
    2.1373    0.9576   -3.3020 C   0  0  0  0  0  0  0  0  0  0  0  0
    1.7591    2.3113   -3.2932 C   0  0  0  0  0  0  0  0  0  0  0  0
    0.5635    2.7405   -2.4948 C   0  0  0  0  0  0  0  0  0  0  0  0
    2.0567    8.7958   -4.7794 C   0  0  0  0  0  0  0  0  0  0  0  0
    0.8914    9.4412   -5.1582 C   0  0  0  0  0  0  0  0  0  0  0  0
   -0.1911    8.8015   -5.6405 N   0  0  0  0  0  0  0  0  0  0  0  0
   -2.5848    5.2737   -6.1592 H   0  0  0  0  0  0  0  0  0  0  0  0
   -1.6554    5.5812   -4.6834 H   0  0  0  0  0  0  0  0  0  0  0  0
   -0.8934    4.7946   -6.0950 H   0  0  0  0  0  0  0  0  0  0  0  0
   -1.9824    7.5650   -6.2672 H   0  0  0  0  0  0  0  0  0  0  0  0
    1.1050    5.7062   -5.7437 H   0  0  0  0  0  0  0  0  0  0  0  0
    4.7286    8.2802   -5.1325 H   0  0  0  0  0  0  0  0  0  0  0  0
    6.7814    7.1835   -4.3418 H   0  0  0  0  0  0  0  0  0  0  0  0
    6.5992    4.9488   -3.2389 H   0  0  0  0  0  0  0  0  0  0  0  0
    3.9883    3.4394   -5.5914 H   0  0  0  0  0  0  0  0  0  0  0  0
    5.1692   -0.0839   -5.6014 H   0  0  0  0  0  0  0  0  0  0  0  0
    6.0039    1.6556   -9.4201 H   0  0  0  0  0  0  0  0  0  0  0  0
    7.6926    0.4081  -10.7243 H   0  0  0  0  0  0  0  0  0  0  0  0
    9.2641   -1.1129   -9.5913 H   0  0  0  0  0  0  0  0  0  0  0  0
   10.2047   -2.0049   -7.6938 H   0  0  0  0  0  0  0  0  0  0  0  0
    9.8175   -0.3241   -5.1628 H   0  0  0  0  0  0  0  0  0  0  0  0
   10.8933    0.0524   -6.5157 H   0  0  0  0  0  0  0  0  0  0  0  0
   11.1867   -1.3840   -5.5234 H   0  0  0  0  0  0  0  0  0  0  0  0
    8.2717   -2.4836   -5.3705 H   0  0  0  0  0  0  0  0  0  0  0  0
    9.7094   -3.4336   -5.7771 H   0  0  0  0  0  0  0  0  0  0  0  0
    8.3257   -3.4071   -6.8803 H   0  0  0  0  0  0  0  0  0  0  0  0
    7.4625   -0.1472   -5.7882 H   0  0  0  0  0  0  0  0  0  0  0  0
    3.4948   -0.5364   -4.0296 H   0  0  0  0  0  0  0  0  0  0  0  0
    1.6058    0.2378   -2.6827 H   0  0  0  0  0  0  0  0  0  0  0  0
    0.1827    1.9188   -1.8766 H   0  0  0  0  0  0  0  0  0  0  0  0
   -0.2449    3.0391   -3.1713 H   0  0  0  0  0  0  0  0  0  0  0  0
    0.8086    3.5703   -1.8271 H   0  0  0  0  0  0  0  0  0  0  0  0
    2.8646    9.3919   -4.3686 H   0  0  0  0  0  0  0  0  0  0  0  0
    0.7958   10.5201   -5.0772 H   0  0  0  0  0  0  0  0  0  0  0  0
  1  2  1  0  0  0  0
  1 35  1  0  0  0  0
  1 36  1  0  0  0  0
  1 37  1  0  0  0  0
  2  3  1  0  0  0  0
  2 38  1  0  0  0  0
  3  4  1  0  0  0  0
  3 34  2  0  0  0  0
  4  5  2  0  0  0  0
  4 39  1  0  0  0  0
  5  6  1  0  0  0  0
  5 32  1  0  0  0  0
  6  7  1  0  0  0  0
  6 11  2  0  0  0  0
  7  8  2  0  0  0  0
  7 40  1  0  0  0  0
  8  9  1  0  0  0  0
  8 41  1  0  0  0  0
  9 10  2  0  0  0  0
  9 42  1  0  0  0  0
 10 11  1  0  0  0  0
 11 12  1  0  0  0  0
 12 13  1  0  0  0  0
 13 14  1  0  0  0  0
 13 30  2  0  0  0  0
 14 15  2  0  0  0  0
 14 43  1  0  0  0  0
 15 16  1  0  0  0  0
 15 28  1  0  0  0  0
 16 17  1  0  0  0  0
 16 44  1  0  0  0  0
 17 18  2  0  0  0  0
 17 19  1  0  0  0  0
 19 20  1  0  0  0  0
 19 27  2  0  0  0  0
 20 21  2  0  0  0  0
 20 45  1  0  0  0  0
 21 22  1  0  0  0  0
 21 46  1  0  0  0  0
 22 23  2  0  0  0  0
 22 47  1  0  0  0  0
 23 24  1  0  0  0  0
 23 27  1  0  0  0  0
 24 25  1  0  0  0  0
 24 26  1  0  0  0  0
 24 48  1  0  0  0  0
 25 49  1  0  0  0  0
 25 50  1  0  0  0  0
 25 51  1  0  0  0  0
 26 52  1  0  0  0  0
 26 53  1  0  0  0  0
 26 54  1  0  0  0  0
 27 55  1  0  0  0  0
 28 29  2  0  0  0  0
 28 56  1  0  0  0  0
 29 30  1  0  0  0  0
 29 57  1  0  0  0  0
 30 31  1  0  0  0  0
 31 58  1  0  0  0  0
 31 59  1  0  0  0  0
 31 60  1  0  0  0  0
 32 33  2  0  0  0  0
 32 61  1  0  0  0  0
 33 34  1  0  0  0  0
 33 62  1  0  0  0  0
M  END
$$$$
