CHEMBL3938078
 OpenBabel04072215373D

 51 54  0  0  0  0  0  0  0  0999 V2000
    1.1640    0.1732    0.8654 O   0  0  0  0  0  0  0  0  0  0  0  0
    2.2353    0.0961    0.2754 C   0  0  0  0  0  0  0  0  0  0  0  0
    2.7535    1.1138   -0.5205 N   0  0  0  0  0  0  0  0  0  0  0  0
    2.0849    2.3413   -0.7903 C   0  0  0  0  0  0  0  0  0  0  0  0
    1.0137    2.8039   -0.0152 C   0  0  0  0  0  0  0  0  0  0  0  0
    0.2691    3.9144   -0.4095 C   0  0  0  0  0  0  0  0  0  0  0  0
    0.6055    4.5914   -1.5711 C   0  0  0  0  0  0  0  0  0  0  0  0
   -0.2144    5.5681   -1.9861 F   0  0  0  0  0  0  0  0  0  0  0  0
    1.7413    4.2303   -2.3020 C   0  0  0  0  0  0  0  0  0  0  0  0
    2.1322    4.8490   -3.4749 O   0  0  0  0  0  0  0  0  0  0  0  0
    1.9939    6.2334   -3.5708 C   0  0  0  0  0  0  0  0  0  0  0  0
    1.8943    6.7676   -4.8420 C   0  0  0  0  0  0  0  0  0  0  0  0
    1.7806    8.1413   -4.9155 C   0  0  0  0  0  0  0  0  0  0  0  0
    1.7568    8.7611   -6.1811 N   0  0  0  0  0  0  0  0  0  0  0  0
    1.7558   10.1326   -6.3599 C   0  0  0  0  0  0  0  0  0  0  0  0
    1.7245   10.9896   -5.4895 O   0  0  0  0  0  0  0  0  0  0  0  0
    1.8356   10.6297   -7.7699 C   0  0  0  0  0  0  0  0  0  0  0  0
    1.7194    9.8176   -9.0313 C   0  0  0  0  0  0  0  0  0  0  0  0
    3.0646   10.3181   -8.5937 C   0  0  0  0  0  0  0  0  0  0  0  0
    1.7196    8.8954   -3.8115 N   0  0  0  0  0  0  0  0  0  0  0  0
    1.8361    8.2818   -2.6314 C   0  0  0  0  0  0  0  0  0  0  0  0
    2.0246    6.9748   -2.4513 N   0  0  0  0  0  0  0  0  0  0  0  0
    2.4766    3.0956   -1.9096 C   0  0  0  0  0  0  0  0  0  0  0  0
    3.0450   -1.0312    0.2967 N   0  0  0  0  0  0  0  0  0  0  0  0
    2.7300   -2.2656    0.9252 C   0  0  0  0  0  0  0  0  0  0  0  0
    1.5097   -2.5305    1.5476 C   0  0  0  0  0  0  0  0  0  0  0  0
    1.2656   -3.7588    2.1663 C   0  0  0  0  0  0  0  0  0  0  0  0
    2.2330   -4.7630    2.1643 C   0  0  0  0  0  0  0  0  0  0  0  0
    1.8153   -6.2277    2.9716 Cl  0  0  0  0  0  0  0  0  0  0  0  0
    3.4586   -4.5456    1.5297 C   0  0  0  0  0  0  0  0  0  0  0  0
    4.5564   -5.5735    1.4408 C   0  0  0  0  0  0  0  0  0  0  0  0
    4.3585   -6.7418    2.1024 F   0  0  0  0  0  0  0  0  0  0  0  0
    4.8084   -5.9247    0.1464 F   0  0  0  0  0  0  0  0  0  0  0  0
    5.7394   -5.0851    1.9158 F   0  0  0  0  0  0  0  0  0  0  0  0
    3.6908   -3.2852    0.9137 C   0  0  0  0  0  0  0  0  0  0  0  0
    3.5123    0.8699   -1.1384 H   0  0  0  0  0  0  0  0  0  0  0  0
    0.7079    2.3071    0.9001 H   0  0  0  0  0  0  0  0  0  0  0  0
   -0.5925    4.2301    0.1704 H   0  0  0  0  0  0  0  0  0  0  0  0
    1.9179    6.1316   -5.7155 H   0  0  0  0  0  0  0  0  0  0  0  0
    1.8147    8.1708   -6.9930 H   0  0  0  0  0  0  0  0  0  0  0  0
    1.4636   11.6498   -7.8458 H   0  0  0  0  0  0  0  0  0  0  0  0
    1.2627   10.3078   -9.8899 H   0  0  0  0  0  0  0  0  0  0  0  0
    1.5221    8.7585   -8.9944 H   0  0  0  0  0  0  0  0  0  0  0  0
    3.5174   11.1431   -9.1380 H   0  0  0  0  0  0  0  0  0  0  0  0
    3.7814    9.5992   -8.2154 H   0  0  0  0  0  0  0  0  0  0  0  0
    1.7696    8.9065   -1.7480 H   0  0  0  0  0  0  0  0  0  0  0  0
    3.3258    2.7894   -2.5139 H   0  0  0  0  0  0  0  0  0  0  0  0
    3.9723   -0.9382   -0.0890 H   0  0  0  0  0  0  0  0  0  0  0  0
    0.7037   -1.8050    1.5815 H   0  0  0  0  0  0  0  0  0  0  0  0
    0.3037   -3.9163    2.6514 H   0  0  0  0  0  0  0  0  0  0  0  0
    4.6483   -3.1213    0.4192 H   0  0  0  0  0  0  0  0  0  0  0  0
  1  2  2  0  0  0  0
  2  3  1  0  0  0  0
  2 24  1  0  0  0  0
  3  4  1  0  0  0  0
  3 36  1  0  0  0  0
  4  5  1  0  0  0  0
  4 23  2  0  0  0  0
  5  6  2  0  0  0  0
  5 37  1  0  0  0  0
  6  7  1  0  0  0  0
  6 38  1  0  0  0  0
  7  8  1  0  0  0  0
  7  9  2  0  0  0  0
  9 10  1  0  0  0  0
  9 23  1  0  0  0  0
 10 11  1  0  0  0  0
 11 12  1  0  0  0  0
 11 22  2  0  0  0  0
 12 13  2  0  0  0  0
 12 39  1  0  0  0  0
 13 14  1  0  0  0  0
 13 20  1  0  0  0  0
 14 15  1  0  0  0  0
 14 40  1  0  0  0  0
 15 16  2  0  0  0  0
 15 17  1  0  0  0  0
 17 18  1  0  0  0  0
 17 19  1  0  0  0  0
 17 41  1  0  0  0  0
 18 19  1  0  0  0  0
 18 42  1  0  0  0  0
 18 43  1  0  0  0  0
 19 44  1  0  0  0  0
 19 45  1  0  0  0  0
 20 21  2  0  0  0  0
 21 22  1  0  0  0  0
 21 46  1  0  0  0  0
 23 47  1  0  0  0  0
 24 25  1  0  0  0  0
 24 48  1  0  0  0  0
 25 26  1  0  0  0  0
 25 35  2  0  0  0  0
 26 27  2  0  0  0  0
 26 49  1  0  0  0  0
 27 28  1  0  0  0  0
 27 50  1  0  0  0  0
 28 29  1  0  0  0  0
 28 30  2  0  0  0  0
 30 31  1  0  0  0  0
 30 35  1  0  0  0  0
 31 32  1  0  0  0  0
 31 33  1  0  0  0  0
 31 34  1  0  0  0  0
 35 51  1  0  0  0  0
M  END
$$$$
