CHEMBL2047242
 OpenBabel04072215363D

 35 38  0  0  0  0  0  0  0  0999 V2000
    1.1484   -0.0066   -0.1705 N   0  0  0  0  0  0  0  0  0  0  0  0
    2.5250   -0.0294   -0.1050 C   0  0  0  0  0  0  0  0  0  0  0  0
    3.1577    1.1411   -0.0222 N   0  0  0  0  0  0  0  0  0  0  0  0
    4.4921    1.0391    0.0308 C   0  0  0  0  0  0  0  0  0  0  0  0
    5.2148   -0.1507    0.0293 C   0  0  0  0  0  0  0  0  0  0  0  0
    4.4666   -1.3002   -0.0426 C   0  0  0  0  0  0  0  0  0  0  0  0
    5.0842   -2.5705   -0.0539 N   0  0  0  0  0  0  0  0  0  0  0  0
    4.5549   -3.7262   -0.6684 C   0  0  0  0  0  0  0  0  0  0  0  0
    4.8692   -4.9990   -0.1754 C   0  0  0  0  0  0  0  0  0  0  0  0
    4.3993   -6.1508   -0.8164 C   0  0  0  0  0  0  0  0  0  0  0  0
    3.6290   -6.0422   -1.9746 C   0  0  0  0  0  0  0  0  0  0  0  0
    3.3366   -4.7837   -2.4887 C   0  0  0  0  0  0  0  0  0  0  0  0
    2.4128   -4.6401   -3.9336 Cl  0  0  0  0  0  0  0  0  0  0  0  0
    3.7992   -3.6366   -1.8474 C   0  0  0  0  0  0  0  0  0  0  0  0
    3.1153   -1.2325   -0.0961 N   0  0  0  0  0  0  0  0  0  0  0  0
    6.6321    0.1508    0.0369 C   0  0  0  0  0  0  0  0  0  0  0  0
    7.7497   -0.6663   -0.0041 C   0  0  0  0  0  0  0  0  0  0  0  0
    9.0162   -0.0689   -0.0037 C   0  0  0  0  0  0  0  0  0  0  0  0
    9.1574    1.3283    0.0282 C   0  0  0  0  0  0  0  0  0  0  0  0
    8.0358    2.1566    0.0534 C   0  0  0  0  0  0  0  0  0  0  0  0
    6.7876    1.5565    0.0563 C   0  0  0  0  0  0  0  0  0  0  0  0
    5.4336    2.2335    0.0513 C   0  0  0  0  0  0  0  0  0  0  0  0
    0.7924    0.8463    0.2333 H   0  0  0  0  0  0  0  0  0  0  0  0
    0.7745   -0.8826    0.1728 H   0  0  0  0  0  0  0  0  0  0  0  0
    5.5272   -2.7434    0.8408 H   0  0  0  0  0  0  0  0  0  0  0  0
    5.4754   -5.1106    0.7200 H   0  0  0  0  0  0  0  0  0  0  0  0
    4.6362   -7.1328   -0.4165 H   0  0  0  0  0  0  0  0  0  0  0  0
    3.2689   -6.9364   -2.4754 H   0  0  0  0  0  0  0  0  0  0  0  0
    3.5736   -2.6637   -2.2765 H   0  0  0  0  0  0  0  0  0  0  0  0
    7.6667   -1.7465   -0.0547 H   0  0  0  0  0  0  0  0  0  0  0  0
    9.9059   -0.6943   -0.0385 H   0  0  0  0  0  0  0  0  0  0  0  0
   10.1526    1.7679    0.0225 H   0  0  0  0  0  0  0  0  0  0  0  0
    8.1430    3.2365    0.0617 H   0  0  0  0  0  0  0  0  0  0  0  0
    5.3004    2.8359   -0.8520 H   0  0  0  0  0  0  0  0  0  0  0  0
    5.2833    2.8255    0.9579 H   0  0  0  0  0  0  0  0  0  0  0  0
  1  2  1  0  0  0  0
  1 23  1  0  0  0  0
  1 24  1  0  0  0  0
  2  3  1  0  0  0  0
  2 15  2  0  0  0  0
  3  4  2  0  0  0  0
  4  5  1  0  0  0  0
  4 22  1  0  0  0  0
  5  6  2  0  0  0  0
  5 16  1  0  0  0  0
  6  7  1  0  0  0  0
  6 15  1  0  0  0  0
  7  8  1  0  0  0  0
  7 25  1  0  0  0  0
  8  9  1  0  0  0  0
  8 14  2  0  0  0  0
  9 10  2  0  0  0  0
  9 26  1  0  0  0  0
 10 11  1  0  0  0  0
 10 27  1  0  0  0  0
 11 12  2  0  0  0  0
 11 28  1  0  0  0  0
 12 13  1  0  0  0  0
 12 14  1  0  0  0  0
 14 29  1  0  0  0  0
 16 17  1  0  0  0  0
 16 21  2  0  0  0  0
 17 18  2  0  0  0  0
 17 30  1  0  0  0  0
 18 19  1  0  0  0  0
 18 31  1  0  0  0  0
 19 20  2  0  0  0  0
 19 32  1  0  0  0  0
 20 21  1  0  0  0  0
 20 33  1  0  0  0  0
 21 22  1  0  0  0  0
 22 34  1  0  0  0  0
 22 35  1  0  0  0  0
M  END
$$$$
