CHEMBL403439
 OpenBabel04072215373D

 45 48  0  0  0  0  0  0  0  0999 V2000
    1.3715   -0.2135   -1.8852 N   0  0  0  0  0  0  0  0  0  0  0  0
    2.6781   -0.2640   -1.5791 C   0  0  0  0  0  0  0  0  0  0  0  0
    3.4922    0.7254   -1.9443 N   0  0  0  0  0  0  0  0  0  0  0  0
    4.6754    0.3635   -1.4275 N   0  0  0  0  0  0  0  0  0  0  0  0
    4.6474   -0.8178   -0.7530 C   0  0  0  0  0  0  0  0  0  0  0  0
    5.7038   -1.3651   -0.1247 N   0  0  0  0  0  0  0  0  0  0  0  0
    5.4081   -2.5366    0.4641 C   0  0  0  0  0  0  0  0  0  0  0  0
    4.1653   -3.1521    0.4350 C   0  0  0  0  0  0  0  0  0  0  0  0
    3.0684   -2.5476   -0.2260 C   0  0  0  0  0  0  0  0  0  0  0  0
    1.7314   -3.1729   -0.1927 C   0  0  0  0  0  0  0  0  0  0  0  0
    1.2945   -3.8223    0.9696 C   0  0  0  0  0  0  0  0  0  0  0  0
    0.0253   -4.3958    1.0605 C   0  0  0  0  0  0  0  0  0  0  0  0
   -0.8843   -4.2894    0.0116 C   0  0  0  0  0  0  0  0  0  0  0  0
   -2.2074   -4.7784    0.1104 N   0  0  0  0  0  0  0  0  0  0  0  0
   -2.8543   -5.0189    1.3092 C   0  0  0  0  0  0  0  0  0  0  0  0
   -2.4260   -4.6948    2.4142 O   0  0  0  0  0  0  0  0  0  0  0  0
   -4.0461   -5.7025    1.1320 N   0  0  0  0  0  0  0  0  0  0  0  0
   -4.8928   -5.9816    2.2284 C   0  0  0  0  0  0  0  0  0  0  0  0
   -5.1482   -5.0201    3.2133 C   0  0  0  0  0  0  0  0  0  0  0  0
   -5.9884   -5.3147    4.2853 C   0  0  0  0  0  0  0  0  0  0  0  0
   -6.5549   -6.5798    4.3879 C   0  0  0  0  0  0  0  0  0  0  0  0
   -7.3553   -6.8332    5.4304 F   0  0  0  0  0  0  0  0  0  0  0  0
   -6.2989   -7.5626    3.4348 C   0  0  0  0  0  0  0  0  0  0  0  0
   -6.8447   -8.9497    3.5911 C   0  0  0  0  0  0  0  0  0  0  0  0
   -7.6875   -9.1307    4.6417 F   0  0  0  0  0  0  0  0  0  0  0  0
   -7.5380   -9.3506    2.4874 F   0  0  0  0  0  0  0  0  0  0  0  0
   -5.8520   -9.8719    3.7493 F   0  0  0  0  0  0  0  0  0  0  0  0
   -5.4806   -7.2445    2.3321 C   0  0  0  0  0  0  0  0  0  0  0  0
   -0.4578   -3.6963   -1.1765 C   0  0  0  0  0  0  0  0  0  0  0  0
    0.8429   -3.1745   -1.2853 C   0  0  0  0  0  0  0  0  0  0  0  0
    3.3433   -1.2995   -0.8472 C   0  0  0  0  0  0  0  0  0  0  0  0
    1.0537    0.6790   -2.2489 H   0  0  0  0  0  0  0  0  0  0  0  0
    0.7028   -0.6328   -1.2488 H   0  0  0  0  0  0  0  0  0  0  0  0
    5.4774    0.9669   -1.5525 H   0  0  0  0  0  0  0  0  0  0  0  0
    6.2349   -3.0017    0.9968 H   0  0  0  0  0  0  0  0  0  0  0  0
    4.0544   -4.1078    0.9405 H   0  0  0  0  0  0  0  0  0  0  0  0
    1.9334   -3.8884    1.8490 H   0  0  0  0  0  0  0  0  0  0  0  0
   -0.2229   -4.9128    1.9827 H   0  0  0  0  0  0  0  0  0  0  0  0
   -2.8042   -4.6699   -0.6973 H   0  0  0  0  0  0  0  0  0  0  0  0
   -4.0297   -6.3727    0.3757 H   0  0  0  0  0  0  0  0  0  0  0  0
   -4.7001   -4.0302    3.1561 H   0  0  0  0  0  0  0  0  0  0  0  0
   -6.1940   -4.5663    5.0454 H   0  0  0  0  0  0  0  0  0  0  0  0
   -5.2607   -8.0149    1.5949 H   0  0  0  0  0  0  0  0  0  0  0  0
   -1.1249   -3.6065   -2.0294 H   0  0  0  0  0  0  0  0  0  0  0  0
    1.1495   -2.7478   -2.2372 H   0  0  0  0  0  0  0  0  0  0  0  0
  1  2  1  0  0  0  0
  1 32  1  0  0  0  0
  1 33  1  0  0  0  0
  2  3  2  0  0  0  0
  2 31  1  0  0  0  0
  3  4  1  0  0  0  0
  4  5  1  0  0  0  0
  4 34  1  0  0  0  0
  5  6  1  0  0  0  0
  5 31  2  0  0  0  0
  6  7  2  0  0  0  0
  7  8  1  0  0  0  0
  7 35  1  0  0  0  0
  8  9  2  0  0  0  0
  8 36  1  0  0  0  0
  9 10  1  0  0  0  0
  9 31  1  0  0  0  0
 10 11  1  0  0  0  0
 10 30  2  0  0  0  0
 11 12  2  0  0  0  0
 11 37  1  0  0  0  0
 12 13  1  0  0  0  0
 12 38  1  0  0  0  0
 13 14  1  0  0  0  0
 13 29  2  0  0  0  0
 14 15  1  0  0  0  0
 14 39  1  0  0  0  0
 15 16  2  0  0  0  0
 15 17  1  0  0  0  0
 17 18  1  0  0  0  0
 17 40  1  0  0  0  0
 18 19  1  0  0  0  0
 18 28  2  0  0  0  0
 19 20  2  0  0  0  0
 19 41  1  0  0  0  0
 20 21  1  0  0  0  0
 20 42  1  0  0  0  0
 21 22  1  0  0  0  0
 21 23  2  0  0  0  0
 23 24  1  0  0  0  0
 23 28  1  0  0  0  0
 24 25  1  0  0  0  0
 24 26  1  0  0  0  0
 24 27  1  0  0  0  0
 28 43  1  0  0  0  0
 29 30  1  0  0  0  0
 29 44  1  0  0  0  0
 30 45  1  0  0  0  0
M  END
$$$$
