CHEMBL272938
 OpenBabel04072215363D

 45 48  0  0  0  0  0  0  0  0999 V2000
    2.3545   -0.4354    1.5507 C   0  0  0  0  0  0  0  0  0  0  0  0
    0.8588   -0.3112    1.5215 C   0  0  0  0  0  0  0  0  0  0  0  0
    0.2531    0.8732    1.9532 C   0  0  0  0  0  0  0  0  0  0  0  0
   -1.1299    0.9928    1.9392 C   0  0  0  0  0  0  0  0  0  0  0  0
   -1.9195   -0.0662    1.4929 C   0  0  0  0  0  0  0  0  0  0  0  0
   -1.3407   -1.2571    1.0406 C   0  0  0  0  0  0  0  0  0  0  0  0
   -2.1099   -2.3638    0.5803 N   0  0  0  0  0  0  0  0  0  0  0  0
   -3.4720   -2.3594    0.3648 C   0  0  0  0  0  0  0  0  0  0  0  0
   -4.1937   -1.3691    0.4431 O   0  0  0  0  0  0  0  0  0  0  0  0
   -3.9668   -3.6303    0.0728 N   0  0  0  0  0  0  0  0  0  0  0  0
   -5.3535   -3.8224   -0.1572 C   0  0  0  0  0  0  0  0  0  0  0  0
   -6.1032   -2.9044   -0.8918 C   0  0  0  0  0  0  0  0  0  0  0  0
   -7.4984   -2.9865   -0.9218 C   0  0  0  0  0  0  0  0  0  0  0  0
   -8.1888   -4.0063   -0.2444 C   0  0  0  0  0  0  0  0  0  0  0  0
   -9.6635   -3.9949   -0.1735 C   0  0  0  0  0  0  0  0  0  0  0  0
  -10.4555   -3.6023   -1.2657 C   0  0  0  0  0  0  0  0  0  0  0  0
  -11.8081   -3.5147   -1.2990 N   0  0  0  0  0  0  0  0  0  0  0  0
  -12.4995   -3.8417   -0.1929 C   0  0  0  0  0  0  0  0  0  0  0  0
  -11.8042   -4.2461    0.9332 C   0  0  0  0  0  0  0  0  0  0  0  0
  -12.2581   -4.6313    2.1607 N   0  0  0  0  0  0  0  0  0  0  0  0
  -11.2927   -4.9229    3.0359 N   0  0  0  0  0  0  0  0  0  0  0  0
  -10.1722   -4.7098    2.3528 C   0  0  0  0  0  0  0  0  0  0  0  0
   -8.9786   -4.8463    2.9520 N   0  0  0  0  0  0  0  0  0  0  0  0
  -10.4086   -4.3179    0.9928 C   0  0  0  0  0  0  0  0  0  0  0  0
   -7.4030   -5.0068    0.3538 C   0  0  0  0  0  0  0  0  0  0  0  0
   -6.0025   -4.9138    0.4139 C   0  0  0  0  0  0  0  0  0  0  0  0
    0.0546   -1.3724    1.0645 C   0  0  0  0  0  0  0  0  0  0  0  0
    2.8216    0.4726    1.9494 H   0  0  0  0  0  0  0  0  0  0  0  0
    2.7429   -0.5926    0.5401 H   0  0  0  0  0  0  0  0  0  0  0  0
    2.6529   -1.2698    2.1919 H   0  0  0  0  0  0  0  0  0  0  0  0
    0.8518    1.7093    2.3065 H   0  0  0  0  0  0  0  0  0  0  0  0
   -1.6068    1.9103    2.2748 H   0  0  0  0  0  0  0  0  0  0  0  0
   -2.9914    0.0815    1.5202 H   0  0  0  0  0  0  0  0  0  0  0  0
   -1.5926   -3.1700    0.2589 H   0  0  0  0  0  0  0  0  0  0  0  0
   -3.4783   -4.3867    0.5296 H   0  0  0  0  0  0  0  0  0  0  0  0
   -5.6181   -2.0806   -1.4104 H   0  0  0  0  0  0  0  0  0  0  0  0
   -8.0341   -2.1997   -1.4499 H   0  0  0  0  0  0  0  0  0  0  0  0
   -9.9914   -3.3262   -2.2113 H   0  0  0  0  0  0  0  0  0  0  0  0
  -13.5792   -3.7659   -0.2417 H   0  0  0  0  0  0  0  0  0  0  0  0
  -13.2205   -4.7058    2.4701 H   0  0  0  0  0  0  0  0  0  0  0  0
   -9.0224   -4.9649    3.9589 H   0  0  0  0  0  0  0  0  0  0  0  0
   -8.2228   -4.2318    2.6699 H   0  0  0  0  0  0  0  0  0  0  0  0
   -7.8806   -5.8568    0.8379 H   0  0  0  0  0  0  0  0  0  0  0  0
   -5.4537   -5.6602    0.9804 H   0  0  0  0  0  0  0  0  0  0  0  0
    0.5367   -2.2866    0.7272 H   0  0  0  0  0  0  0  0  0  0  0  0
  1  2  1  0  0  0  0
  1 28  1  0  0  0  0
  1 29  1  0  0  0  0
  1 30  1  0  0  0  0
  2  3  1  0  0  0  0
  2 27  2  0  0  0  0
  3  4  2  0  0  0  0
  3 31  1  0  0  0  0
  4  5  1  0  0  0  0
  4 32  1  0  0  0  0
  5  6  2  0  0  0  0
  5 33  1  0  0  0  0
  6  7  1  0  0  0  0
  6 27  1  0  0  0  0
  7  8  1  0  0  0  0
  7 34  1  0  0  0  0
  8  9  2  0  0  0  0
  8 10  1  0  0  0  0
 10 11  1  0  0  0  0
 10 35  1  0  0  0  0
 11 12  1  0  0  0  0
 11 26  2  0  0  0  0
 12 13  2  0  0  0  0
 12 36  1  0  0  0  0
 13 14  1  0  0  0  0
 13 37  1  0  0  0  0
 14 15  1  0  0  0  0
 14 25  2  0  0  0  0
 15 16  1  0  0  0  0
 15 24  2  0  0  0  0
 16 17  2  0  0  0  0
 16 38  1  0  0  0  0
 17 18  1  0  0  0  0
 18 19  2  0  0  0  0
 18 39  1  0  0  0  0
 19 20  1  0  0  0  0
 19 24  1  0  0  0  0
 20 21  1  0  0  0  0
 20 40  1  0  0  0  0
 21 22  2  0  0  0  0
 22 23  1  0  0  0  0
 22 24  1  0  0  0  0
 23 41  1  0  0  0  0
 23 42  1  0  0  0  0
 25 26  1  0  0  0  0
 25 43  1  0  0  0  0
 26 44  1  0  0  0  0
 27 45  1  0  0  0  0
M  END
$$$$
