CHEMBL515109
 OpenBabel04072215383D

 59 63  0  0  0  0  0  0  0  0999 V2000
    2.5660    0.1902   -0.0901 C   0  0  0  0  0  0  0  0  0  0  0  0
    1.0629    0.1387   -0.0637 C   0  0  0  0  0  0  0  0  0  0  0  0
    0.3790    1.3578    0.0686 C   0  0  0  0  0  0  0  0  0  0  0  0
   -1.0131    1.4086    0.0847 C   0  0  0  0  0  0  0  0  0  0  0  0
   -1.7594    0.2419   -0.0057 C   0  0  0  0  0  0  0  0  0  0  0  0
   -3.1710    0.2150   -0.0311 N   0  0  0  0  0  0  0  0  0  0  0  0
   -4.0328    1.3022   -0.0044 C   0  0  0  0  0  0  0  0  0  0  0  0
   -3.6728    2.4712    0.1060 O   0  0  0  0  0  0  0  0  0  0  0  0
   -5.4529    0.9774   -0.1216 C   0  0  0  0  0  0  0  0  0  0  0  0
   -6.4939    1.8877   -0.0914 C   0  0  0  0  0  0  0  0  0  0  0  0
   -7.7655    1.2670   -0.2270 C   0  0  0  0  0  0  0  0  0  0  0  0
   -7.6724   -0.1001   -0.3882 C   0  0  0  0  0  0  0  0  0  0  0  0
   -8.7885   -1.0239   -0.5787 C   0  0  0  0  0  0  0  0  0  0  0  0
   -9.9494   -0.6351   -0.4869 O   0  0  0  0  0  0  0  0  0  0  0  0
   -8.4187   -2.3109   -0.9245 N   0  0  0  0  0  0  0  0  0  0  0  0
   -9.2602   -3.4113   -1.1906 C   0  0  0  0  0  0  0  0  0  0  0  0
  -10.6125   -3.4282   -0.8351 C   0  0  0  0  0  0  0  0  0  0  0  0
  -11.3900   -4.5647   -1.0575 C   0  0  0  0  0  0  0  0  0  0  0  0
  -10.8196   -5.6975   -1.6272 C   0  0  0  0  0  0  0  0  0  0  0  0
   -9.4716   -5.6916   -1.9876 C   0  0  0  0  0  0  0  0  0  0  0  0
   -8.6906   -4.5400   -1.8226 C   0  0  0  0  0  0  0  0  0  0  0  0
   -7.3107   -4.5976   -2.1354 N   0  0  0  0  0  0  0  0  0  0  0  0
   -6.0378   -0.6160   -0.3347 S   0  0  0  0  0  0  0  0  0  0  0  0
   -1.0797   -0.9806   -0.1030 C   0  0  0  0  0  0  0  0  0  0  0  0
    0.3295   -1.0649   -0.1460 C   0  0  0  0  0  0  0  0  0  0  0  0
    0.9916   -2.2981   -0.3624 N   0  0  0  0  0  0  0  0  0  0  0  0
    0.4686   -3.4264   -0.9053 C   0  0  0  0  0  0  0  0  0  0  0  0
   -0.6986   -3.5276   -1.5013 N   0  0  0  0  0  0  0  0  0  0  0  0
   -0.9321   -4.8184   -1.9098 C   0  0  0  0  0  0  0  0  0  0  0  0
    0.0589   -5.7400   -1.6319 C   0  0  0  0  0  0  0  0  0  0  0  0
    0.0536   -7.1879   -1.8724 C   0  0  0  0  0  0  0  0  0  0  0  0
   -1.1590   -7.8930   -1.8956 C   0  0  0  0  0  0  0  0  0  0  0  0
   -1.1780   -9.2668   -2.1313 C   0  0  0  0  0  0  0  0  0  0  0  0
    0.0269   -9.9104   -2.3412 C   0  0  0  0  0  0  0  0  0  0  0  0
    1.2188   -9.2782   -2.3337 N   0  0  0  0  0  0  0  0  0  0  0  0
    1.2045   -7.9393   -2.1007 C   0  0  0  0  0  0  0  0  0  0  0  0
    1.3661   -4.9081   -0.8823 S   0  0  0  0  0  0  0  0  0  0  0  0
    2.9206    1.2119   -0.2728 H   0  0  0  0  0  0  0  0  0  0  0  0
    2.9695   -0.4305   -0.8949 H   0  0  0  0  0  0  0  0  0  0  0  0
    2.9696   -0.1376    0.8726 H   0  0  0  0  0  0  0  0  0  0  0  0
    0.9263    2.2955    0.1388 H   0  0  0  0  0  0  0  0  0  0  0  0
   -1.4744    2.3863    0.1630 H   0  0  0  0  0  0  0  0  0  0  0  0
   -3.6004   -0.6971   -0.1209 H   0  0  0  0  0  0  0  0  0  0  0  0
   -6.3387    2.9556    0.0246 H   0  0  0  0  0  0  0  0  0  0  0  0
   -8.7118    1.8006   -0.2281 H   0  0  0  0  0  0  0  0  0  0  0  0
   -7.4289   -2.4914   -1.0196 H   0  0  0  0  0  0  0  0  0  0  0  0
  -11.0839   -2.5836   -0.3424 H   0  0  0  0  0  0  0  0  0  0  0  0
  -12.4358   -4.5666   -0.7606 H   0  0  0  0  0  0  0  0  0  0  0  0
  -11.4223   -6.5883   -1.7823 H   0  0  0  0  0  0  0  0  0  0  0  0
   -9.0423   -6.5917   -2.4189 H   0  0  0  0  0  0  0  0  0  0  0  0
   -7.1074   -5.3421   -2.7986 H   0  0  0  0  0  0  0  0  0  0  0  0
   -6.9574   -3.7146   -2.4883 H   0  0  0  0  0  0  0  0  0  0  0  0
   -1.6650   -1.8955   -0.1396 H   0  0  0  0  0  0  0  0  0  0  0  0
    1.9560   -2.3231   -0.0583 H   0  0  0  0  0  0  0  0  0  0  0  0
   -1.8698   -5.0378   -2.4049 H   0  0  0  0  0  0  0  0  0  0  0  0
   -2.1048   -7.3865   -1.7183 H   0  0  0  0  0  0  0  0  0  0  0  0
   -2.1119   -9.8177   -2.1458 H   0  0  0  0  0  0  0  0  0  0  0  0
    0.0660  -10.9807   -2.5257 H   0  0  0  0  0  0  0  0  0  0  0  0
    2.1911   -7.4846   -2.1201 H   0  0  0  0  0  0  0  0  0  0  0  0
  1  2  1  0  0  0  0
  1 38  1  0  0  0  0
  1 39  1  0  0  0  0
  1 40  1  0  0  0  0
  2  3  1  0  0  0  0
  2 25  2  0  0  0  0
  3  4  2  0  0  0  0
  3 41  1  0  0  0  0
  4  5  1  0  0  0  0
  4 42  1  0  0  0  0
  5  6  1  0  0  0  0
  5 24  2  0  0  0  0
  6  7  1  0  0  0  0
  6 43  1  0  0  0  0
  7  8  2  0  0  0  0
  7  9  1  0  0  0  0
  9 10  2  0  0  0  0
  9 23  1  0  0  0  0
 10 11  1  0  0  0  0
 10 44  1  0  0  0  0
 11 12  2  0  0  0  0
 11 45  1  0  0  0  0
 12 13  1  0  0  0  0
 12 23  1  0  0  0  0
 13 14  2  0  0  0  0
 13 15  1  0  0  0  0
 15 16  1  0  0  0  0
 15 46  1  0  0  0  0
 16 17  1  0  0  0  0
 16 21  2  0  0  0  0
 17 18  2  0  0  0  0
 17 47  1  0  0  0  0
 18 19  1  0  0  0  0
 18 48  1  0  0  0  0
 19 20  2  0  0  0  0
 19 49  1  0  0  0  0
 20 21  1  0  0  0  0
 20 50  1  0  0  0  0
 21 22  1  0  0  0  0
 22 51  1  0  0  0  0
 22 52  1  0  0  0  0
 24 25  1  0  0  0  0
 24 53  1  0  0  0  0
 25 26  1  0  0  0  0
 26 27  1  0  0  0  0
 26 54  1  0  0  0  0
 27 28  2  0  0  0  0
 27 37  1  0  0  0  0
 28 29  1  0  0  0  0
 29 30  2  0  0  0  0
 29 55  1  0  0  0  0
 30 31  1  0  0  0  0
 30 37  1  0  0  0  0
 31 32  1  0  0  0  0
 31 36  2  0  0  0  0
 32 33  2  0  0  0  0
 32 56  1  0  0  0  0
 33 34  1  0  0  0  0
 33 57  1  0  0  0  0
 34 35  2  0  0  0  0
 34 58  1  0  0  0  0
 35 36  1  0  0  0  0
 36 59  1  0  0  0  0
M  END
$$$$
