CHEMBL418301
 OpenBabel04072215383D

 43 47  0  0  0  0  0  0  0  0999 V2000
   -3.0106    0.9498   -0.0670 O   0  0  0  0  0  0  0  0  0  0  0  0
   -1.8376    0.6348   -0.0182 C   0  0  0  0  0  0  0  0  0  0  0  0
   -0.7674    1.5083    0.0489 N   0  0  0  0  0  0  0  0  0  0  0  0
    0.4454    0.8321    0.0426 C   0  0  0  0  0  0  0  0  0  0  0  0
    1.6988    1.4082    0.0870 C   0  0  0  0  0  0  0  0  0  0  0  0
    2.8325    0.5771    0.0306 C   0  0  0  0  0  0  0  0  0  0  0  0
    4.1966    1.1618    0.0143 C   0  0  0  0  0  0  0  0  0  0  0  0
    5.2888    0.5235    0.6280 C   0  0  0  0  0  0  0  0  0  0  0  0
    6.5756    1.0738    0.5813 C   0  0  0  0  0  0  0  0  0  0  0  0
    6.7973    2.2841   -0.0687 C   0  0  0  0  0  0  0  0  0  0  0  0
    5.7338    2.9457   -0.6705 C   0  0  0  0  0  0  0  0  0  0  0  0
    4.4528    2.3872   -0.6329 C   0  0  0  0  0  0  0  0  0  0  0  0
    2.6198   -0.8268   -0.0393 C   0  0  0  0  0  0  0  0  0  0  0  0
    1.3327   -1.3962   -0.0648 C   0  0  0  0  0  0  0  0  0  0  0  0
    0.2443   -0.5473   -0.0316 C   0  0  0  0  0  0  0  0  0  0  0  0
   -1.2120   -0.7416   -0.0475 C   0  0  0  0  0  0  0  0  0  0  0  0
   -1.8578   -1.9176   -0.0504 C   0  0  0  0  0  0  0  0  0  0  0  0
   -3.2639   -1.9944    0.0517 C   0  0  0  0  0  0  0  0  0  0  0  0
   -4.0283   -1.9807   -1.0934 N   0  0  0  0  0  0  0  0  0  0  0  0
   -5.3622   -2.0184   -0.7628 C   0  0  0  0  0  0  0  0  0  0  0  0
   -5.4579   -2.0473    0.6124 C   0  0  0  0  0  0  0  0  0  0  0  0
   -4.1324   -2.0444    1.1202 C   0  0  0  0  0  0  0  0  0  0  0  0
   -3.8986   -2.0544    2.5825 C   0  0  0  0  0  0  0  0  0  0  0  0
   -5.1418   -1.4878    3.2805 C   0  0  0  0  0  0  0  0  0  0  0  0
   -6.3928   -2.0523    2.8083 O   0  0  0  0  0  0  0  0  0  0  0  0
   -6.6450   -2.0768    1.4539 C   0  0  0  0  0  0  0  0  0  0  0  0
   -7.7845   -2.1722    1.0139 O   0  0  0  0  0  0  0  0  0  0  0  0
   -0.8887    2.5085    0.0675 H   0  0  0  0  0  0  0  0  0  0  0  0
    1.7915    2.4862    0.1651 H   0  0  0  0  0  0  0  0  0  0  0  0
    5.1537   -0.4138    1.1629 H   0  0  0  0  0  0  0  0  0  0  0  0
    7.4049    0.5545    1.0548 H   0  0  0  0  0  0  0  0  0  0  0  0
    7.7962    2.7104   -0.1074 H   0  0  0  0  0  0  0  0  0  0  0  0
    5.8966    3.8932   -1.1779 H   0  0  0  0  0  0  0  0  0  0  0  0
    3.6528    2.9246   -1.1376 H   0  0  0  0  0  0  0  0  0  0  0  0
    3.4737   -1.5009   -0.0962 H   0  0  0  0  0  0  0  0  0  0  0  0
    1.2146   -2.4734   -0.1200 H   0  0  0  0  0  0  0  0  0  0  0  0
   -1.3068   -2.8532   -0.0518 H   0  0  0  0  0  0  0  0  0  0  0  0
   -3.6688   -1.9092   -2.0362 H   0  0  0  0  0  0  0  0  0  0  0  0
   -6.1273   -1.9982   -1.5281 H   0  0  0  0  0  0  0  0  0  0  0  0
   -3.0184   -1.4620    2.8540 H   0  0  0  0  0  0  0  0  0  0  0  0
   -3.7290   -3.0883    2.9034 H   0  0  0  0  0  0  0  0  0  0  0  0
   -5.2050   -0.3997    3.1598 H   0  0  0  0  0  0  0  0  0  0  0  0
   -5.0809   -1.6933    4.3547 H   0  0  0  0  0  0  0  0  0  0  0  0
  1  2  2  0  0  0  0
  2  3  1  0  0  0  0
  2 16  1  0  0  0  0
  3  4  1  0  0  0  0
  3 28  1  0  0  0  0
  4  5  1  0  0  0  0
  4 15  2  0  0  0  0
  5  6  2  0  0  0  0
  5 29  1  0  0  0  0
  6  7  1  0  0  0  0
  6 13  1  0  0  0  0
  7  8  1  0  0  0  0
  7 12  2  0  0  0  0
  8  9  2  0  0  0  0
  8 30  1  0  0  0  0
  9 10  1  0  0  0  0
  9 31  1  0  0  0  0
 10 11  2  0  0  0  0
 10 32  1  0  0  0  0
 11 12  1  0  0  0  0
 11 33  1  0  0  0  0
 12 34  1  0  0  0  0
 13 14  2  0  0  0  0
 13 35  1  0  0  0  0
 14 15  1  0  0  0  0
 14 36  1  0  0  0  0
 15 16  1  0  0  0  0
 16 17  2  0  0  0  0
 17 18  1  0  0  0  0
 17 37  1  0  0  0  0
 18 19  1  0  0  0  0
 18 22  2  0  0  0  0
 19 20  1  0  0  0  0
 19 38  1  0  0  0  0
 20 21  2  0  0  0  0
 20 39  1  0  0  0  0
 21 22  1  0  0  0  0
 21 26  1  0  0  0  0
 22 23  1  0  0  0  0
 23 24  1  0  0  0  0
 23 40  1  0  0  0  0
 23 41  1  0  0  0  0
 24 25  1  0  0  0  0
 24 42  1  0  0  0  0
 24 43  1  0  0  0  0
 25 26  1  0  0  0  0
 26 27  2  0  0  0  0
M  END
$$$$
