CHEMBL3690413
 OpenBabel04072215373D

 61 65  0  0  0  0  0  0  0  0999 V2000
    2.5872    1.3575   -0.1431 O   0  0  0  0  0  0  0  0  0  0  0  0
    2.5203    0.3115   -0.7737 C   0  0  0  0  0  0  0  0  0  0  0  0
    1.5159    0.1023   -1.6949 N   0  0  0  0  0  0  0  0  0  0  0  0
    0.4339    1.0911   -1.7975 C   0  0  0  0  0  0  0  0  0  0  0  0
   -0.6803    0.9502   -0.7508 C   0  0  0  0  0  0  0  0  0  0  0  0
   -0.4999   -0.1367    0.0357 F   0  0  0  0  0  0  0  0  0  0  0  0
   -0.7823    2.0335    0.0450 F   0  0  0  0  0  0  0  0  0  0  0  0
   -1.8764    0.7872   -1.3700 F   0  0  0  0  0  0  0  0  0  0  0  0
    3.3811   -0.7630   -0.7095 N   0  0  0  0  0  0  0  0  0  0  0  0
    4.5459   -0.8760    0.0841 C   0  0  0  0  0  0  0  0  0  0  0  0
    5.0030    0.1483    0.9122 C   0  0  0  0  0  0  0  0  0  0  0  0
    6.2064    0.0161    1.5995 C   0  0  0  0  0  0  0  0  0  0  0  0
    6.9471   -1.1574    1.4916 C   0  0  0  0  0  0  0  0  0  0  0  0
    6.4627   -2.2527    0.7666 C   0  0  0  0  0  0  0  0  0  0  0  0
    7.1671   -3.5434    0.7762 C   0  0  0  0  0  0  0  0  0  0  0  0
    7.3202   -4.4822   -0.2336 C   0  0  0  0  0  0  0  0  0  0  0  0
    8.0476   -5.5708    0.1717 N   0  0  0  0  0  0  0  0  0  0  0  0
    8.3467   -5.3377    1.4300 C   0  0  0  0  0  0  0  0  0  0  0  0
    9.0882   -6.1204    2.3703 C   0  0  0  0  0  0  0  0  0  0  0  0
    9.2651   -5.6856    3.6386 C   0  0  0  0  0  0  0  0  0  0  0  0
   10.0339   -6.5146    4.5788 C   0  0  0  0  0  0  0  0  0  0  0  0
   11.4108   -6.3791    4.7009 C   0  0  0  0  0  0  0  0  0  0  0  0
   12.0899   -7.1378    5.6566 C   0  0  0  0  0  0  0  0  0  0  0  0
   11.3993   -8.0290    6.4815 C   0  0  0  0  0  0  0  0  0  0  0  0
   12.0839   -8.7954    7.4089 N   0  0  0  0  0  0  0  0  0  0  0  0
   11.5381  -10.0895    7.8120 C   0  0  0  0  0  0  0  0  0  0  0  0
   11.0973  -10.0873    9.2737 C   0  0  0  0  0  0  0  0  0  0  0  0
   12.1966   -9.5524   10.1869 C   0  0  0  0  0  0  0  0  0  0  0  0
   12.6396   -8.1688    9.7241 C   0  0  0  0  0  0  0  0  0  0  0  0
   13.0998   -8.1899    8.2659 C   0  0  0  0  0  0  0  0  0  0  0  0
   10.0637   -8.1808    6.3500 N   0  0  0  0  0  0  0  0  0  0  0  0
    9.4150   -7.4232    5.4280 C   0  0  0  0  0  0  0  0  0  0  0  0
    8.6834   -4.4127    4.0582 C   0  0  0  0  0  0  0  0  0  0  0  0
    7.9668   -3.6866    3.1872 C   0  0  0  0  0  0  0  0  0  0  0  0
    7.8134   -4.1263    1.8683 N   0  0  0  0  0  0  0  0  0  0  0  0
    5.2766   -2.0780    0.0242 C   0  0  0  0  0  0  0  0  0  0  0  0
    1.2491   -0.8632   -1.8432 H   0  0  0  0  0  0  0  0  0  0  0  0
    0.0140    0.9833   -2.8021 H   0  0  0  0  0  0  0  0  0  0  0  0
    0.8662    2.0964   -1.7341 H   0  0  0  0  0  0  0  0  0  0  0  0
    3.1966   -1.5229   -1.3459 H   0  0  0  0  0  0  0  0  0  0  0  0
    4.4614    1.0811    1.0290 H   0  0  0  0  0  0  0  0  0  0  0  0
    6.5660    0.8349    2.2172 H   0  0  0  0  0  0  0  0  0  0  0  0
    7.9082   -1.1986    1.9968 H   0  0  0  0  0  0  0  0  0  0  0  0
    6.9463   -4.4223   -1.2473 H   0  0  0  0  0  0  0  0  0  0  0  0
    9.4935   -7.0653    2.0219 H   0  0  0  0  0  0  0  0  0  0  0  0
   11.9653   -5.6938    4.0656 H   0  0  0  0  0  0  0  0  0  0  0  0
   13.1694   -7.0541    5.7238 H   0  0  0  0  0  0  0  0  0  0  0  0
   12.3296  -10.8389    7.6828 H   0  0  0  0  0  0  0  0  0  0  0  0
   10.7099  -10.4227    7.1754 H   0  0  0  0  0  0  0  0  0  0  0  0
   10.8326  -11.1065    9.5786 H   0  0  0  0  0  0  0  0  0  0  0  0
   10.1973   -9.4717    9.3887 H   0  0  0  0  0  0  0  0  0  0  0  0
   13.0540  -10.2370   10.1783 H   0  0  0  0  0  0  0  0  0  0  0  0
   11.8340   -9.5038   11.2197 H   0  0  0  0  0  0  0  0  0  0  0  0
   13.4538   -7.8076   10.3625 H   0  0  0  0  0  0  0  0  0  0  0  0
   11.8049   -7.4657    9.8381 H   0  0  0  0  0  0  0  0  0  0  0  0
   14.0238   -8.7732    8.1793 H   0  0  0  0  0  0  0  0  0  0  0  0
   13.3470   -7.1627    7.9749 H   0  0  0  0  0  0  0  0  0  0  0  0
    8.3384   -7.5714    5.4005 H   0  0  0  0  0  0  0  0  0  0  0  0
    8.8349   -4.0770    5.0800 H   0  0  0  0  0  0  0  0  0  0  0  0
    7.5001   -2.7591    3.4835 H   0  0  0  0  0  0  0  0  0  0  0  0
    4.9078   -2.8976   -0.5880 H   0  0  0  0  0  0  0  0  0  0  0  0
  1  2  2  0  0  0  0
  2  3  1  0  0  0  0
  2  9  1  0  0  0  0
  3  4  1  0  0  0  0
  3 37  1  0  0  0  0
  4  5  1  0  0  0  0
  4 38  1  0  0  0  0
  4 39  1  0  0  0  0
  5  6  1  0  0  0  0
  5  7  1  0  0  0  0
  5  8  1  0  0  0  0
  9 10  1  0  0  0  0
  9 40  1  0  0  0  0
 10 11  1  0  0  0  0
 10 36  2  0  0  0  0
 11 12  2  0  0  0  0
 11 41  1  0  0  0  0
 12 13  1  0  0  0  0
 12 42  1  0  0  0  0
 13 14  2  0  0  0  0
 13 43  1  0  0  0  0
 14 15  1  0  0  0  0
 14 36  1  0  0  0  0
 15 16  2  0  0  0  0
 15 35  1  0  0  0  0
 16 17  1  0  0  0  0
 16 44  1  0  0  0  0
 17 18  2  0  0  0  0
 18 19  1  0  0  0  0
 18 35  1  0  0  0  0
 19 20  2  0  0  0  0
 19 45  1  0  0  0  0
 20 21  1  0  0  0  0
 20 33  1  0  0  0  0
 21 22  1  0  0  0  0
 21 32  2  0  0  0  0
 22 23  2  0  0  0  0
 22 46  1  0  0  0  0
 23 24  1  0  0  0  0
 23 47  1  0  0  0  0
 24 25  1  0  0  0  0
 24 31  2  0  0  0  0
 25 26  1  0  0  0  0
 25 30  1  0  0  0  0
 26 27  1  0  0  0  0
 26 48  1  0  0  0  0
 26 49  1  0  0  0  0
 27 28  1  0  0  0  0
 27 50  1  0  0  0  0
 27 51  1  0  0  0  0
 28 29  1  0  0  0  0
 28 52  1  0  0  0  0
 28 53  1  0  0  0  0
 29 30  1  0  0  0  0
 29 54  1  0  0  0  0
 29 55  1  0  0  0  0
 30 56  1  0  0  0  0
 30 57  1  0  0  0  0
 31 32  1  0  0  0  0
 32 58  1  0  0  0  0
 33 34  2  0  0  0  0
 33 59  1  0  0  0  0
 34 35  1  0  0  0  0
 34 60  1  0  0  0  0
 36 61  1  0  0  0  0
M  END
$$$$
