CHEMBL1997617
 OpenBabel04072215363D

 70 75  0  0  1  0  0  0  0  0999 V2000
    0.3324   -5.6835   -1.4759 C   0  0  0  0  0  0  0  0  0  0  0  0
   -0.0041   -4.2638   -1.4311 N   0  0  0  0  0  0  0  0  0  0  0  0
   -1.3767   -4.0687   -0.9336 C   0  0  0  0  0  0  0  0  0  0  0  0
   -1.7262   -2.5800   -0.7239 C   0  0  0  0  0  0  0  0  0  0  0  0
   -0.8111   -1.8500    0.1784 N   0  0  0  0  0  0  0  0  0  0  0  0
   -0.9317   -2.1538    1.6243 C   0  0  3  0  0  0  0  0  0  0  0  0
   -2.3915   -2.3918    2.0816 C   0  0  0  0  0  0  0  0  0  0  0  0
   -2.5285   -2.5350    3.5931 C   0  0  0  0  0  0  0  0  0  0  0  0
   -1.9651   -1.3107    4.3173 C   0  0  3  0  0  0  0  0  0  0  0  0
   -2.1361   -1.4108    5.7646 N   0  0  0  0  0  0  0  0  0  0  0  0
   -1.7094   -2.4605    6.5336 C   0  0  0  0  0  0  0  0  0  0  0  0
   -2.0784   -2.2289    7.8466 C   0  0  0  0  0  0  0  0  0  0  0  0
   -1.7828   -3.1958    8.8968 C   0  0  0  0  0  0  0  0  0  0  0  0
   -0.6285   -3.9890    8.8305 C   0  0  0  0  0  0  0  0  0  0  0  0
   -0.3249   -4.8933    9.8483 C   0  0  0  0  0  0  0  0  0  0  0  0
   -1.1200   -4.9446   10.9924 C   0  0  0  0  0  0  0  0  0  0  0  0
   -0.8511   -5.7194   12.0938 O   0  0  0  0  0  0  0  0  0  0  0  0
    0.4550   -5.9997   12.4299 C   0  0  0  0  0  0  0  0  0  0  0  0
    1.5302   -5.1245   12.2423 C   0  0  0  0  0  0  0  0  0  0  0  0
    2.8257   -5.5322   12.5594 C   0  0  0  0  0  0  0  0  0  0  0  0
    3.0415   -6.7859   13.1294 C   0  0  0  0  0  0  0  0  0  0  0  0
    1.9620   -7.6293   13.3889 C   0  0  0  0  0  0  0  0  0  0  0  0
    0.6701   -7.2359   13.0395 C   0  0  0  0  0  0  0  0  0  0  0  0
   -2.3032   -4.2112   11.0400 C   0  0  0  0  0  0  0  0  0  0  0  0
   -2.6477   -3.3678    9.9818 C   0  0  0  0  0  0  0  0  0  0  0  0
   -2.7343   -0.9487    7.8762 C   0  0  0  0  0  0  0  0  0  0  0  0
   -3.3109   -0.0938    8.8359 C   0  0  0  0  0  0  0  0  0  0  0  0
   -3.3360   -0.3318   10.2058 N   0  0  0  0  0  0  0  0  0  0  0  0
   -3.8671    1.0671    8.4371 N   0  0  0  0  0  0  0  0  0  0  0  0
   -3.8376    1.3751    7.1293 C   0  0  0  0  0  0  0  0  0  0  0  0
   -3.2983    0.6669    6.1281 N   0  0  0  0  0  0  0  0  0  0  0  0
   -2.7622   -0.4856    6.5609 C   0  0  0  0  0  0  0  0  0  0  0  0
   -0.4967   -1.1020    3.9345 C   0  0  0  0  0  0  0  0  0  0  0  0
   -0.3356   -0.9642    2.4209 C   0  0  0  0  0  0  0  0  0  0  0  0
    0.5637   -2.0457   -0.3429 C   0  0  0  0  0  0  0  0  0  0  0  0
    0.9659   -3.5200   -0.6055 C   0  0  0  0  0  0  0  0  0  0  0  0
   -0.3699   -6.2271   -2.1179 H   0  0  0  0  0  0  0  0  0  0  0  0
    0.3118   -6.1437   -0.4815 H   0  0  0  0  0  0  0  0  0  0  0  0
    1.3312   -5.8306   -1.9018 H   0  0  0  0  0  0  0  0  0  0  0  0
   -1.5307   -4.6166    0.0049 H   0  0  0  0  0  0  0  0  0  0  0  0
   -2.0794   -4.4786   -1.6688 H   0  0  0  0  0  0  0  0  0  0  0  0
   -2.7698   -2.4814   -0.4086 H   0  0  0  0  0  0  0  0  0  0  0  0
   -1.6989   -2.0763   -1.7003 H   0  0  0  0  0  0  0  0  0  0  0  0
   -0.3655   -3.0604    1.8719 H   0  0  0  0  0  0  0  0  0  0  0  0
   -2.7835   -3.3126    1.6349 H   0  0  0  0  0  0  0  0  0  0  0  0
   -3.0301   -1.5641    1.7483 H   0  0  0  0  0  0  0  0  0  0  0  0
   -2.0125   -3.4486    3.9073 H   0  0  0  0  0  0  0  0  0  0  0  0
   -3.5869   -2.6706    3.8526 H   0  0  0  0  0  0  0  0  0  0  0  0
   -2.5343   -0.4309    3.9923 H   0  0  0  0  0  0  0  0  0  0  0  0
   -1.1946   -3.2989    6.0822 H   0  0  0  0  0  0  0  0  0  0  0  0
    0.0587   -3.9122    7.9914 H   0  0  0  0  0  0  0  0  0  0  0  0
    0.5554   -5.5209    9.7446 H   0  0  0  0  0  0  0  0  0  0  0  0
    1.3787   -4.1323   11.8271 H   0  0  0  0  0  0  0  0  0  0  0  0
    3.6654   -4.8711   12.3606 H   0  0  0  0  0  0  0  0  0  0  0  0
    4.0504   -7.1026   13.3788 H   0  0  0  0  0  0  0  0  0  0  0  0
    2.1261   -8.5964   13.8563 H   0  0  0  0  0  0  0  0  0  0  0  0
   -0.1702   -7.8972   13.2337 H   0  0  0  0  0  0  0  0  0  0  0  0
   -2.9596   -4.2888   11.9027 H   0  0  0  0  0  0  0  0  0  0  0  0
   -3.5988   -2.8431   10.0261 H   0  0  0  0  0  0  0  0  0  0  0  0
   -2.5168   -0.8183   10.5477 H   0  0  0  0  0  0  0  0  0  0  0  0
   -3.5755    0.5200   10.7000 H   0  0  0  0  0  0  0  0  0  0  0  0
   -4.3042    2.3154    6.8535 H   0  0  0  0  0  0  0  0  0  0  0  0
    0.1184   -1.9398    4.2878 H   0  0  0  0  0  0  0  0  0  0  0  0
   -0.1040   -0.2019    4.4250 H   0  0  0  0  0  0  0  0  0  0  0  0
    0.7333   -0.8478    2.2119 H   0  0  0  0  0  0  0  0  0  0  0  0
   -0.8200   -0.0312    2.1023 H   0  0  0  0  0  0  0  0  0  0  0  0
    1.3116   -1.5864    0.3113 H   0  0  0  0  0  0  0  0  0  0  0  0
    0.6391   -1.4926   -1.2889 H   0  0  0  0  0  0  0  0  0  0  0  0
    1.1165   -4.0244    0.3576 H   0  0  0  0  0  0  0  0  0  0  0  0
    1.9332   -3.5168   -1.1210 H   0  0  0  0  0  0  0  0  0  0  0  0
  1  2  1  0  0  0  0
  1 37  1  0  0  0  0
  1 38  1  0  0  0  0
  1 39  1  0  0  0  0
  2  3  1  0  0  0  0
  2 36  1  0  0  0  0
  3  4  1  0  0  0  0
  3 40  1  0  0  0  0
  3 41  1  0  0  0  0
  4  5  1  0  0  0  0
  4 42  1  0  0  0  0
  4 43  1  0  0  0  0
  5  6  1  0  0  0  0
  5 35  1  0  0  0  0
  6  7  1  0  0  0  0
  6 34  1  0  0  0  0
  6 44  1  0  0  0  0
  7  8  1  0  0  0  0
  7 45  1  0  0  0  0
  7 46  1  0  0  0  0
  8  9  1  0  0  0  0
  8 47  1  0  0  0  0
  8 48  1  0  0  0  0
  9 10  1  0  0  0  0
  9 33  1  0  0  0  0
  9 49  1  0  0  0  0
 10 11  1  0  0  0  0
 10 32  1  0  0  0  0
 11 12  2  0  0  0  0
 11 50  1  0  0  0  0
 12 13  1  0  0  0  0
 12 26  1  0  0  0  0
 13 14  1  0  0  0  0
 13 25  2  0  0  0  0
 14 15  2  0  0  0  0
 14 51  1  0  0  0  0
 15 16  1  0  0  0  0
 15 52  1  0  0  0  0
 16 17  1  0  0  0  0
 16 24  2  0  0  0  0
 17 18  1  0  0  0  0
 18 19  1  0  0  0  0
 18 23  2  0  0  0  0
 19 20  2  0  0  0  0
 19 53  1  0  0  0  0
 20 21  1  0  0  0  0
 20 54  1  0  0  0  0
 21 22  2  0  0  0  0
 21 55  1  0  0  0  0
 22 23  1  0  0  0  0
 22 56  1  0  0  0  0
 23 57  1  0  0  0  0
 24 25  1  0  0  0  0
 24 58  1  0  0  0  0
 25 59  1  0  0  0  0
 26 27  1  0  0  0  0
 26 32  2  0  0  0  0
 27 28  1  0  0  0  0
 27 29  2  0  0  0  0
 28 60  1  0  0  0  0
 28 61  1  0  0  0  0
 29 30  1  0  0  0  0
 30 31  2  0  0  0  0
 30 62  1  0  0  0  0
 31 32  1  0  0  0  0
 33 34  1  0  0  0  0
 33 63  1  0  0  0  0
 33 64  1  0  0  0  0
 34 65  1  0  0  0  0
 34 66  1  0  0  0  0
 35 36  1  0  0  0  0
 35 67  1  0  0  0  0
 35 68  1  0  0  0  0
 36 69  1  0  0  0  0
 36 70  1  0  0  0  0
M  END
$$$$
