CHEMBL2088091
 OpenBabel04072215363D

 36 38  0  0  0  0  0  0  0  0999 V2000
    1.7851    0.8468    0.6277 C   0  0  0  0  0  0  0  0  0  0  0  0
    1.1265   -0.4508    0.8966 C   0  0  0  0  0  0  0  0  0  0  0  0
   -0.2457   -0.7723    0.8160 C   0  0  0  0  0  0  0  0  0  0  0  0
   -0.3025   -2.1092    1.1309 C   0  0  0  0  0  0  0  0  0  0  0  0
   -1.4039   -3.1077    1.1936 C   0  0  0  0  0  0  0  0  0  0  0  0
   -2.2389   -3.0813   -0.0003 N   0  0  0  0  0  0  0  0  0  0  0  0
   -3.2473   -4.0318   -0.0455 C   0  0  0  0  0  0  0  0  0  0  0  0
   -4.1778   -3.8718   -0.9870 N   0  0  0  0  0  0  0  0  0  0  0  0
   -5.1593   -4.7952   -1.0374 C   0  0  0  0  0  0  0  0  0  0  0  0
   -5.1984   -5.9143   -0.2396 C   0  0  0  0  0  0  0  0  0  0  0  0
   -6.6037   -7.1592   -0.4091 Br  0  0  0  0  0  0  0  0  0  0  0  0
   -4.1741   -6.0303    0.6811 C   0  0  0  0  0  0  0  0  0  0  0  0
   -4.1081   -7.1421    1.5546 N   0  0  0  0  0  0  0  0  0  0  0  0
   -3.3639   -7.1899    2.6832 C   0  0  0  0  0  0  0  0  0  0  0  0
   -3.1944   -6.0997    3.5619 C   0  0  0  0  0  0  0  0  0  0  0  0
   -2.2935   -6.5257    4.5046 C   0  0  0  0  0  0  0  0  0  0  0  0
   -1.6429   -5.8060    5.6191 C   0  0  0  0  0  0  0  0  0  0  0  0
   -2.0476   -7.8361    4.2014 N   0  0  0  0  0  0  0  0  0  0  0  0
   -2.7106   -8.2732    3.1139 N   0  0  0  0  0  0  0  0  0  0  0  0
   -3.2276   -5.0692    0.7916 N   0  0  0  0  0  0  0  0  0  0  0  0
    0.9520   -2.5564    1.4055 O   0  0  0  0  0  0  0  0  0  0  0  0
    1.8533   -1.5158    1.2580 N   0  0  0  0  0  0  0  0  0  0  0  0
    1.0498    1.6041    0.3369 H   0  0  0  0  0  0  0  0  0  0  0  0
    2.5035    0.7464   -0.1931 H   0  0  0  0  0  0  0  0  0  0  0  0
    2.3163    1.2043    1.5172 H   0  0  0  0  0  0  0  0  0  0  0  0
   -1.0770   -0.1374    0.5455 H   0  0  0  0  0  0  0  0  0  0  0  0
   -2.0236   -2.8634    2.0673 H   0  0  0  0  0  0  0  0  0  0  0  0
   -0.9728   -4.1024    1.3624 H   0  0  0  0  0  0  0  0  0  0  0  0
   -1.7031   -3.2034   -0.8536 H   0  0  0  0  0  0  0  0  0  0  0  0
   -5.9366   -4.5878   -1.7668 H   0  0  0  0  0  0  0  0  0  0  0  0
   -4.1485   -8.0124    1.0357 H   0  0  0  0  0  0  0  0  0  0  0  0
   -3.6317   -5.1155    3.4756 H   0  0  0  0  0  0  0  0  0  0  0  0
   -1.9390   -4.7521    5.6186 H   0  0  0  0  0  0  0  0  0  0  0  0
   -0.5537   -5.8465    5.5192 H   0  0  0  0  0  0  0  0  0  0  0  0
   -1.9274   -6.2404    6.5814 H   0  0  0  0  0  0  0  0  0  0  0  0
   -1.4306   -8.4852    4.6793 H   0  0  0  0  0  0  0  0  0  0  0  0
  1  2  1  0  0  0  0
  1 23  1  0  0  0  0
  1 24  1  0  0  0  0
  1 25  1  0  0  0  0
  2  3  1  0  0  0  0
  2 22  2  0  0  0  0
  3  4  2  0  0  0  0
  3 26  1  0  0  0  0
  4  5  1  0  0  0  0
  4 21  1  0  0  0  0
  5  6  1  0  0  0  0
  5 27  1  0  0  0  0
  5 28  1  0  0  0  0
  6  7  1  0  0  0  0
  6 29  1  0  0  0  0
  7  8  1  0  0  0  0
  7 20  2  0  0  0  0
  8  9  2  0  0  0  0
  9 10  1  0  0  0  0
  9 30  1  0  0  0  0
 10 11  1  0  0  0  0
 10 12  2  0  0  0  0
 12 13  1  0  0  0  0
 12 20  1  0  0  0  0
 13 14  1  0  0  0  0
 13 31  1  0  0  0  0
 14 15  1  0  0  0  0
 14 19  2  0  0  0  0
 15 16  2  0  0  0  0
 15 32  1  0  0  0  0
 16 17  1  0  0  0  0
 16 18  1  0  0  0  0
 17 33  1  0  0  0  0
 17 34  1  0  0  0  0
 17 35  1  0  0  0  0
 18 19  1  0  0  0  0
 18 36  1  0  0  0  0
 21 22  1  0  0  0  0
M  END
$$$$
