CHEMBL2403370
 OpenBabel04072215363D

 54 58  0  0  0  0  0  0  0  0999 V2000
    1.3691   -0.2154   -0.1288 C   0  0  0  0  0  0  0  0  0  0  0  0
    2.7515    0.1215   -0.1859 O   0  0  0  0  0  0  0  0  0  0  0  0
    3.4946   -0.6158   -1.0691 C   0  0  0  0  0  0  0  0  0  0  0  0
    4.8413   -0.8045   -0.6944 C   0  0  0  0  0  0  0  0  0  0  0  0
    5.7166   -1.5429   -1.4904 C   0  0  0  0  0  0  0  0  0  0  0  0
    5.2088   -2.0589   -2.6633 C   0  0  0  0  0  0  0  0  0  0  0  0
    3.8861   -1.8549   -3.0674 C   0  0  0  0  0  0  0  0  0  0  0  0
    3.0098   -1.1292   -2.2770 C   0  0  0  0  0  0  0  0  0  0  0  0
    3.7392   -2.5569   -4.3461 C   0  0  0  0  0  0  0  0  0  0  0  0
    2.6062   -2.6598   -5.0584 C   0  0  0  0  0  0  0  0  0  0  0  0
    2.5489   -3.4673   -6.2105 C   0  0  0  0  0  0  0  0  0  0  0  0
    2.1552   -4.7742   -6.4391 C   0  0  0  0  0  0  0  0  0  0  0  0
    2.5445   -5.1155   -7.7631 C   0  0  0  0  0  0  0  0  0  0  0  0
    3.0904   -3.9734   -8.2933 C   0  0  0  0  0  0  0  0  0  0  0  0
    3.0495   -2.9681   -7.3785 N   0  0  0  0  0  0  0  0  0  0  0  0
    3.7313   -3.8654   -9.5953 C   0  0  0  0  0  0  0  0  0  0  0  0
    3.4797   -5.1206  -10.4187 C   0  0  0  0  0  0  0  0  0  0  0  0
    3.0405   -6.3856   -9.8482 N   0  0  0  0  0  0  0  0  0  0  0  0
    2.8614   -7.5412  -10.5994 C   0  0  0  0  0  0  0  0  0  0  0  0
    2.4755   -8.5747  -10.0267 O   0  0  0  0  0  0  0  0  0  0  0  0
    3.0674   -7.5555  -11.9777 N   0  0  0  0  0  0  0  0  0  0  0  0
    3.3654   -6.4983  -12.9669 C   0  0  0  0  0  0  0  0  0  0  0  0
    2.1176   -6.2178  -13.8024 C   0  0  0  0  0  0  0  0  0  0  0  0
    1.7851   -7.3897  -14.5561 O   0  0  0  0  0  0  0  0  0  0  0  0
    1.5195   -8.4988  -13.6771 C   0  0  0  0  0  0  0  0  0  0  0  0
    2.6817   -8.7800  -12.7012 C   0  0  0  0  0  0  0  0  0  0  0  0
    2.4819   -6.4288   -8.4734 C   0  0  0  0  0  0  0  0  0  0  0  0
    5.0907   -3.1635   -4.6677 C   0  0  0  0  0  0  0  0  0  0  0  0
    5.4508   -3.7745   -5.6541 O   0  0  0  0  0  0  0  0  0  0  0  0
    5.8964   -2.8252   -3.5945 N   0  0  0  0  0  0  0  0  0  0  0  0
    0.9410    0.2837    0.7460 H   0  0  0  0  0  0  0  0  0  0  0  0
    1.2271   -1.2944   -0.0019 H   0  0  0  0  0  0  0  0  0  0  0  0
    0.8378    0.1497   -1.0128 H   0  0  0  0  0  0  0  0  0  0  0  0
    5.1973   -0.3794    0.2413 H   0  0  0  0  0  0  0  0  0  0  0  0
    6.7457   -1.7036   -1.1947 H   0  0  0  0  0  0  0  0  0  0  0  0
    1.9886   -0.9697   -2.5982 H   0  0  0  0  0  0  0  0  0  0  0  0
    1.6880   -2.1784   -4.7378 H   0  0  0  0  0  0  0  0  0  0  0  0
    1.7349   -5.4404   -5.6973 H   0  0  0  0  0  0  0  0  0  0  0  0
    3.4578   -2.0443   -7.5073 H   0  0  0  0  0  0  0  0  0  0  0  0
    4.8086   -3.7047   -9.4764 H   0  0  0  0  0  0  0  0  0  0  0  0
    3.3456   -3.0020  -10.1510 H   0  0  0  0  0  0  0  0  0  0  0  0
    4.4330   -5.3334  -10.9115 H   0  0  0  0  0  0  0  0  0  0  0  0
    2.6879   -4.8558  -11.1255 H   0  0  0  0  0  0  0  0  0  0  0  0
    4.1651   -6.8905  -13.6061 H   0  0  0  0  0  0  0  0  0  0  0  0
    3.7453   -5.5599  -12.6014 H   0  0  0  0  0  0  0  0  0  0  0  0
    2.3126   -5.4019  -14.5057 H   0  0  0  0  0  0  0  0  0  0  0  0
    1.2644   -5.9272  -13.1762 H   0  0  0  0  0  0  0  0  0  0  0  0
    1.3524   -9.3726  -14.3139 H   0  0  0  0  0  0  0  0  0  0  0  0
    0.5915   -8.2893  -13.1344 H   0  0  0  0  0  0  0  0  0  0  0  0
    3.5668   -9.0929  -13.2682 H   0  0  0  0  0  0  0  0  0  0  0  0
    2.4102   -9.6038  -12.0358 H   0  0  0  0  0  0  0  0  0  0  0  0
    3.0228   -7.1942   -7.9009 H   0  0  0  0  0  0  0  0  0  0  0  0
    1.4343   -6.7461   -8.5467 H   0  0  0  0  0  0  0  0  0  0  0  0
    6.8634   -3.1051   -3.5406 H   0  0  0  0  0  0  0  0  0  0  0  0
  1  2  1  0  0  0  0
  1 31  1  0  0  0  0
  1 32  1  0  0  0  0
  1 33  1  0  0  0  0
  2  3  1  0  0  0  0
  3  4  1  0  0  0  0
  3  8  2  0  0  0  0
  4  5  2  0  0  0  0
  4 34  1  0  0  0  0
  5  6  1  0  0  0  0
  5 35  1  0  0  0  0
  6  7  2  0  0  0  0
  6 30  1  0  0  0  0
  7  8  1  0  0  0  0
  7  9  1  0  0  0  0
  8 36  1  0  0  0  0
  9 10  2  0  0  0  0
  9 28  1  0  0  0  0
 10 11  1  0  0  0  0
 10 37  1  0  0  0  0
 11 12  2  0  0  0  0
 11 15  1  0  0  0  0
 12 13  1  0  0  0  0
 12 38  1  0  0  0  0
 13 14  2  0  0  0  0
 13 27  1  0  0  0  0
 14 15  1  0  0  0  0
 14 16  1  0  0  0  0
 15 39  1  0  0  0  0
 16 17  1  0  0  0  0
 16 40  1  0  0  0  0
 16 41  1  0  0  0  0
 17 18  1  0  0  0  0
 17 42  1  0  0  0  0
 17 43  1  0  0  0  0
 18 19  1  0  0  0  0
 18 27  1  0  0  0  0
 19 20  2  0  0  0  0
 19 21  1  0  0  0  0
 21 22  1  0  0  0  0
 21 26  1  0  0  0  0
 22 23  1  0  0  0  0
 22 44  1  0  0  0  0
 22 45  1  0  0  0  0
 23 24  1  0  0  0  0
 23 46  1  0  0  0  0
 23 47  1  0  0  0  0
 24 25  1  0  0  0  0
 25 26  1  0  0  0  0
 25 48  1  0  0  0  0
 25 49  1  0  0  0  0
 26 50  1  0  0  0  0
 26 51  1  0  0  0  0
 27 52  1  0  0  0  0
 27 53  1  0  0  0  0
 28 29  2  0  0  0  0
 28 30  1  0  0  0  0
 30 54  1  0  0  0  0
M  END
$$$$
