CHEMBL3939439
 OpenBabel04072215373D

 68 72  0  0  0  0  0  0  0  0999 V2000
    0.8075   -3.7158    2.4412 C   0  0  0  0  0  0  0  0  0  0  0  0
    2.2078   -3.6598    2.7223 O   0  0  0  0  0  0  0  0  0  0  0  0
    2.9772   -2.8705    1.9008 C   0  0  0  0  0  0  0  0  0  0  0  0
    2.4818   -2.1926    0.7830 C   0  0  0  0  0  0  0  0  0  0  0  0
    3.3136   -1.3479    0.0606 C   0  0  0  0  0  0  0  0  0  0  0  0
    2.9583   -0.5835   -1.0162 O   0  0  0  0  0  0  0  0  0  0  0  0
    1.6289   -0.7296   -1.4951 C   0  0  0  0  0  0  0  0  0  0  0  0
    4.6480   -1.2173    0.4407 C   0  0  0  0  0  0  0  0  0  0  0  0
    5.2050   -1.9131    1.5307 C   0  0  0  0  0  0  0  0  0  0  0  0
    6.5636   -1.6895    1.8596 N   0  0  0  0  0  0  0  0  0  0  0  0
    6.9966   -0.1990    1.8101 C   0  0  0  0  0  0  0  0  0  0  0  0
    6.0566    0.9217    2.4361 C   0  0  0  0  0  0  0  0  0  0  0  0
    6.6067    2.3211    2.3841 N   0  0  0  0  0  0  0  0  0  0  0  0
    5.7003    3.3206    2.9940 C   0  0  0  0  0  0  0  0  0  0  0  0
    6.4449    4.6501    3.2052 C   0  0  0  0  0  0  0  0  0  0  0  0
    7.0494    5.1890    1.9107 C   0  0  0  0  0  0  0  0  0  0  0  0
    6.0427    5.7999    1.1039 O   0  0  0  0  0  0  0  0  0  0  0  0
    7.7735    4.0978    1.1278 C   0  0  0  0  0  0  0  0  0  0  0  0
    6.9706    2.7906    1.0377 C   0  0  0  0  0  0  0  0  0  0  0  0
    7.5374   -2.5346    2.5188 C   0  0  0  0  0  0  0  0  0  0  0  0
    7.9310   -2.0240    3.7248 C   0  0  0  0  0  0  0  0  0  0  0  0
    9.1852   -2.2432    4.0915 C   0  0  0  0  0  0  0  0  0  0  0  0
   10.0265   -3.1155    3.4825 C   0  0  0  0  0  0  0  0  0  0  0  0
   11.1157   -2.9508    4.1829 N   0  0  0  0  0  0  0  0  0  0  0  0
   11.9531   -3.9396    4.1886 C   0  0  0  0  0  0  0  0  0  0  0  0
   11.9688   -4.9625    3.2775 C   0  0  0  0  0  0  0  0  0  0  0  0
   13.3714   -5.5607    3.3550 C   0  0  0  0  0  0  0  0  0  0  0  0
   13.9199   -6.6646    4.1108 C   0  0  0  0  0  0  0  0  0  0  0  0
   15.1365   -6.4454    4.6484 N   0  0  0  0  0  0  0  0  0  0  0  0
   15.3923   -5.1680    4.3421 N   0  0  0  0  0  0  0  0  0  0  0  0
   16.4733   -4.4141    4.9605 C   0  0  0  0  0  0  0  0  0  0  0  0
   14.4361   -4.6407    3.5114 C   0  0  0  0  0  0  0  0  0  0  0  0
   10.8889   -5.0450    2.3693 N   0  0  0  0  0  0  0  0  0  0  0  0
    9.7299   -4.0587    2.4992 C   0  0  0  0  0  0  0  0  0  0  0  0
    8.3565   -3.6311    1.9454 C   0  0  0  0  0  0  0  0  0  0  0  0
    4.3401   -2.7460    2.2567 C   0  0  0  0  0  0  0  0  0  0  0  0
    0.3128   -4.2562    3.2541 H   0  0  0  0  0  0  0  0  0  0  0  0
    0.6201   -4.2660    1.5121 H   0  0  0  0  0  0  0  0  0  0  0  0
    0.3567   -2.7167    2.3990 H   0  0  0  0  0  0  0  0  0  0  0  0
    1.4502   -2.3131    0.4811 H   0  0  0  0  0  0  0  0  0  0  0  0
    1.5123   -0.0713   -2.3607 H   0  0  0  0  0  0  0  0  0  0  0  0
    0.9011   -0.4186   -0.7384 H   0  0  0  0  0  0  0  0  0  0  0  0
    1.4438   -1.7567   -1.8262 H   0  0  0  0  0  0  0  0  0  0  0  0
    5.2648   -0.5420   -0.1458 H   0  0  0  0  0  0  0  0  0  0  0  0
    7.1778    0.0242    0.7576 H   0  0  0  0  0  0  0  0  0  0  0  0
    7.9743   -0.0628    2.2928 H   0  0  0  0  0  0  0  0  0  0  0  0
    5.9127    0.6826    3.4991 H   0  0  0  0  0  0  0  0  0  0  0  0
    5.0629    0.9176    1.9787 H   0  0  0  0  0  0  0  0  0  0  0  0
    5.3345    2.9797    3.9685 H   0  0  0  0  0  0  0  0  0  0  0  0
    4.8159    3.4919    2.3634 H   0  0  0  0  0  0  0  0  0  0  0  0
    7.2509    4.4893    3.9327 H   0  0  0  0  0  0  0  0  0  0  0  0
    5.7614    5.3929    3.6353 H   0  0  0  0  0  0  0  0  0  0  0  0
    7.7595    5.9904    2.1503 H   0  0  0  0  0  0  0  0  0  0  0  0
    5.4063    5.1208    0.8312 H   0  0  0  0  0  0  0  0  0  0  0  0
    8.7295    3.8851    1.6239 H   0  0  0  0  0  0  0  0  0  0  0  0
    8.0026    4.4506    0.1152 H   0  0  0  0  0  0  0  0  0  0  0  0
    7.6100    2.0680    0.5262 H   0  0  0  0  0  0  0  0  0  0  0  0
    6.0789    2.9339    0.4130 H   0  0  0  0  0  0  0  0  0  0  0  0
    7.3733   -1.2731    4.2737 H   0  0  0  0  0  0  0  0  0  0  0  0
    9.6057   -1.6466    4.9309 H   0  0  0  0  0  0  0  0  0  0  0  0
   12.7014   -3.8117    4.9488 H   0  0  0  0  0  0  0  0  0  0  0  0
   13.4489   -7.6097    4.3789 H   0  0  0  0  0  0  0  0  0  0  0  0
   17.1177   -5.0606    5.5624 H   0  0  0  0  0  0  0  0  0  0  0  0
   16.0519   -3.6281    5.6028 H   0  0  0  0  0  0  0  0  0  0  0  0
   17.0586   -3.9435    4.1649 H   0  0  0  0  0  0  0  0  0  0  0  0
   14.4590   -3.5756    3.3247 H   0  0  0  0  0  0  0  0  0  0  0  0
    7.9548   -4.1491    1.0734 H   0  0  0  0  0  0  0  0  0  0  0  0
    4.6960   -3.2648    3.1432 H   0  0  0  0  0  0  0  0  0  0  0  0
  1  2  1  0  0  0  0
  1 37  1  0  0  0  0
  1 38  1  0  0  0  0
  1 39  1  0  0  0  0
  2  3  1  0  0  0  0
  3  4  1  0  0  0  0
  3 36  2  0  0  0  0
  4  5  2  0  0  0  0
  4 40  1  0  0  0  0
  5  6  1  0  0  0  0
  5  8  1  0  0  0  0
  6  7  1  0  0  0  0
  7 41  1  0  0  0  0
  7 42  1  0  0  0  0
  7 43  1  0  0  0  0
  8  9  2  0  0  0  0
  8 44  1  0  0  0  0
  9 10  1  0  0  0  0
  9 36  1  0  0  0  0
 10 11  1  0  0  0  0
 10 20  1  0  0  0  0
 11 12  1  0  0  0  0
 11 45  1  0  0  0  0
 11 46  1  0  0  0  0
 12 13  1  0  0  0  0
 12 47  1  0  0  0  0
 12 48  1  0  0  0  0
 13 14  1  0  0  0  0
 13 19  1  0  0  0  0
 14 15  1  0  0  0  0
 14 49  1  0  0  0  0
 14 50  1  0  0  0  0
 15 16  1  0  0  0  0
 15 51  1  0  0  0  0
 15 52  1  0  0  0  0
 16 17  1  0  0  0  0
 16 18  1  0  0  0  0
 16 53  1  0  0  0  0
 17 54  1  0  0  0  0
 18 19  1  0  0  0  0
 18 55  1  0  0  0  0
 18 56  1  0  0  0  0
 19 57  1  0  0  0  0
 19 58  1  0  0  0  0
 20 21  1  0  0  0  0
 20 35  2  0  0  0  0
 21 22  2  0  0  0  0
 21 59  1  0  0  0  0
 22 23  1  0  0  0  0
 22 60  1  0  0  0  0
 23 24  1  0  0  0  0
 23 34  2  0  0  0  0
 24 25  2  0  0  0  0
 25 26  1  0  0  0  0
 25 61  1  0  0  0  0
 26 27  1  0  0  0  0
 26 33  2  0  0  0  0
 27 28  1  0  0  0  0
 27 32  2  0  0  0  0
 28 29  2  0  0  0  0
 28 62  1  0  0  0  0
 29 30  1  0  0  0  0
 30 31  1  0  0  0  0
 30 32  1  0  0  0  0
 31 63  1  0  0  0  0
 31 64  1  0  0  0  0
 31 65  1  0  0  0  0
 32 66  1  0  0  0  0
 33 34  1  0  0  0  0
 34 35  1  0  0  0  0
 35 67  1  0  0  0  0
 36 68  1  0  0  0  0
M  END
$$$$
