CHEMBL47787
 OpenBabel04072215383D

 80 85  0  0  1  0  0  0  0  0999 V2000
    1.6238    0.7141    0.9731 C   0  0  0  0  0  0  0  0  0  0  0  0
    0.7612   -0.4136    1.2074 O   0  0  0  0  0  0  0  0  0  0  0  0
    0.8609   -0.9422    2.4734 C   0  0  0  0  0  0  0  0  0  0  0  0
    1.4496   -0.2328    3.5021 C   0  0  0  0  0  0  0  0  0  0  0  0
    1.4957   -0.6982    4.8170 C   0  0  0  0  0  0  0  0  0  0  0  0
    2.1144    0.1721    5.7668 C   0  0  0  0  0  0  0  0  0  0  0  0
    1.9324    1.4780    5.5652 N   0  0  0  0  0  0  0  0  0  0  0  0
    2.5653    2.0655    6.5728 N   0  0  0  0  0  0  0  0  0  0  0  0
    2.3367    3.4965    6.7229 C   0  0  1  0  0  0  0  0  0  0  0  0
    3.3288    4.2463    5.8109 C   0  0  0  0  0  0  0  0  0  0  0  0
    2.7742    4.6930    4.4711 C   0  0  0  0  0  0  0  0  0  0  0  0
    1.4568    5.4590    4.6330 C   0  0  2  0  0  0  0  0  0  0  0  0
    1.5382    6.7638    5.3036 N   0  0  0  0  0  0  0  0  0  0  0  0
    2.3883    7.7886    4.6905 C   0  0  0  0  0  0  0  0  0  0  0  0
    3.7421    8.0264    5.4087 C   0  0  0  0  0  0  0  0  0  0  0  0
    3.6248    8.2667    6.8602 N   0  0  0  0  0  0  0  0  0  0  0  0
    4.9432    8.2873    7.4965 C   0  0  0  0  0  0  0  0  0  0  0  0
    2.7698    7.2667    7.5090 C   0  0  0  0  0  0  0  0  0  0  0  0
    1.4617    6.9514    6.7486 C   0  0  0  0  0  0  0  0  0  0  0  0
    0.4246    4.4660    5.2015 C   0  0  0  0  0  0  0  0  0  0  0  0
    0.8161    3.7950    6.5218 C   0  0  0  0  0  0  0  0  0  0  0  0
    3.3296    1.2018    7.3051 C   0  0  0  0  0  0  0  0  0  0  0  0
    4.2028    1.4928    8.2913 N   0  0  0  0  0  0  0  0  0  0  0  0
    4.7884    0.3683    8.7506 C   0  0  0  0  0  0  0  0  0  0  0  0
    4.5742   -0.9137    8.3791 N   0  0  0  0  0  0  0  0  0  0  0  0
    3.6778   -1.1492    7.4011 C   0  0  0  0  0  0  0  0  0  0  0  0
    3.4686   -2.4621    7.0175 N   0  0  0  0  0  0  0  0  0  0  0  0
    3.0253   -0.0595    6.8127 C   0  0  0  0  0  0  0  0  0  0  0  0
    0.8899   -1.9044    5.1292 C   0  0  0  0  0  0  0  0  0  0  0  0
    0.3300   -2.6554    4.1060 C   0  0  0  0  0  0  0  0  0  0  0  0
    0.3095   -2.1951    2.7697 C   0  0  0  0  0  0  0  0  0  0  0  0
   -0.2313   -2.9897    1.7360 N   0  0  0  0  0  0  0  0  0  0  0  0
   -0.9973   -4.1025    1.9278 C   0  0  0  0  0  0  0  0  0  0  0  0
   -1.4586   -4.5008    3.0011 O   0  0  0  0  0  0  0  0  0  0  0  0
   -1.1458   -4.7824    0.7709 O   0  0  0  0  0  0  0  0  0  0  0  0
   -1.5125   -6.1499    0.9797 C   0  0  0  0  0  0  0  0  0  0  0  0
   -2.9225   -6.4211    0.5418 C   0  0  0  0  0  0  0  0  0  0  0  0
   -3.1849   -6.8734   -0.7557 C   0  0  0  0  0  0  0  0  0  0  0  0
   -4.4916   -7.1563   -1.1476 C   0  0  0  0  0  0  0  0  0  0  0  0
   -5.5430   -6.9866   -0.2477 C   0  0  0  0  0  0  0  0  0  0  0  0
   -5.2932   -6.5274    1.0438 C   0  0  0  0  0  0  0  0  0  0  0  0
   -3.9876   -6.2403    1.4376 C   0  0  0  0  0  0  0  0  0  0  0  0
    1.5637    0.9887   -0.0805 H   0  0  0  0  0  0  0  0  0  0  0  0
    2.6637    0.4393    1.1932 H   0  0  0  0  0  0  0  0  0  0  0  0
    1.3332    1.6037    1.5526 H   0  0  0  0  0  0  0  0  0  0  0  0
    1.8701    0.7539    3.3304 H   0  0  0  0  0  0  0  0  0  0  0  0
    2.5795    3.7072    7.7683 H   0  0  0  0  0  0  0  0  0  0  0  0
    4.2423    3.6628    5.6452 H   0  0  0  0  0  0  0  0  0  0  0  0
    3.6799    5.1349    6.3199 H   0  0  0  0  0  0  0  0  0  0  0  0
    2.6117    3.8103    3.8340 H   0  0  0  0  0  0  0  0  0  0  0  0
    3.5153    5.2984    3.9375 H   0  0  0  0  0  0  0  0  0  0  0  0
    1.1056    5.6782    3.6124 H   0  0  0  0  0  0  0  0  0  0  0  0
    1.8248    8.7309    4.7143 H   0  0  0  0  0  0  0  0  0  0  0  0
    2.5646    7.5848    3.6271 H   0  0  0  0  0  0  0  0  0  0  0  0
    4.2141    8.9052    4.9519 H   0  0  0  0  0  0  0  0  0  0  0  0
    4.3989    7.1710    5.2108 H   0  0  0  0  0  0  0  0  0  0  0  0
    5.4910    9.1913    7.2138 H   0  0  0  0  0  0  0  0  0  0  0  0
    5.5472    7.4127    7.2248 H   0  0  0  0  0  0  0  0  0  0  0  0
    4.8525    8.2978    8.5894 H   0  0  0  0  0  0  0  0  0  0  0  0
    2.4927    7.6309    8.5061 H   0  0  0  0  0  0  0  0  0  0  0  0
    3.3304    6.3497    7.7048 H   0  0  0  0  0  0  0  0  0  0  0  0
    0.7821    7.7957    6.9145 H   0  0  0  0  0  0  0  0  0  0  0  0
    0.9744    6.1386    7.2652 H   0  0  0  0  0  0  0  0  0  0  0  0
    0.2788    3.6694    4.4541 H   0  0  0  0  0  0  0  0  0  0  0  0
   -0.5583    4.9430    5.2942 H   0  0  0  0  0  0  0  0  0  0  0  0
    0.2067    2.8852    6.6296 H   0  0  0  0  0  0  0  0  0  0  0  0
    0.4533    4.3828    7.3655 H   0  0  0  0  0  0  0  0  0  0  0  0
    5.5419    0.5054    9.5205 H   0  0  0  0  0  0  0  0  0  0  0  0
    4.2151   -3.0693    7.3251 H   0  0  0  0  0  0  0  0  0  0  0  0
    3.1602   -2.5964    6.0671 H   0  0  0  0  0  0  0  0  0  0  0  0
    0.8352   -2.2697    6.1516 H   0  0  0  0  0  0  0  0  0  0  0  0
   -0.0807   -3.6149    4.3914 H   0  0  0  0  0  0  0  0  0  0  0  0
   -0.0143   -2.7345    0.7825 H   0  0  0  0  0  0  0  0  0  0  0  0
   -1.3841   -6.4896    2.0169 H   0  0  0  0  0  0  0  0  0  0  0  0
   -0.8086   -6.7533    0.4001 H   0  0  0  0  0  0  0  0  0  0  0  0
   -2.3703   -7.0120   -1.4628 H   0  0  0  0  0  0  0  0  0  0  0  0
   -4.6899   -7.5070   -2.1566 H   0  0  0  0  0  0  0  0  0  0  0  0
   -6.5607   -7.2069   -0.5568 H   0  0  0  0  0  0  0  0  0  0  0  0
   -6.1126   -6.3899    1.7449 H   0  0  0  0  0  0  0  0  0  0  0  0
   -3.7999   -5.8800    2.4479 H   0  0  0  0  0  0  0  0  0  0  0  0
  1  2  1  0  0  0  0
  1 43  1  0  0  0  0
  1 44  1  0  0  0  0
  1 45  1  0  0  0  0
  2  3  1  0  0  0  0
  3  4  1  0  0  0  0
  3 31  2  0  0  0  0
  4  5  2  0  0  0  0
  4 46  1  0  0  0  0
  5  6  1  0  0  0  0
  5 29  1  0  0  0  0
  6  7  2  0  0  0  0
  6 28  1  0  0  0  0
  7  8  1  0  0  0  0
  8 22  1  0  0  0  0
  9 10  1  0  0  0  0
  9 21  1  0  0  0  0
  9  8  1  0  0  0  0
  9 47  1  1  0  0  0
 10 11  1  0  0  0  0
 10 48  1  0  0  0  0
 10 49  1  0  0  0  0
 11 12  1  0  0  0  0
 11 50  1  0  0  0  0
 11 51  1  0  0  0  0
 12 20  1  0  0  0  0
 12 13  1  0  0  0  0
 12 52  1  6  0  0  0
 13 14  1  0  0  0  0
 13 19  1  0  0  0  0
 14 15  1  0  0  0  0
 14 53  1  0  0  0  0
 14 54  1  0  0  0  0
 15 16  1  0  0  0  0
 15 55  1  0  0  0  0
 15 56  1  0  0  0  0
 16 17  1  0  0  0  0
 16 18  1  0  0  0  0
 17 57  1  0  0  0  0
 17 58  1  0  0  0  0
 17 59  1  0  0  0  0
 18 19  1  0  0  0  0
 18 60  1  0  0  0  0
 18 61  1  0  0  0  0
 19 62  1  0  0  0  0
 19 63  1  0  0  0  0
 20 21  1  0  0  0  0
 20 64  1  0  0  0  0
 20 65  1  0  0  0  0
 21 66  1  0  0  0  0
 21 67  1  0  0  0  0
 22 23  1  0  0  0  0
 22 28  2  0  0  0  0
 23 24  2  0  0  0  0
 24 25  1  0  0  0  0
 24 68  1  0  0  0  0
 25 26  2  0  0  0  0
 26 27  1  0  0  0  0
 26 28  1  0  0  0  0
 27 69  1  0  0  0  0
 27 70  1  0  0  0  0
 29 30  2  0  0  0  0
 29 71  1  0  0  0  0
 30 31  1  0  0  0  0
 30 72  1  0  0  0  0
 31 32  1  0  0  0  0
 32 33  1  0  0  0  0
 32 73  1  0  0  0  0
 33 34  2  0  0  0  0
 33 35  1  0  0  0  0
 35 36  1  0  0  0  0
 36 37  1  0  0  0  0
 36 74  1  0  0  0  0
 36 75  1  0  0  0  0
 37 38  1  0  0  0  0
 37 42  2  0  0  0  0
 38 39  2  0  0  0  0
 38 76  1  0  0  0  0
 39 40  1  0  0  0  0
 39 77  1  0  0  0  0
 40 41  2  0  0  0  0
 40 78  1  0  0  0  0
 41 42  1  0  0  0  0
 41 79  1  0  0  0  0
 42 80  1  0  0  0  0
M  END
$$$$
