CHEMBL4540303
 OpenBabel04072215383D

 64 67  0  0  0  0  0  0  0  0999 V2000
    3.4706    0.2897    1.2849 C   0  0  0  0  0  0  0  0  0  0  0  0
    2.6030    0.4042    0.1555 O   0  0  0  0  0  0  0  0  0  0  0  0
    3.1935    0.3384   -1.0782 C   0  0  0  0  0  0  0  0  0  0  0  0
    4.2262   -0.5756   -1.2950 C   0  0  0  0  0  0  0  0  0  0  0  0
    4.8985   -0.6367   -2.5308 C   0  0  0  0  0  0  0  0  0  0  0  0
    6.0014   -1.4728   -2.7643 C   0  0  0  0  0  0  0  0  0  0  0  0
    6.4432   -2.3549   -1.7379 N   0  0  0  0  0  0  0  0  0  0  0  0
    7.7148   -2.9707   -1.7183 C   0  0  0  0  0  0  0  0  0  0  0  0
    8.8685   -2.2096   -1.9430 C   0  0  0  0  0  0  0  0  0  0  0  0
   10.1167   -2.8159   -2.0612 C   0  0  0  0  0  0  0  0  0  0  0  0
   10.2460   -4.2056   -1.9532 C   0  0  0  0  0  0  0  0  0  0  0  0
   11.5885   -4.8270   -2.2126 C   0  0  0  0  0  0  0  0  0  0  0  0
    9.1031   -4.9600   -1.6458 C   0  0  0  0  0  0  0  0  0  0  0  0
    9.1820   -6.8474   -1.4330 Br  0  0  0  0  0  0  0  0  0  0  0  0
    7.8496   -4.3472   -1.5182 C   0  0  0  0  0  0  0  0  0  0  0  0
    6.6695   -1.4493   -3.9357 N   0  0  0  0  0  0  0  0  0  0  0  0
    6.2034   -0.6050   -4.8657 C   0  0  0  0  0  0  0  0  0  0  0  0
    5.1438    0.2077   -4.7527 N   0  0  0  0  0  0  0  0  0  0  0  0
    4.5022    0.1978   -3.5794 C   0  0  0  0  0  0  0  0  0  0  0  0
    3.4133    1.0463   -3.3752 C   0  0  0  0  0  0  0  0  0  0  0  0
    2.7449    1.1348   -2.1414 C   0  0  0  0  0  0  0  0  0  0  0  0
    1.7120    2.0539   -2.1390 O   0  0  0  0  0  0  0  0  0  0  0  0
    1.0047    2.2004   -0.9100 C   0  0  0  0  0  0  0  0  0  0  0  0
   -0.0901    3.2621   -0.9613 C   0  0  0  0  0  0  0  0  0  0  0  0
   -0.6848    3.2804    0.3423 O   0  0  0  0  0  0  0  0  0  0  0  0
   -1.7026    4.2611    0.4867 C   0  0  0  0  0  0  0  0  0  0  0  0
   -2.2394    4.1994    1.9194 C   0  0  0  0  0  0  0  0  0  0  0  0
   -3.3089    5.1541    2.1496 N   0  0  0  0  0  0  0  0  0  0  0  0
   -3.0464    6.4511    2.5337 C   0  0  0  0  0  0  0  0  0  0  0  0
   -1.9087    6.8756    2.7211 O   0  0  0  0  0  0  0  0  0  0  0  0
   -4.2609    7.3323    2.6971 C   0  0  0  0  0  0  0  0  0  0  0  0
   -4.3912    7.7971    4.0598 N   0  0  0  0  0  0  0  0  0  0  0  0
   -3.5512    8.6191    4.7513 C   0  0  0  0  0  0  0  0  0  0  0  0
   -4.0430    8.8562    5.9471 N   0  0  0  0  0  0  0  0  0  0  0  0
   -5.2174    8.1407    5.9341 C   0  0  0  0  0  0  0  0  0  0  0  0
   -6.1304    8.0952    7.0683 N   0  3  0  0  0  0  0  0  0  0  0  0
   -5.8054    8.7319    8.0826 O   0  0  0  0  0  0  0  0  0  0  0  0
   -7.1709    7.4271    6.9510 O   0  5  0  0  0  0  0  0  0  0  0  0
   -5.4838    7.4849    4.7894 N   0  0  0  0  0  0  0  0  0  0  0  0
    3.2282    1.0972    1.9785 H   0  0  0  0  0  0  0  0  0  0  0  0
    4.5371    0.3755    1.0481 H   0  0  0  0  0  0  0  0  0  0  0  0
    3.2739   -0.6664    1.7779 H   0  0  0  0  0  0  0  0  0  0  0  0
    4.5447   -1.2279   -0.4890 H   0  0  0  0  0  0  0  0  0  0  0  0
    5.6937   -2.9915   -1.4930 H   0  0  0  0  0  0  0  0  0  0  0  0
    8.7884   -1.1320   -2.0634 H   0  0  0  0  0  0  0  0  0  0  0  0
   10.9797   -2.1908   -2.2755 H   0  0  0  0  0  0  0  0  0  0  0  0
   12.3267   -4.0709   -2.5030 H   0  0  0  0  0  0  0  0  0  0  0  0
   11.5203   -5.5371   -3.0436 H   0  0  0  0  0  0  0  0  0  0  0  0
   11.9650   -5.3326   -1.3194 H   0  0  0  0  0  0  0  0  0  0  0  0
    6.9728   -4.9548   -1.3129 H   0  0  0  0  0  0  0  0  0  0  0  0
    6.7440   -0.5792   -5.8049 H   0  0  0  0  0  0  0  0  0  0  0  0
    3.0908    1.6771   -4.1954 H   0  0  0  0  0  0  0  0  0  0  0  0
    1.6960    2.5118   -0.1201 H   0  0  0  0  0  0  0  0  0  0  0  0
    0.5245    1.2508   -0.6441 H   0  0  0  0  0  0  0  0  0  0  0  0
   -0.8435    3.0154   -1.7177 H   0  0  0  0  0  0  0  0  0  0  0  0
    0.3346    4.2432   -1.2026 H   0  0  0  0  0  0  0  0  0  0  0  0
   -2.5124    4.0514   -0.2212 H   0  0  0  0  0  0  0  0  0  0  0  0
   -1.2972    5.2562    0.2741 H   0  0  0  0  0  0  0  0  0  0  0  0
   -1.4265    4.3763    2.6346 H   0  0  0  0  0  0  0  0  0  0  0  0
   -2.6347    3.2005    2.1365 H   0  0  0  0  0  0  0  0  0  0  0  0
   -4.2575    4.8536    1.9588 H   0  0  0  0  0  0  0  0  0  0  0  0
   -5.1778    6.8018    2.4207 H   0  0  0  0  0  0  0  0  0  0  0  0
   -4.1616    8.2069    2.0466 H   0  0  0  0  0  0  0  0  0  0  0  0
   -2.6191    8.9974    4.3495 H   0  0  0  0  0  0  0  0  0  0  0  0
  1  2  1  0  0  0  0
  1 40  1  0  0  0  0
  1 41  1  0  0  0  0
  1 42  1  0  0  0  0
  2  3  1  0  0  0  0
  3  4  1  0  0  0  0
  3 21  2  0  0  0  0
  4  5  2  0  0  0  0
  4 43  1  0  0  0  0
  5  6  1  0  0  0  0
  5 19  1  0  0  0  0
  6  7  1  0  0  0  0
  6 16  2  0  0  0  0
  7  8  1  0  0  0  0
  7 44  1  0  0  0  0
  8  9  1  0  0  0  0
  8 15  2  0  0  0  0
  9 10  2  0  0  0  0
  9 45  1  0  0  0  0
 10 11  1  0  0  0  0
 10 46  1  0  0  0  0
 11 12  1  0  0  0  0
 11 13  2  0  0  0  0
 12 47  1  0  0  0  0
 12 48  1  0  0  0  0
 12 49  1  0  0  0  0
 13 14  1  0  0  0  0
 13 15  1  0  0  0  0
 15 50  1  0  0  0  0
 16 17  1  0  0  0  0
 17 18  2  0  0  0  0
 17 51  1  0  0  0  0
 18 19  1  0  0  0  0
 19 20  2  0  0  0  0
 20 21  1  0  0  0  0
 20 52  1  0  0  0  0
 21 22  1  0  0  0  0
 22 23  1  0  0  0  0
 23 24  1  0  0  0  0
 23 53  1  0  0  0  0
 23 54  1  0  0  0  0
 24 25  1  0  0  0  0
 24 55  1  0  0  0  0
 24 56  1  0  0  0  0
 25 26  1  0  0  0  0
 26 27  1  0  0  0  0
 26 57  1  0  0  0  0
 26 58  1  0  0  0  0
 27 28  1  0  0  0  0
 27 59  1  0  0  0  0
 27 60  1  0  0  0  0
 28 29  1  0  0  0  0
 28 61  1  0  0  0  0
 29 30  2  0  0  0  0
 29 31  1  0  0  0  0
 31 32  1  0  0  0  0
 31 62  1  0  0  0  0
 31 63  1  0  0  0  0
 32 33  1  0  0  0  0
 32 39  1  0  0  0  0
 33 34  2  0  0  0  0
 33 64  1  0  0  0  0
 34 35  1  0  0  0  0
 35 36  1  0  0  0  0
 35 39  2  0  0  0  0
 36 37  2  0  0  0  0
 36 38  1  0  0  0  0
M  CHG  2  36   1  38  -1
M  END
$$$$
