CHEMBL3912723
 OpenBabel04072215373D

 37 40  0  0  0  0  0  0  0  0999 V2000
   -2.6359    0.2354    0.1136 O   0  0  0  0  0  0  0  0  0  0  0  0
   -1.4159    0.1161    0.0273 C   0  0  0  0  0  0  0  0  0  0  0  0
   -0.7663   -1.2389   -0.0427 C   0  0  0  0  0  0  0  0  0  0  0  0
    1.0062   -0.9672   -0.0963 S   0  0  0  0  0  0  0  0  0  0  0  0
    0.8397    0.7745   -0.0329 C   0  0  0  0  0  0  0  0  0  0  0  0
    1.9361    1.4613    0.0580 N   0  0  0  0  0  0  0  0  0  0  0  0
    1.8489    2.8005    0.2323 N   0  0  0  0  0  0  0  0  0  0  0  0
    2.8475    3.6805   -0.2249 C   0  0  0  0  0  0  0  0  0  0  0  0
    2.9544    4.8228    0.5016 N   0  0  0  0  0  0  0  0  0  0  0  0
    3.8374    5.7975    0.1582 N   0  0  0  0  0  0  0  0  0  0  0  0
    4.6183    5.6142   -0.9201 C   0  0  0  0  0  0  0  0  0  0  0  0
    4.5585    4.4829   -1.7222 C   0  0  0  0  0  0  0  0  0  0  0  0
    5.3988    4.3442   -2.8433 C   0  0  0  0  0  0  0  0  0  0  0  0
    5.3162    3.2210   -3.6634 C   0  0  0  0  0  0  0  0  0  0  0  0
    4.3810    2.2358   -3.3839 C   0  0  0  0  0  0  0  0  0  0  0  0
    3.5469    2.3659   -2.2718 C   0  0  0  0  0  0  0  0  0  0  0  0
    3.6268    3.4780   -1.3917 C   0  0  0  0  0  0  0  0  0  0  0  0
   -0.4902    1.1444   -0.0570 N   0  0  0  0  0  0  0  0  0  0  0  0
   -0.9361    2.4876   -0.1714 C   0  0  0  0  0  0  0  0  0  0  0  0
   -1.7604    3.0424    0.8148 C   0  0  0  0  0  0  0  0  0  0  0  0
   -2.0569    4.4085    0.7915 C   0  0  0  0  0  0  0  0  0  0  0  0
   -1.5604    5.2124   -0.2338 C   0  0  0  0  0  0  0  0  0  0  0  0
   -1.8726    6.9034   -0.2220 Cl  0  0  0  0  0  0  0  0  0  0  0  0
   -0.7994    4.6574   -1.2588 C   0  0  0  0  0  0  0  0  0  0  0  0
   -0.4988    3.2936   -1.2341 C   0  0  0  0  0  0  0  0  0  0  0  0
   -1.0864   -1.7488   -0.9576 H   0  0  0  0  0  0  0  0  0  0  0  0
   -1.0388   -1.8295    0.8361 H   0  0  0  0  0  0  0  0  0  0  0  0
    1.5111    3.1534    1.1296 H   0  0  0  0  0  0  0  0  0  0  0  0
    5.3012    6.4317   -1.1252 H   0  0  0  0  0  0  0  0  0  0  0  0
    6.1291    5.1140   -3.0846 H   0  0  0  0  0  0  0  0  0  0  0  0
    5.9768    3.1178   -4.5197 H   0  0  0  0  0  0  0  0  0  0  0  0
    4.2987    1.3593   -4.0213 H   0  0  0  0  0  0  0  0  0  0  0  0
    2.8268    1.5729   -2.0979 H   0  0  0  0  0  0  0  0  0  0  0  0
   -2.1309    2.4355    1.6374 H   0  0  0  0  0  0  0  0  0  0  0  0
   -2.6540    4.8426    1.5891 H   0  0  0  0  0  0  0  0  0  0  0  0
   -0.4083    5.2815   -2.0582 H   0  0  0  0  0  0  0  0  0  0  0  0
    0.1226    2.8790   -2.0257 H   0  0  0  0  0  0  0  0  0  0  0  0
  1  2  2  0  0  0  0
  2  3  1  0  0  0  0
  2 18  1  0  0  0  0
  3  4  1  0  0  0  0
  3 26  1  0  0  0  0
  3 27  1  0  0  0  0
  4  5  1  0  0  0  0
  5  6  2  0  0  0  0
  5 18  1  0  0  0  0
  6  7  1  0  0  0  0
  7  8  1  0  0  0  0
  7 28  1  0  0  0  0
  8  9  1  0  0  0  0
  8 17  2  0  0  0  0
  9 10  2  0  0  0  0
 10 11  1  0  0  0  0
 11 12  2  0  0  0  0
 11 29  1  0  0  0  0
 12 13  1  0  0  0  0
 12 17  1  0  0  0  0
 13 14  2  0  0  0  0
 13 30  1  0  0  0  0
 14 15  1  0  0  0  0
 14 31  1  0  0  0  0
 15 16  2  0  0  0  0
 15 32  1  0  0  0  0
 16 17  1  0  0  0  0
 16 33  1  0  0  0  0
 18 19  1  0  0  0  0
 19 20  1  0  0  0  0
 19 25  2  0  0  0  0
 20 21  2  0  0  0  0
 20 34  1  0  0  0  0
 21 22  1  0  0  0  0
 21 35  1  0  0  0  0
 22 23  1  0  0  0  0
 22 24  2  0  0  0  0
 24 25  1  0  0  0  0
 24 36  1  0  0  0  0
 25 37  1  0  0  0  0
M  END
$$$$
