CHEMBL3917278
 OpenBabel04072215373D

 60 63  0  0  1  0  0  0  0  0999 V2000
   -1.4053    0.3086   -1.5339 C   0  0  0  0  0  0  0  0  0  0  0  0
    0.0091   -0.2902   -1.5142 C   0  0  3  0  0  0  0  0  0  0  0  0
   -0.0848   -1.7326   -1.7525 N   0  0  0  0  0  0  0  0  0  0  0  0
    0.9427    0.4218   -2.4803 C   0  0  0  0  0  0  0  0  0  0  0  0
    1.1387    1.7997   -2.2959 C   0  0  0  0  0  0  0  0  0  0  0  0
    1.9856    2.5725   -3.0966 C   0  0  0  0  0  0  0  0  0  0  0  0
    2.1533    3.9711   -2.8952 N   0  0  0  0  0  0  0  0  0  0  0  0
    1.6262    4.6873   -1.8327 C   0  0  0  0  0  0  0  0  0  0  0  0
    1.0219    4.1970   -0.8843 O   0  0  0  0  0  0  0  0  0  0  0  0
    1.8117    6.0585   -1.9513 N   0  0  0  0  0  0  0  0  0  0  0  0
    1.3434    6.9084   -0.9135 C   0  0  0  0  0  0  0  0  0  0  0  0
    1.5502    6.5789    0.4340 C   0  0  0  0  0  0  0  0  0  0  0  0
    0.9995    7.3536    1.4566 C   0  0  0  0  0  0  0  0  0  0  0  0
    0.2906    8.5158    1.1476 C   0  0  0  0  0  0  0  0  0  0  0  0
   -0.2516    9.3492    2.1059 O   0  0  0  0  0  0  0  0  0  0  0  0
    0.4702    9.6101    3.2544 C   0  0  0  0  0  0  0  0  0  0  0  0
    1.8595    9.5973    3.3059 C   0  0  0  0  0  0  0  0  0  0  0  0
    2.4605    9.8017    4.5249 C   0  0  0  0  0  0  0  0  0  0  0  0
    1.7766   10.0792    5.6459 N   0  0  0  0  0  0  0  0  0  0  0  0
    0.4378   10.1735    5.5883 C   0  0  0  0  0  0  0  0  0  0  0  0
   -0.2735   10.5157    6.7524 N   0  0  0  0  0  0  0  0  0  0  0  0
    0.3363   10.7384    7.9761 C   0  0  0  0  0  0  0  0  0  0  0  0
    1.5214   10.6473    8.2421 O   0  0  0  0  0  0  0  0  0  0  0  0
   -0.6104   11.1177    9.0757 C   0  0  0  0  0  0  0  0  0  0  0  0
   -0.1427   12.0846   10.1457 C   0  0  0  0  0  0  0  0  0  0  0  0
   -0.3329   10.6341   10.4850 C   0  0  0  0  0  0  0  0  0  0  0  0
   -0.2581    9.9426    4.4049 C   0  0  0  0  0  0  0  0  0  0  0  0
    0.0729    8.8294   -0.1983 C   0  0  0  0  0  0  0  0  0  0  0  0
   -0.6802    9.8898   -0.5258 F   0  0  0  0  0  0  0  0  0  0  0  0
    0.6114    8.0509   -1.2291 C   0  0  0  0  0  0  0  0  0  0  0  0
    2.6729    1.9329   -4.1272 C   0  0  0  0  0  0  0  0  0  0  0  0
    2.5309    0.5415   -4.3267 C   0  0  0  0  0  0  0  0  0  0  0  0
    3.3149   -0.1891   -5.3912 C   0  0  0  0  0  0  0  0  0  0  0  0
    4.1509    0.6193   -6.1016 F   0  0  0  0  0  0  0  0  0  0  0  0
    4.1015   -1.1742   -4.8759 F   0  0  0  0  0  0  0  0  0  0  0  0
    2.5127   -0.7940   -6.3106 F   0  0  0  0  0  0  0  0  0  0  0  0
    1.6590   -0.1975   -3.5037 C   0  0  0  0  0  0  0  0  0  0  0  0
   -2.0534   -0.1910   -0.8057 H   0  0  0  0  0  0  0  0  0  0  0  0
   -1.8658    0.2163   -2.5241 H   0  0  0  0  0  0  0  0  0  0  0  0
   -1.4061    1.3732   -1.2740 H   0  0  0  0  0  0  0  0  0  0  0  0
    0.4313   -0.1576   -0.5091 H   0  0  0  0  0  0  0  0  0  0  0  0
   -0.6244   -1.8897   -2.6024 H   0  0  0  0  0  0  0  0  0  0  0  0
   -0.6343   -2.1472   -1.0002 H   0  0  0  0  0  0  0  0  0  0  0  0
    0.6049    2.2447   -1.4663 H   0  0  0  0  0  0  0  0  0  0  0  0
    2.8133    4.4509   -3.4906 H   0  0  0  0  0  0  0  0  0  0  0  0
    1.7573    6.4146   -2.8952 H   0  0  0  0  0  0  0  0  0  0  0  0
    2.1260    5.6952    0.7063 H   0  0  0  0  0  0  0  0  0  0  0  0
    1.1430    7.0366    2.4864 H   0  0  0  0  0  0  0  0  0  0  0  0
    2.4771    9.4053    2.4375 H   0  0  0  0  0  0  0  0  0  0  0  0
    3.5374    9.7437    4.6480 H   0  0  0  0  0  0  0  0  0  0  0  0
   -1.2746   10.6097    6.6796 H   0  0  0  0  0  0  0  0  0  0  0  0
   -1.6556   11.1926    8.7971 H   0  0  0  0  0  0  0  0  0  0  0  0
   -0.8502   12.7965   10.5497 H   0  0  0  0  0  0  0  0  0  0  0  0
    0.8759   12.4576   10.0928 H   0  0  0  0  0  0  0  0  0  0  0  0
   -1.1699   10.3666   11.1169 H   0  0  0  0  0  0  0  0  0  0  0  0
    0.5585   10.0389   10.6585 H   0  0  0  0  0  0  0  0  0  0  0  0
   -1.3386   10.0115    4.3575 H   0  0  0  0  0  0  0  0  0  0  0  0
    0.3893    8.3176   -2.2564 H   0  0  0  0  0  0  0  0  0  0  0  0
    3.3395    2.4953   -4.7770 H   0  0  0  0  0  0  0  0  0  0  0  0
    1.5626   -1.2714   -3.6587 H   0  0  0  0  0  0  0  0  0  0  0  0
  1  2  1  0  0  0  0
  1 38  1  0  0  0  0
  1 39  1  0  0  0  0
  1 40  1  0  0  0  0
  2  3  1  0  0  0  0
  2  4  1  0  0  0  0
  2 41  1  0  0  0  0
  3 42  1  0  0  0  0
  3 43  1  0  0  0  0
  4  5  1  0  0  0  0
  4 37  2  0  0  0  0
  5  6  2  0  0  0  0
  5 44  1  0  0  0  0
  6  7  1  0  0  0  0
  6 31  1  0  0  0  0
  7  8  1  0  0  0  0
  7 45  1  0  0  0  0
  8  9  2  0  0  0  0
  8 10  1  0  0  0  0
 10 11  1  0  0  0  0
 10 46  1  0  0  0  0
 11 12  1  0  0  0  0
 11 30  2  0  0  0  0
 12 13  2  0  0  0  0
 12 47  1  0  0  0  0
 13 14  1  0  0  0  0
 13 48  1  0  0  0  0
 14 15  1  0  0  0  0
 14 28  2  0  0  0  0
 15 16  1  0  0  0  0
 16 17  1  0  0  0  0
 16 27  2  0  0  0  0
 17 18  2  0  0  0  0
 17 49  1  0  0  0  0
 18 19  1  0  0  0  0
 18 50  1  0  0  0  0
 19 20  2  0  0  0  0
 20 21  1  0  0  0  0
 20 27  1  0  0  0  0
 21 22  1  0  0  0  0
 21 51  1  0  0  0  0
 22 23  2  0  0  0  0
 22 24  1  0  0  0  0
 24 25  1  0  0  0  0
 24 26  1  0  0  0  0
 24 52  1  0  0  0  0
 25 26  1  0  0  0  0
 25 53  1  0  0  0  0
 25 54  1  0  0  0  0
 26 55  1  0  0  0  0
 26 56  1  0  0  0  0
 27 57  1  0  0  0  0
 28 29  1  0  0  0  0
 28 30  1  0  0  0  0
 30 58  1  0  0  0  0
 31 32  2  0  0  0  0
 31 59  1  0  0  0  0
 32 33  1  0  0  0  0
 32 37  1  0  0  0  0
 33 34  1  0  0  0  0
 33 35  1  0  0  0  0
 33 36  1  0  0  0  0
 37 60  1  0  0  0  0
M  END
$$$$
