CHEMBL4513608
 OpenBabel04072215383D

 49 52  0  0  0  0  0  0  0  0999 V2000
    3.9337    2.6226   -2.7837 C   0  0  0  0  0  0  0  0  0  0  0  0
    4.9708    2.2667   -3.6849 O   0  0  0  0  0  0  0  0  0  0  0  0
    5.1010    0.9573   -4.0440 C   0  0  0  0  0  0  0  0  0  0  0  0
    4.3040   -0.1102   -3.6409 C   0  0  0  0  0  0  0  0  0  0  0  0
    4.5555   -1.4252   -4.1191 C   0  0  0  0  0  0  0  0  0  0  0  0
    5.6299   -1.7199   -4.9947 C   0  0  0  0  0  0  0  0  0  0  0  0
    5.9543   -3.1494   -5.4791 C   0  0  0  0  0  0  0  0  0  0  0  0
    5.1112   -4.2380   -4.9547 N   0  0  0  0  0  0  0  0  0  0  0  0
    5.6292   -5.5583   -5.0657 C   0  0  0  0  0  0  0  0  0  0  0  0
    5.5825   -6.3303   -3.9073 C   0  0  0  0  0  0  0  0  0  0  0  0
    6.2406   -7.5473   -3.8455 C   0  0  0  0  0  0  0  0  0  0  0  0
    6.8305   -8.1045   -4.9509 C   0  0  0  0  0  0  0  0  0  0  0  0
    7.5549   -9.2108   -4.7027 N   0  0  0  0  0  0  0  0  0  0  0  0
    8.0178   -9.8720   -5.7752 C   0  0  0  0  0  0  0  0  0  0  0  0
    7.7209   -9.4787   -7.0666 C   0  0  0  0  0  0  0  0  0  0  0  0
    7.9615  -10.4702   -8.1168 C   0  0  0  0  0  0  0  0  0  0  0  0
    7.0677  -11.3688   -8.7347 C   0  0  0  0  0  0  0  0  0  0  0  0
    7.6895  -12.2778   -9.4924 N   0  0  0  0  0  0  0  0  0  0  0  0
    8.9895  -11.9654   -9.3552 N   0  0  0  0  0  0  0  0  0  0  0  0
    9.9793  -12.5482  -10.2302 C   0  0  0  0  0  0  0  0  0  0  0  0
    9.2100  -10.9930   -8.4200 C   0  0  0  0  0  0  0  0  0  0  0  0
    7.0867   -8.2894   -7.3211 N   0  0  0  0  0  0  0  0  0  0  0  0
    6.6844   -7.5238   -6.2318 C   0  0  0  0  0  0  0  0  0  0  0  0
    6.1063   -6.2060   -6.2396 C   0  0  0  0  0  0  0  0  0  0  0  0
    6.4353   -0.6208   -5.3781 C   0  0  0  0  0  0  0  0  0  0  0  0
    7.5965   -0.6493   -6.1049 O   0  0  0  0  0  0  0  0  0  0  0  0
    7.6412   -1.4636   -7.2641 C   0  0  0  0  0  0  0  0  0  0  0  0
    6.1554    0.6840   -4.9023 C   0  0  0  0  0  0  0  0  0  0  0  0
    3.9635    3.7112   -2.6583 H   0  0  0  0  0  0  0  0  0  0  0  0
    4.0954    2.1738   -1.7989 H   0  0  0  0  0  0  0  0  0  0  0  0
    2.9472    2.3663   -3.1817 H   0  0  0  0  0  0  0  0  0  0  0  0
    3.4734    0.0333   -2.9539 H   0  0  0  0  0  0  0  0  0  0  0  0
    3.8944   -2.2124   -3.7744 H   0  0  0  0  0  0  0  0  0  0  0  0
    6.9951   -3.3447   -5.1908 H   0  0  0  0  0  0  0  0  0  0  0  0
    5.8443   -3.1720   -6.5641 H   0  0  0  0  0  0  0  0  0  0  0  0
    4.9385   -4.0509   -3.9674 H   0  0  0  0  0  0  0  0  0  0  0  0
    5.0897   -5.9704   -3.0083 H   0  0  0  0  0  0  0  0  0  0  0  0
    6.2782   -8.0876   -2.9027 H   0  0  0  0  0  0  0  0  0  0  0  0
    8.5958  -10.7655   -5.5562 H   0  0  0  0  0  0  0  0  0  0  0  0
    5.9917  -11.4230   -8.6388 H   0  0  0  0  0  0  0  0  0  0  0  0
    9.5017  -13.2497  -10.9195 H   0  0  0  0  0  0  0  0  0  0  0  0
   10.7372  -13.0592   -9.6316 H   0  0  0  0  0  0  0  0  0  0  0  0
   10.4298  -11.7283  -10.7969 H   0  0  0  0  0  0  0  0  0  0  0  0
   10.2105  -10.7471   -8.0924 H   0  0  0  0  0  0  0  0  0  0  0  0
    6.0319   -5.6950   -7.1985 H   0  0  0  0  0  0  0  0  0  0  0  0
    8.3560   -1.0189   -7.9622 H   0  0  0  0  0  0  0  0  0  0  0  0
    6.6747   -1.5280   -7.7732 H   0  0  0  0  0  0  0  0  0  0  0  0
    8.0269   -2.4516   -7.0006 H   0  0  0  0  0  0  0  0  0  0  0  0
    6.7992    1.5079   -5.2136 H   0  0  0  0  0  0  0  0  0  0  0  0
  1  2  1  0  0  0  0
  1 29  1  0  0  0  0
  1 30  1  0  0  0  0
  1 31  1  0  0  0  0
  2  3  1  0  0  0  0
  3  4  1  0  0  0  0
  3 28  2  0  0  0  0
  4  5  2  0  0  0  0
  4 32  1  0  0  0  0
  5  6  1  0  0  0  0
  5 33  1  0  0  0  0
  6  7  1  0  0  0  0
  6 25  2  0  0  0  0
  7  8  1  0  0  0  0
  7 34  1  0  0  0  0
  7 35  1  0  0  0  0
  8  9  1  0  0  0  0
  8 36  1  0  0  0  0
  9 10  1  0  0  0  0
  9 24  2  0  0  0  0
 10 11  2  0  0  0  0
 10 37  1  0  0  0  0
 11 12  1  0  0  0  0
 11 38  1  0  0  0  0
 12 13  1  0  0  0  0
 12 23  2  0  0  0  0
 13 14  2  0  0  0  0
 14 15  1  0  0  0  0
 14 39  1  0  0  0  0
 15 16  1  0  0  0  0
 15 22  2  0  0  0  0
 16 17  1  0  0  0  0
 16 21  2  0  0  0  0
 17 18  2  0  0  0  0
 17 40  1  0  0  0  0
 18 19  1  0  0  0  0
 19 20  1  0  0  0  0
 19 21  1  0  0  0  0
 20 41  1  0  0  0  0
 20 42  1  0  0  0  0
 20 43  1  0  0  0  0
 21 44  1  0  0  0  0
 22 23  1  0  0  0  0
 23 24  1  0  0  0  0
 24 45  1  0  0  0  0
 25 26  1  0  0  0  0
 25 28  1  0  0  0  0
 26 27  1  0  0  0  0
 27 46  1  0  0  0  0
 27 47  1  0  0  0  0
 27 48  1  0  0  0  0
 28 49  1  0  0  0  0
M  END
$$$$
