CHEMBL2032029
 OpenBabel04072215363D

 66 70  0  0  1  0  0  0  0  0999 V2000
    3.4206    0.6978    0.5134 C   0  0  0  0  0  0  0  0  0  0  0  0
    4.6929    0.7999   -0.1229 O   0  0  0  0  0  0  0  0  0  0  0  0
    4.9320   -0.1485   -1.0804 C   0  0  0  0  0  0  0  0  0  0  0  0
    3.9418   -0.8015   -1.7967 C   0  0  0  0  0  0  0  0  0  0  0  0
    4.2941   -1.7757   -2.7237 C   0  0  0  0  0  0  0  0  0  0  0  0
    5.6467   -2.0540   -3.0331 C   0  0  0  0  0  0  0  0  0  0  0  0
    6.0735   -2.9411   -4.0507 C   0  0  0  0  0  0  0  0  0  0  0  0
    5.2378   -3.6558   -4.8875 O   0  0  0  0  0  0  0  0  0  0  0  0
    4.2202   -3.0236   -5.5619 C   0  0  0  0  0  0  0  0  0  0  0  0
    3.1420   -3.8093   -5.9616 C   0  0  0  0  0  0  0  0  0  0  0  0
    2.0194   -3.2124   -6.5525 C   0  0  0  0  0  0  0  0  0  0  0  0
    2.0034   -1.8337   -6.7304 C   0  0  0  0  0  0  0  0  0  0  0  0
    0.8507   -1.2358   -7.2671 N   0  0  0  0  0  0  0  0  0  0  0  0
    0.6865    0.1307   -7.3966 C   0  0  0  0  0  0  0  0  0  0  0  0
    1.4317    0.9926   -6.9403 O   0  0  0  0  0  0  0  0  0  0  0  0
   -0.5199    0.5461   -8.1488 C   0  0  0  0  0  0  0  0  0  0  0  0
   -0.8275    1.7715   -8.6237 C   0  0  0  0  0  0  0  0  0  0  0  0
    0.0109    3.0144   -8.5532 C   0  0  0  0  0  0  0  0  0  0  0  0
   -2.0584    1.7714   -9.2865 N   0  0  0  0  0  0  0  0  0  0  0  0
   -2.6801    2.8475  -10.0580 C   0  0  0  0  0  0  0  0  0  0  0  0
   -3.8014    3.5570   -9.2702 C   0  0  3  0  0  0  0  0  0  0  0  0
   -3.3070    4.2982   -8.0321 C   0  0  0  0  0  0  0  0  0  0  0  0
   -4.4849    4.4854  -10.1227 O   0  0  0  0  0  0  0  0  0  0  0  0
   -2.4676    0.4241   -9.4194 N   0  0  0  0  0  0  0  0  0  0  0  0
   -3.8133    0.1141   -9.6939 C   0  0  0  0  0  0  0  0  0  0  0  0
   -4.7803    0.0061   -8.6907 C   0  0  0  0  0  0  0  0  0  0  0  0
   -6.1048   -0.2887   -9.0319 C   0  0  0  0  0  0  0  0  0  0  0  0
   -6.4588   -0.5002  -10.3663 C   0  0  0  0  0  0  0  0  0  0  0  0
   -5.4928   -0.4100  -11.3660 C   0  0  0  0  0  0  0  0  0  0  0  0
   -4.1752   -0.0975  -11.0306 C   0  0  0  0  0  0  0  0  0  0  0  0
   -1.6647   -0.3210   -8.5418 C   0  0  0  0  0  0  0  0  0  0  0  0
   -1.7926   -1.4761   -8.1587 O   0  0  0  0  0  0  0  0  0  0  0  0
    3.0692   -1.0795   -6.4106 N   0  0  0  0  0  0  0  0  0  0  0  0
    4.1519   -1.6725   -5.8555 C   0  0  0  0  0  0  0  0  0  0  0  0
    7.4288   -3.2092   -4.2073 C   0  0  0  0  0  0  0  0  0  0  0  0
    8.3228   -2.5414   -3.3973 C   0  0  0  0  0  0  0  0  0  0  0  0
    7.9600   -1.6340   -2.4697 N   0  0  0  0  0  0  0  0  0  0  0  0
    6.6495   -1.3898   -2.2908 C   0  0  0  0  0  0  0  0  0  0  0  0
    6.2719   -0.4487   -1.3377 C   0  0  0  0  0  0  0  0  0  0  0  0
    3.4037    1.3877    1.3588 H   0  0  0  0  0  0  0  0  0  0  0  0
    3.2574   -0.3157    0.9000 H   0  0  0  0  0  0  0  0  0  0  0  0
    2.6115    0.9885   -0.1671 H   0  0  0  0  0  0  0  0  0  0  0  0
    2.8893   -0.5705   -1.6760 H   0  0  0  0  0  0  0  0  0  0  0  0
    3.4828   -2.2958   -3.2240 H   0  0  0  0  0  0  0  0  0  0  0  0
    3.1601   -4.8837   -5.7898 H   0  0  0  0  0  0  0  0  0  0  0  0
    1.1736   -3.8288   -6.8381 H   0  0  0  0  0  0  0  0  0  0  0  0
    0.0881   -1.8422   -7.5533 H   0  0  0  0  0  0  0  0  0  0  0  0
    1.0258    2.8395   -8.1949 H   0  0  0  0  0  0  0  0  0  0  0  0
   -0.4465    3.7497   -7.8863 H   0  0  0  0  0  0  0  0  0  0  0  0
    0.1242    3.4661   -9.5436 H   0  0  0  0  0  0  0  0  0  0  0  0
   -3.0839    2.4692  -11.0044 H   0  0  0  0  0  0  0  0  0  0  0  0
   -1.9374    3.5909  -10.3709 H   0  0  0  0  0  0  0  0  0  0  0  0
   -4.5484    2.8240   -8.9556 H   0  0  0  0  0  0  0  0  0  0  0  0
   -2.7234    5.1848   -8.3050 H   0  0  0  0  0  0  0  0  0  0  0  0
   -2.7025    3.6605   -7.3831 H   0  0  0  0  0  0  0  0  0  0  0  0
   -4.1589    4.6525   -7.4426 H   0  0  0  0  0  0  0  0  0  0  0  0
   -3.9822    5.3177  -10.1436 H   0  0  0  0  0  0  0  0  0  0  0  0
   -4.5215    0.1751   -7.6496 H   0  0  0  0  0  0  0  0  0  0  0  0
   -6.8663   -0.3533   -8.2582 H   0  0  0  0  0  0  0  0  0  0  0  0
   -7.4877   -0.7375  -10.6269 H   0  0  0  0  0  0  0  0  0  0  0  0
   -5.7634   -0.5842  -12.4044 H   0  0  0  0  0  0  0  0  0  0  0  0
   -3.4248   -0.0322  -11.8143 H   0  0  0  0  0  0  0  0  0  0  0  0
    4.9515   -0.9808   -5.6092 H   0  0  0  0  0  0  0  0  0  0  0  0
    7.7805   -3.9197   -4.9466 H   0  0  0  0  0  0  0  0  0  0  0  0
    9.3918   -2.7182   -3.4736 H   0  0  0  0  0  0  0  0  0  0  0  0
    7.0473    0.0630   -0.7708 H   0  0  0  0  0  0  0  0  0  0  0  0
  1  2  1  0  0  0  0
  1 40  1  0  0  0  0
  1 41  1  0  0  0  0
  1 42  1  0  0  0  0
  2  3  1  0  0  0  0
  3  4  1  0  0  0  0
  3 39  2  0  0  0  0
  4  5  2  0  0  0  0
  4 43  1  0  0  0  0
  5  6  1  0  0  0  0
  5 44  1  0  0  0  0
  6  7  1  0  0  0  0
  6 38  2  0  0  0  0
  7  8  1  0  0  0  0
  7 35  2  0  0  0  0
  8  9  1  0  0  0  0
  9 10  1  0  0  0  0
  9 34  2  0  0  0  0
 10 11  2  0  0  0  0
 10 45  1  0  0  0  0
 11 12  1  0  0  0  0
 11 46  1  0  0  0  0
 12 13  1  0  0  0  0
 12 33  2  0  0  0  0
 13 14  1  0  0  0  0
 13 47  1  0  0  0  0
 14 15  2  0  0  0  0
 14 16  1  0  0  0  0
 16 17  2  0  0  0  0
 16 31  1  0  0  0  0
 17 18  1  0  0  0  0
 17 19  1  0  0  0  0
 18 48  1  0  0  0  0
 18 49  1  0  0  0  0
 18 50  1  0  0  0  0
 19 20  1  0  0  0  0
 19 24  1  0  0  0  0
 20 21  1  0  0  0  0
 20 51  1  0  0  0  0
 20 52  1  0  0  0  0
 21 22  1  0  0  0  0
 21 23  1  0  0  0  0
 21 53  1  0  0  0  0
 22 54  1  0  0  0  0
 22 55  1  0  0  0  0
 22 56  1  0  0  0  0
 23 57  1  0  0  0  0
 24 25  1  0  0  0  0
 24 31  1  0  0  0  0
 25 26  1  0  0  0  0
 25 30  2  0  0  0  0
 26 27  2  0  0  0  0
 26 58  1  0  0  0  0
 27 28  1  0  0  0  0
 27 59  1  0  0  0  0
 28 29  2  0  0  0  0
 28 60  1  0  0  0  0
 29 30  1  0  0  0  0
 29 61  1  0  0  0  0
 30 62  1  0  0  0  0
 31 32  2  0  0  0  0
 33 34  1  0  0  0  0
 34 63  1  0  0  0  0
 35 36  1  0  0  0  0
 35 64  1  0  0  0  0
 36 37  2  0  0  0  0
 36 65  1  0  0  0  0
 37 38  1  0  0  0  0
 38 39  1  0  0  0  0
 39 66  1  0  0  0  0
M  END
$$$$
