CHEMBL2386814
 OpenBabel04072215363D

 63 67  0  0  0  0  0  0  0  0999 V2000
    2.4048   -0.4808   -0.1905 C   0  0  0  0  0  0  0  0  0  0  0  0
    1.0901    0.1504   -0.2808 N   0  0  0  0  0  0  0  0  0  0  0  0
    0.0730   -0.8271   -0.7356 C   0  0  0  0  0  0  0  0  0  0  0  0
   -1.3579   -0.2328   -0.7810 C   0  0  0  0  0  0  0  0  0  0  0  0
   -1.6898    0.3091    0.5471 N   0  0  0  0  0  0  0  0  0  0  0  0
   -2.9714    0.2974    1.0537 C   0  0  0  0  0  0  0  0  0  0  0  0
   -3.1729    0.3319    2.4442 C   0  0  0  0  0  0  0  0  0  0  0  0
   -4.4457    0.2608    3.0186 C   0  0  0  0  0  0  0  0  0  0  0  0
   -5.5617    0.1472    2.1937 C   0  0  0  0  0  0  0  0  0  0  0  0
   -6.9400    0.0852    2.7288 C   0  0  0  0  0  0  0  0  0  0  0  0
   -7.8893    0.4228    2.0392 O   0  0  0  0  0  0  0  0  0  0  0  0
   -7.1211   -0.3846    4.0825 N   0  0  0  0  0  0  0  0  0  0  0  0
   -8.3782   -0.5079    4.6676 C   0  0  0  0  0  0  0  0  0  0  0  0
   -9.6048   -0.4517    4.0599 C   0  0  0  0  0  0  0  0  0  0  0  0
  -10.5808   -0.6489    5.0783 C   0  0  0  0  0  0  0  0  0  0  0  0
  -12.0328   -0.6960    4.8866 C   0  0  0  0  0  0  0  0  0  0  0  0
  -12.5554   -0.6731    3.5897 C   0  0  0  0  0  0  0  0  0  0  0  0
  -13.9296   -0.7184    3.3605 C   0  0  0  0  0  0  0  0  0  0  0  0
  -14.8319   -0.7942    4.4157 C   0  0  0  0  0  0  0  0  0  0  0  0
  -16.2331   -0.8551    4.2200 N   0  0  0  0  0  0  0  0  0  0  0  0
  -16.8836   -0.8707    2.9980 C   0  0  0  0  0  0  0  0  0  0  0  0
  -16.3533   -0.8430    1.8925 O   0  0  0  0  0  0  0  0  0  0  0  0
  -18.2596   -0.9355    3.1297 N   0  0  0  0  0  0  0  0  0  0  0  0
  -19.0960   -0.8743    1.9622 C   0  0  0  0  0  0  0  0  0  0  0  0
  -20.5876   -1.0047    2.0720 C   0  0  0  0  0  0  0  0  0  0  0  0
  -19.7857   -2.1032    1.4373 C   0  0  0  0  0  0  0  0  0  0  0  0
  -14.3240   -0.8161    5.7220 C   0  0  0  0  0  0  0  0  0  0  0  0
  -12.9347   -0.7682    5.9553 C   0  0  0  0  0  0  0  0  0  0  0  0
   -9.9743   -0.8085    6.2672 N   0  0  0  0  0  0  0  0  0  0  0  0
   -8.6587   -0.7404    5.9878 N   0  0  0  0  0  0  0  0  0  0  0  0
   -5.3908    0.1243    0.8042 C   0  0  0  0  0  0  0  0  0  0  0  0
   -4.1089    0.1902    0.2473 C   0  0  0  0  0  0  0  0  0  0  0  0
   -0.7236    1.3255    1.0067 C   0  0  0  0  0  0  0  0  0  0  0  0
    0.6915    0.7055    1.0330 C   0  0  0  0  0  0  0  0  0  0  0  0
    2.7146   -0.8613   -1.1696 H   0  0  0  0  0  0  0  0  0  0  0  0
    2.4194   -1.3122    0.5238 H   0  0  0  0  0  0  0  0  0  0  0  0
    3.1590    0.2513    0.1182 H   0  0  0  0  0  0  0  0  0  0  0  0
    0.0630   -1.6963   -0.0627 H   0  0  0  0  0  0  0  0  0  0  0  0
    0.3306   -1.1899   -1.7372 H   0  0  0  0  0  0  0  0  0  0  0  0
   -2.0445   -1.0366   -1.0709 H   0  0  0  0  0  0  0  0  0  0  0  0
   -1.4192    0.5580   -1.5396 H   0  0  0  0  0  0  0  0  0  0  0  0
   -2.3115    0.3797    3.1077 H   0  0  0  0  0  0  0  0  0  0  0  0
   -4.5181    0.3201    4.0983 H   0  0  0  0  0  0  0  0  0  0  0  0
   -6.3172   -0.6521    4.6310 H   0  0  0  0  0  0  0  0  0  0  0  0
   -9.8010   -0.3097    3.0085 H   0  0  0  0  0  0  0  0  0  0  0  0
  -11.9191   -0.6245    2.7111 H   0  0  0  0  0  0  0  0  0  0  0  0
  -14.2457   -0.6961    2.3244 H   0  0  0  0  0  0  0  0  0  0  0  0
  -16.8069   -0.9356    5.0457 H   0  0  0  0  0  0  0  0  0  0  0  0
  -18.6665   -0.6640    4.0090 H   0  0  0  0  0  0  0  0  0  0  0  0
  -18.7247   -0.1789    1.2093 H   0  0  0  0  0  0  0  0  0  0  0  0
  -21.1904   -0.3777    1.4248 H   0  0  0  0  0  0  0  0  0  0  0  0
  -21.0270   -1.1998    3.0415 H   0  0  0  0  0  0  0  0  0  0  0  0
  -19.8452   -2.2232    0.3608 H   0  0  0  0  0  0  0  0  0  0  0  0
  -19.6687   -3.0343    1.9781 H   0  0  0  0  0  0  0  0  0  0  0  0
  -14.9910   -0.8726    6.5786 H   0  0  0  0  0  0  0  0  0  0  0  0
  -12.5671   -0.7882    6.9801 H   0  0  0  0  0  0  0  0  0  0  0  0
   -8.0102   -0.8378    6.7601 H   0  0  0  0  0  0  0  0  0  0  0  0
   -6.2504    0.0555    0.1381 H   0  0  0  0  0  0  0  0  0  0  0  0
   -4.0199    0.1791   -0.8367 H   0  0  0  0  0  0  0  0  0  0  0  0
   -0.9545    1.7134    2.0043 H   0  0  0  0  0  0  0  0  0  0  0  0
   -0.7444    2.1842    0.3224 H   0  0  0  0  0  0  0  0  0  0  0  0
    0.7122   -0.0820    1.7993 H   0  0  0  0  0  0  0  0  0  0  0  0
    1.4039    1.4809    1.3372 H   0  0  0  0  0  0  0  0  0  0  0  0
  1  2  1  0  0  0  0
  1 35  1  0  0  0  0
  1 36  1  0  0  0  0
  1 37  1  0  0  0  0
  2  3  1  0  0  0  0
  2 34  1  0  0  0  0
  3  4  1  0  0  0  0
  3 38  1  0  0  0  0
  3 39  1  0  0  0  0
  4  5  1  0  0  0  0
  4 40  1  0  0  0  0
  4 41  1  0  0  0  0
  5  6  1  0  0  0  0
  5 33  1  0  0  0  0
  6  7  1  0  0  0  0
  6 32  2  0  0  0  0
  7  8  2  0  0  0  0
  7 42  1  0  0  0  0
  8  9  1  0  0  0  0
  8 43  1  0  0  0  0
  9 10  1  0  0  0  0
  9 31  2  0  0  0  0
 10 11  2  0  0  0  0
 10 12  1  0  0  0  0
 12 13  1  0  0  0  0
 12 44  1  0  0  0  0
 13 14  2  0  0  0  0
 13 30  1  0  0  0  0
 14 15  1  0  0  0  0
 14 45  1  0  0  0  0
 15 16  1  0  0  0  0
 15 29  2  0  0  0  0
 16 17  1  0  0  0  0
 16 28  2  0  0  0  0
 17 18  2  0  0  0  0
 17 46  1  0  0  0  0
 18 19  1  0  0  0  0
 18 47  1  0  0  0  0
 19 20  1  0  0  0  0
 19 27  2  0  0  0  0
 20 21  1  0  0  0  0
 20 48  1  0  0  0  0
 21 22  2  0  0  0  0
 21 23  1  0  0  0  0
 23 24  1  0  0  0  0
 23 49  1  0  0  0  0
 24 25  1  0  0  0  0
 24 26  1  0  0  0  0
 24 50  1  0  0  0  0
 25 26  1  0  0  0  0
 25 51  1  0  0  0  0
 25 52  1  0  0  0  0
 26 53  1  0  0  0  0
 26 54  1  0  0  0  0
 27 28  1  0  0  0  0
 27 55  1  0  0  0  0
 28 56  1  0  0  0  0
 29 30  1  0  0  0  0
 30 57  1  0  0  0  0
 31 32  1  0  0  0  0
 31 58  1  0  0  0  0
 32 59  1  0  0  0  0
 33 34  1  0  0  0  0
 33 60  1  0  0  0  0
 33 61  1  0  0  0  0
 34 62  1  0  0  0  0
 34 63  1  0  0  0  0
M  END
$$$$
