CHEMBL2205426
 OpenBabel04072215363D

 53 56  0  0  0  0  0  0  0  0999 V2000
    2.3068   -1.0277    0.2992 C   0  0  0  0  0  0  0  0  0  0  0  0
    2.2082    0.4361   -0.1651 C   0  0  0  0  0  0  0  0  0  0  0  0
    2.6487    0.5624   -1.6271 C   0  0  0  0  0  0  0  0  0  0  0  0
    0.7410    0.8900   -0.0572 C   0  0  0  0  0  0  0  0  0  0  0  0
    3.0170    1.2948    0.7387 N   0  0  0  0  0  0  0  0  0  0  0  0
    4.3278    1.1385    0.8777 C   0  0  0  0  0  0  0  0  0  0  0  0
    5.4842    1.1710    0.1371 C   0  0  0  0  0  0  0  0  0  0  0  0
    5.8221    1.4441   -1.1086 N   0  0  0  0  0  0  0  0  0  0  0  0
    7.0573    1.3368   -1.7655 C   0  0  0  0  0  0  0  0  0  0  0  0
    8.0111    0.4154   -1.3919 C   0  0  0  0  0  0  0  0  0  0  0  0
    9.2005    0.4561   -2.0629 C   0  0  0  0  0  0  0  0  0  0  0  0
    9.4492    1.3358   -3.0353 N   0  0  0  0  0  0  0  0  0  0  0  0
    8.4666    2.1889   -3.3679 C   0  0  0  0  0  0  0  0  0  0  0  0
    8.7117    3.1336   -4.3630 N   0  0  0  0  0  0  0  0  0  0  0  0
    9.9362    3.7572   -4.6482 C   0  0  0  0  0  0  0  0  0  0  0  0
   10.1834    4.2451   -5.9307 C   0  0  0  0  0  0  0  0  0  0  0  0
   11.4480    4.7475   -6.2740 C   0  0  0  0  0  0  0  0  0  0  0  0
   12.4998    4.8091   -5.3417 C   0  0  0  0  0  0  0  0  0  0  0  0
   13.8545    5.2766   -5.7171 C   0  0  0  0  0  0  0  0  0  0  0  0
   14.0523    6.2406   -6.7137 C   0  0  0  0  0  0  0  0  0  0  0  0
   15.3437    6.6215   -7.0504 C   0  0  0  0  0  0  0  0  0  0  0  0
   16.4512    6.1279   -6.4631 N   0  0  0  0  0  0  0  0  0  0  0  0
   16.2568    5.2079   -5.4989 C   0  0  0  0  0  0  0  0  0  0  0  0
   15.0059    4.7574   -5.1040 C   0  0  0  0  0  0  0  0  0  0  0  0
   12.2164    4.3730   -4.0393 C   0  0  0  0  0  0  0  0  0  0  0  0
   10.9659    3.8452   -3.7059 C   0  0  0  0  0  0  0  0  0  0  0  0
    7.2547    2.1890   -2.7893 N   0  0  0  0  0  0  0  0  0  0  0  0
    6.3009    0.7727    1.3130 C   0  0  0  0  0  0  0  0  0  0  0  0
    7.4349    0.4698    1.5981 O   0  0  0  0  0  0  0  0  0  0  0  0
    5.0740    0.8611    2.1292 C   0  0  0  0  0  0  0  0  0  0  0  0
    4.8398    0.6692    3.2967 O   0  0  0  0  0  0  0  0  0  0  0  0
    1.6679   -1.6798   -0.3061 H   0  0  0  0  0  0  0  0  0  0  0  0
    1.9996   -1.1309    1.3466 H   0  0  0  0  0  0  0  0  0  0  0  0
    3.3319   -1.4076    0.2213 H   0  0  0  0  0  0  0  0  0  0  0  0
    1.9623    0.0256   -2.2915 H   0  0  0  0  0  0  0  0  0  0  0  0
    3.6396    0.1316   -1.7932 H   0  0  0  0  0  0  0  0  0  0  0  0
    2.6763    1.6106   -1.9453 H   0  0  0  0  0  0  0  0  0  0  0  0
    0.0742    0.1985   -0.5851 H   0  0  0  0  0  0  0  0  0  0  0  0
    0.6015    1.8869   -0.4904 H   0  0  0  0  0  0  0  0  0  0  0  0
    0.4096    0.9375    0.9867 H   0  0  0  0  0  0  0  0  0  0  0  0
    2.5050    1.3931    1.6235 H   0  0  0  0  0  0  0  0  0  0  0  0
    5.2316    2.0654   -1.6607 H   0  0  0  0  0  0  0  0  0  0  0  0
    7.8551   -0.3288   -0.6260 H   0  0  0  0  0  0  0  0  0  0  0  0
   10.0094   -0.2265   -1.8281 H   0  0  0  0  0  0  0  0  0  0  0  0
    7.8813    3.6553   -4.5964 H   0  0  0  0  0  0  0  0  0  0  0  0
    9.4148    4.1817   -6.6962 H   0  0  0  0  0  0  0  0  0  0  0  0
   11.6057    5.0505   -7.3064 H   0  0  0  0  0  0  0  0  0  0  0  0
   13.2190    6.7044   -7.2302 H   0  0  0  0  0  0  0  0  0  0  0  0
   15.5207    7.3573   -7.8289 H   0  0  0  0  0  0  0  0  0  0  0  0
   17.1601    4.8211   -5.0361 H   0  0  0  0  0  0  0  0  0  0  0  0
   14.9485    3.9941   -4.3349 H   0  0  0  0  0  0  0  0  0  0  0  0
   12.9683    4.4176   -3.2552 H   0  0  0  0  0  0  0  0  0  0  0  0
   10.8133    3.4956   -2.6873 H   0  0  0  0  0  0  0  0  0  0  0  0
  1  2  1  0  0  0  0
  1 32  1  0  0  0  0
  1 33  1  0  0  0  0
  1 34  1  0  0  0  0
  2  3  1  0  0  0  0
  2  4  1  0  0  0  0
  2  5  1  0  0  0  0
  3 35  1  0  0  0  0
  3 36  1  0  0  0  0
  3 37  1  0  0  0  0
  4 38  1  0  0  0  0
  4 39  1  0  0  0  0
  4 40  1  0  0  0  0
  5  6  1  0  0  0  0
  5 41  1  0  0  0  0
  6  7  2  0  0  0  0
  6 30  1  0  0  0  0
  7  8  1  0  0  0  0
  7 28  1  0  0  0  0
  8  9  1  0  0  0  0
  8 42  1  0  0  0  0
  9 10  1  0  0  0  0
  9 27  2  0  0  0  0
 10 11  2  0  0  0  0
 10 43  1  0  0  0  0
 11 12  1  0  0  0  0
 11 44  1  0  0  0  0
 12 13  2  0  0  0  0
 13 14  1  0  0  0  0
 13 27  1  0  0  0  0
 14 15  1  0  0  0  0
 14 45  1  0  0  0  0
 15 16  1  0  0  0  0
 15 26  2  0  0  0  0
 16 17  2  0  0  0  0
 16 46  1  0  0  0  0
 17 18  1  0  0  0  0
 17 47  1  0  0  0  0
 18 19  1  0  0  0  0
 18 25  2  0  0  0  0
 19 20  1  0  0  0  0
 19 24  2  0  0  0  0
 20 21  2  0  0  0  0
 20 48  1  0  0  0  0
 21 22  1  0  0  0  0
 21 49  1  0  0  0  0
 22 23  2  0  0  0  0
 23 24  1  0  0  0  0
 23 50  1  0  0  0  0
 24 51  1  0  0  0  0
 25 26  1  0  0  0  0
 25 52  1  0  0  0  0
 26 53  1  0  0  0  0
 28 29  2  0  0  0  0
 28 30  1  0  0  0  0
 30 31  2  0  0  0  0
M  END
$$$$
