CHEMBL3690391
 OpenBabel04072215373D

 43 45  0  0  0  0  0  0  0  0999 V2000
    2.4919    1.5839    0.0824 O   0  0  0  0  0  0  0  0  0  0  0  0
    2.2088    0.4651    0.4874 C   0  0  0  0  0  0  0  0  0  0  0  0
    0.9100   -0.0008    0.4564 N   0  0  0  0  0  0  0  0  0  0  0  0
   -0.1581    0.9347    0.0829 C   0  0  0  0  0  0  0  0  0  0  0  0
   -0.6797    1.8087    1.2321 C   0  0  0  0  0  0  0  0  0  0  0  0
   -0.0899    1.4942    2.4099 F   0  0  0  0  0  0  0  0  0  0  0  0
   -0.4943    3.1242    1.0061 F   0  0  0  0  0  0  0  0  0  0  0  0
   -2.0106    1.6064    1.3988 F   0  0  0  0  0  0  0  0  0  0  0  0
    3.0684   -0.4758    1.0003 N   0  0  0  0  0  0  0  0  0  0  0  0
    4.4646   -0.3538    1.1731 C   0  0  0  0  0  0  0  0  0  0  0  0
    5.2018    0.7639    0.7918 C   0  0  0  0  0  0  0  0  0  0  0  0
    6.5886    0.7802    0.9468 C   0  0  0  0  0  0  0  0  0  0  0  0
    7.2512   -0.3213    1.4892 C   0  0  0  0  0  0  0  0  0  0  0  0
    6.5340   -1.4453    1.9150 C   0  0  0  0  0  0  0  0  0  0  0  0
    7.2372   -2.5599    2.5643 C   0  0  0  0  0  0  0  0  0  0  0  0
    8.3619   -2.5325    3.3784 C   0  0  0  0  0  0  0  0  0  0  0  0
    8.6774   -3.7679    3.8755 N   0  0  0  0  0  0  0  0  0  0  0  0
    7.7702   -4.5768    3.3782 C   0  0  0  0  0  0  0  0  0  0  0  0
    7.5666   -5.9740    3.5727 C   0  0  0  0  0  0  0  0  0  0  0  0
    6.5634   -6.6065    2.9327 C   0  0  0  0  0  0  0  0  0  0  0  0
    6.3362   -7.9992    3.1115 C   0  0  0  0  0  0  0  0  0  0  0  0
    6.1196   -9.1700    3.2458 C   0  0  0  0  0  0  0  0  0  0  0  0
    5.8496  -10.5984    3.4111 C   0  0  0  0  0  0  0  0  0  0  0  0
    5.8137  -11.2361    2.1431 O   0  0  0  0  0  0  0  0  0  0  0  0
    5.6918   -5.8865    2.0156 C   0  0  0  0  0  0  0  0  0  0  0  0
    5.8895   -4.5747    1.8161 C   0  0  0  0  0  0  0  0  0  0  0  0
    6.8931   -3.9066    2.5220 N   0  0  0  0  0  0  0  0  0  0  0  0
    5.1363   -1.4335    1.7636 C   0  0  0  0  0  0  0  0  0  0  0  0
    0.6710   -0.6737    1.1708 H   0  0  0  0  0  0  0  0  0  0  0  0
   -0.9737    0.3243   -0.3170 H   0  0  0  0  0  0  0  0  0  0  0  0
    0.1959    1.5765   -0.7321 H   0  0  0  0  0  0  0  0  0  0  0  0
    2.6647   -1.3745    1.2153 H   0  0  0  0  0  0  0  0  0  0  0  0
    4.7301    1.6431    0.3653 H   0  0  0  0  0  0  0  0  0  0  0  0
    7.1517    1.6591    0.6425 H   0  0  0  0  0  0  0  0  0  0  0  0
    8.3341   -0.2805    1.5841 H   0  0  0  0  0  0  0  0  0  0  0  0
    8.9463   -1.6648    3.6590 H   0  0  0  0  0  0  0  0  0  0  0  0
    8.2398   -6.4951    4.2465 H   0  0  0  0  0  0  0  0  0  0  0  0
    4.8906  -10.7634    3.9083 H   0  0  0  0  0  0  0  0  0  0  0  0
    6.6317  -11.0736    4.0097 H   0  0  0  0  0  0  0  0  0  0  0  0
    5.1291  -10.7857    1.6208 H   0  0  0  0  0  0  0  0  0  0  0  0
    4.9040   -6.4236    1.4982 H   0  0  0  0  0  0  0  0  0  0  0  0
    5.2893   -4.0146    1.1140 H   0  0  0  0  0  0  0  0  0  0  0  0
    4.5460   -2.2611    2.1439 H   0  0  0  0  0  0  0  0  0  0  0  0
  1  2  2  0  0  0  0
  2  3  1  0  0  0  0
  2  9  1  0  0  0  0
  3  4  1  0  0  0  0
  3 29  1  0  0  0  0
  4  5  1  0  0  0  0
  4 30  1  0  0  0  0
  4 31  1  0  0  0  0
  5  6  1  0  0  0  0
  5  7  1  0  0  0  0
  5  8  1  0  0  0  0
  9 10  1  0  0  0  0
  9 32  1  0  0  0  0
 10 11  1  0  0  0  0
 10 28  2  0  0  0  0
 11 12  2  0  0  0  0
 11 33  1  0  0  0  0
 12 13  1  0  0  0  0
 12 34  1  0  0  0  0
 13 14  2  0  0  0  0
 13 35  1  0  0  0  0
 14 15  1  0  0  0  0
 14 28  1  0  0  0  0
 15 16  2  0  0  0  0
 15 27  1  0  0  0  0
 16 17  1  0  0  0  0
 16 36  1  0  0  0  0
 17 18  2  0  0  0  0
 18 19  1  0  0  0  0
 18 27  1  0  0  0  0
 19 20  2  0  0  0  0
 19 37  1  0  0  0  0
 20 21  1  0  0  0  0
 20 25  1  0  0  0  0
 21 22  3  0  0  0  0
 22 23  1  0  0  0  0
 23 24  1  0  0  0  0
 23 38  1  0  0  0  0
 23 39  1  0  0  0  0
 24 40  1  0  0  0  0
 25 26  2  0  0  0  0
 25 41  1  0  0  0  0
 26 27  1  0  0  0  0
 26 42  1  0  0  0  0
 28 43  1  0  0  0  0
M  END
$$$$
