CHEMBL2004025
 OpenBabel04072215363D

 52 53  0  0  0  0  0  0  0  0999 V2000
    3.1140    0.9687    0.8461 C   0  0  0  0  0  0  0  0  0  0  0  0
    2.4370    0.0207    0.0314 O   0  0  0  0  0  0  0  0  0  0  0  0
    2.9091    0.0449   -1.3194 C   0  0  0  0  0  0  0  0  0  0  0  0
    4.2306   -0.4682   -1.3888 O   0  0  0  0  0  0  0  0  0  0  0  0
    4.9263   -0.4450   -2.5717 C   0  0  0  0  0  0  0  0  0  0  0  0
    4.5761    0.4060   -3.6284 C   0  0  0  0  0  0  0  0  0  0  0  0
    5.3388    0.4359   -4.7853 C   0  0  0  0  0  0  0  0  0  0  0  0
    6.4998   -0.3292   -4.8701 C   0  0  0  0  0  0  0  0  0  0  0  0
    6.8940   -1.1558   -3.8067 C   0  0  0  0  0  0  0  0  0  0  0  0
    8.0659   -1.8719   -3.8223 O   0  0  0  0  0  0  0  0  0  0  0  0
    9.1285   -1.4189   -4.6551 C   0  0  0  0  0  0  0  0  0  0  0  0
    9.6453   -0.1448   -4.2750 O   0  0  0  0  0  0  0  0  0  0  0  0
   10.1371   -0.1640   -2.9400 C   0  0  0  0  0  0  0  0  0  0  0  0
    6.0810   -1.2908   -2.6509 C   0  0  0  0  0  0  0  0  0  0  0  0
    6.4076   -2.2621   -1.5385 C   0  0  0  0  0  0  0  0  0  0  0  0
    6.2965   -1.8233   -0.1948 C   0  0  0  0  0  0  0  0  0  0  0  0
    6.4406   -2.6763    0.9048 C   0  0  0  0  0  0  0  0  0  0  0  0
    6.7948   -3.9972    0.7030 C   0  0  0  0  0  0  0  0  0  0  0  0
    7.0102   -4.8421    1.8288 N   0  0  0  0  0  0  0  0  0  0  0  0
    5.7460   -5.8396    2.3412 S   0  0  0  0  0  0  0  0  0  0  0  0
    5.0451   -4.8737    3.6606 C   0  0  0  0  0  0  0  0  0  0  0  0
    4.7717   -5.9948    1.2858 O   0  0  0  0  0  0  0  0  0  0  0  0
    6.3939   -6.9872    2.9417 O   0  0  0  0  0  0  0  0  0  0  0  0
    6.9626   -4.4721   -0.5902 C   0  0  0  0  0  0  0  0  0  0  0  0
    6.7795   -3.6188   -1.7088 C   0  0  0  0  0  0  0  0  0  0  0  0
    6.9885   -4.2716   -3.0320 C   0  0  0  0  0  0  0  0  0  0  0  0
    6.2549   -4.1876   -4.0019 O   0  0  0  0  0  0  0  0  0  0  0  0
    8.1580   -4.9728   -2.9664 O   0  0  0  0  0  0  0  0  0  0  0  0
    8.5051   -5.6837   -4.1549 C   0  0  0  0  0  0  0  0  0  0  0  0
    2.7136    0.8985    1.8615 H   0  0  0  0  0  0  0  0  0  0  0  0
    2.9423    1.9846    0.4769 H   0  0  0  0  0  0  0  0  0  0  0  0
    4.1879    0.7622    0.8880 H   0  0  0  0  0  0  0  0  0  0  0  0
    2.8284    1.0712   -1.6907 H   0  0  0  0  0  0  0  0  0  0  0  0
    2.2513   -0.6072   -1.9034 H   0  0  0  0  0  0  0  0  0  0  0  0
    3.7169    1.0668   -3.5836 H   0  0  0  0  0  0  0  0  0  0  0  0
    5.0527    1.0775   -5.6150 H   0  0  0  0  0  0  0  0  0  0  0  0
    7.0728   -0.2631   -5.7885 H   0  0  0  0  0  0  0  0  0  0  0  0
    8.8346   -1.3978   -5.7102 H   0  0  0  0  0  0  0  0  0  0  0  0
    9.9337   -2.1603   -4.5930 H   0  0  0  0  0  0  0  0  0  0  0  0
   10.5355    0.8261   -2.7057 H   0  0  0  0  0  0  0  0  0  0  0  0
   10.9393   -0.9009   -2.8352 H   0  0  0  0  0  0  0  0  0  0  0  0
    9.3344   -0.3826   -2.2292 H   0  0  0  0  0  0  0  0  0  0  0  0
    6.0612   -0.7812    0.0195 H   0  0  0  0  0  0  0  0  0  0  0  0
    6.2872   -2.2867    1.9062 H   0  0  0  0  0  0  0  0  0  0  0  0
    7.8683   -5.3960    1.7898 H   0  0  0  0  0  0  0  0  0  0  0  0
    4.5838   -3.9787    3.2418 H   0  0  0  0  0  0  0  0  0  0  0  0
    5.8342   -4.6153    4.3694 H   0  0  0  0  0  0  0  0  0  0  0  0
    4.2883   -5.4842    4.1593 H   0  0  0  0  0  0  0  0  0  0  0  0
    7.2235   -5.5181   -0.7449 H   0  0  0  0  0  0  0  0  0  0  0  0
    9.3838   -6.2981   -3.9351 H   0  0  0  0  0  0  0  0  0  0  0  0
    8.7657   -4.9816   -4.9520 H   0  0  0  0  0  0  0  0  0  0  0  0
    7.6939   -6.3479   -4.4677 H   0  0  0  0  0  0  0  0  0  0  0  0
  1  2  1  0  0  0  0
  1 30  1  0  0  0  0
  1 31  1  0  0  0  0
  1 32  1  0  0  0  0
  2  3  1  0  0  0  0
  3  4  1  0  0  0  0
  3 33  1  0  0  0  0
  3 34  1  0  0  0  0
  4  5  1  0  0  0  0
  5  6  1  0  0  0  0
  5 14  2  0  0  0  0
  6  7  2  0  0  0  0
  6 35  1  0  0  0  0
  7  8  1  0  0  0  0
  7 36  1  0  0  0  0
  8  9  2  0  0  0  0
  8 37  1  0  0  0  0
  9 10  1  0  0  0  0
  9 14  1  0  0  0  0
 10 11  1  0  0  0  0
 11 12  1  0  0  0  0
 11 38  1  0  0  0  0
 11 39  1  0  0  0  0
 12 13  1  0  0  0  0
 13 40  1  0  0  0  0
 13 41  1  0  0  0  0
 13 42  1  0  0  0  0
 14 15  1  0  0  0  0
 15 16  1  0  0  0  0
 15 25  2  0  0  0  0
 16 17  2  0  0  0  0
 16 43  1  0  0  0  0
 17 18  1  0  0  0  0
 17 44  1  0  0  0  0
 18 19  1  0  0  0  0
 18 24  2  0  0  0  0
 19 20  1  0  0  0  0
 19 45  1  0  0  0  0
 20 21  1  0  0  0  0
 20 22  2  0  0  0  0
 20 23  2  0  0  0  0
 21 46  1  0  0  0  0
 21 47  1  0  0  0  0
 21 48  1  0  0  0  0
 24 25  1  0  0  0  0
 24 49  1  0  0  0  0
 25 26  1  0  0  0  0
 26 27  2  0  0  0  0
 26 28  1  0  0  0  0
 28 29  1  0  0  0  0
 29 50  1  0  0  0  0
 29 51  1  0  0  0  0
 29 52  1  0  0  0  0
M  END
$$$$
