CHEMBL4175295
 OpenBabel04072215383D

 48 52  0  0  0  0  0  0  0  0999 V2000
    4.8594    2.8070    4.1054 C   0  0  0  0  0  0  0  0  0  0  0  0
    5.3240    2.0426    2.9750 N   0  0  0  0  0  0  0  0  0  0  0  0
    5.4032    2.6112    1.7492 N   0  0  0  0  0  0  0  0  0  0  0  0
    5.8915    1.6272    0.9848 C   0  0  0  0  0  0  0  0  0  0  0  0
    6.1121    0.4399    1.7059 C   0  0  0  0  0  0  0  0  0  0  0  0
    6.5981   -0.8408    1.4819 C   0  0  0  0  0  0  0  0  0  0  0  0
    7.0578   -1.2102    0.2234 O   0  0  0  0  0  0  0  0  0  0  0  0
    8.1330   -2.0731    0.1714 C   0  0  0  0  0  0  0  0  0  0  0  0
    8.1954   -2.9341   -0.9297 C   0  0  0  0  0  0  0  0  0  0  0  0
    9.2253   -3.8777   -1.0633 C   0  0  0  0  0  0  0  0  0  0  0  0
   10.1821   -3.9185   -0.0396 C   0  0  0  0  0  0  0  0  0  0  0  0
   10.1708   -3.0259    1.0222 C   0  0  0  0  0  0  0  0  0  0  0  0
    9.1578   -2.0706    1.1235 C   0  0  0  0  0  0  0  0  0  0  0  0
   11.2252   -3.2381    1.8524 N   0  0  0  0  0  0  0  0  0  0  0  0
   11.9025   -4.2494    1.3579 C   0  0  0  0  0  0  0  0  0  0  0  0
   13.0520   -4.7857    1.8390 N   0  0  0  0  0  0  0  0  0  0  0  0
   14.0195   -4.1100    2.6203 C   0  0  0  0  0  0  0  0  0  0  0  0
   13.9039   -2.7709    3.0178 C   0  0  0  0  0  0  0  0  0  0  0  0
   14.9281   -2.1189    3.7125 C   0  0  0  0  0  0  0  0  0  0  0  0
   16.1026   -2.7969    4.0453 C   0  0  0  0  0  0  0  0  0  0  0  0
   17.2472   -2.0823    4.7173 C   0  0  0  0  0  0  0  0  0  0  0  0
   17.0107   -0.7601    4.9465 F   0  0  0  0  0  0  0  0  0  0  0  0
   17.5658   -2.6201    5.9272 F   0  0  0  0  0  0  0  0  0  0  0  0
   18.3904   -2.1295    3.9765 F   0  0  0  0  0  0  0  0  0  0  0  0
   16.2048   -4.1554    3.7149 C   0  0  0  0  0  0  0  0  0  0  0  0
   15.1733   -4.8017    3.0195 C   0  0  0  0  0  0  0  0  0  0  0  0
   11.2748   -4.7226    0.2191 N   0  0  0  0  0  0  0  0  0  0  0  0
   11.6724   -5.8258   -0.6202 C   0  0  0  0  0  0  0  0  0  0  0  0
    6.6106   -1.7337    2.5050 N   0  0  0  0  0  0  0  0  0  0  0  0
    6.2251   -1.3051    3.7224 C   0  0  0  0  0  0  0  0  0  0  0  0
    5.7738   -0.0861    4.0644 N   0  0  0  0  0  0  0  0  0  0  0  0
    5.7315    0.7374    3.0018 C   0  0  0  0  0  0  0  0  0  0  0  0
    4.5908    3.8156    3.7808 H   0  0  0  0  0  0  0  0  0  0  0  0
    5.6635    2.8563    4.8431 H   0  0  0  0  0  0  0  0  0  0  0  0
    3.9824    2.3078    4.5251 H   0  0  0  0  0  0  0  0  0  0  0  0
    6.0666    1.8144   -0.0657 H   0  0  0  0  0  0  0  0  0  0  0  0
    7.4198   -2.8843   -1.6909 H   0  0  0  0  0  0  0  0  0  0  0  0
    9.2595   -4.5495   -1.9139 H   0  0  0  0  0  0  0  0  0  0  0  0
    9.1748   -1.3839    1.9602 H   0  0  0  0  0  0  0  0  0  0  0  0
   13.3708   -5.6874    1.5170 H   0  0  0  0  0  0  0  0  0  0  0  0
   13.0230   -2.1857    2.7707 H   0  0  0  0  0  0  0  0  0  0  0  0
   14.7994   -1.0685    3.9691 H   0  0  0  0  0  0  0  0  0  0  0  0
   17.1001   -4.7143    3.9821 H   0  0  0  0  0  0  0  0  0  0  0  0
   15.2961   -5.8534    2.7729 H   0  0  0  0  0  0  0  0  0  0  0  0
   12.3487   -6.4946   -0.0850 H   0  0  0  0  0  0  0  0  0  0  0  0
   12.1601   -5.4216   -1.5108 H   0  0  0  0  0  0  0  0  0  0  0  0
   10.7807   -6.3937   -0.9025 H   0  0  0  0  0  0  0  0  0  0  0  0
    6.2987   -2.0335    4.5247 H   0  0  0  0  0  0  0  0  0  0  0  0
  1  2  1  0  0  0  0
  1 33  1  0  0  0  0
  1 34  1  0  0  0  0
  1 35  1  0  0  0  0
  2  3  1  0  0  0  0
  2 32  1  0  0  0  0
  3  4  2  0  0  0  0
  4  5  1  0  0  0  0
  4 36  1  0  0  0  0
  5  6  1  0  0  0  0
  5 32  2  0  0  0  0
  6  7  1  0  0  0  0
  6 29  2  0  0  0  0
  7  8  1  0  0  0  0
  8  9  1  0  0  0  0
  8 13  2  0  0  0  0
  9 10  2  0  0  0  0
  9 37  1  0  0  0  0
 10 11  1  0  0  0  0
 10 38  1  0  0  0  0
 11 12  2  0  0  0  0
 11 27  1  0  0  0  0
 12 13  1  0  0  0  0
 12 14  1  0  0  0  0
 13 39  1  0  0  0  0
 14 15  2  0  0  0  0
 15 16  1  0  0  0  0
 15 27  1  0  0  0  0
 16 17  1  0  0  0  0
 16 40  1  0  0  0  0
 17 18  1  0  0  0  0
 17 26  2  0  0  0  0
 18 19  2  0  0  0  0
 18 41  1  0  0  0  0
 19 20  1  0  0  0  0
 19 42  1  0  0  0  0
 20 21  1  0  0  0  0
 20 25  2  0  0  0  0
 21 22  1  0  0  0  0
 21 23  1  0  0  0  0
 21 24  1  0  0  0  0
 25 26  1  0  0  0  0
 25 43  1  0  0  0  0
 26 44  1  0  0  0  0
 27 28  1  0  0  0  0
 28 45  1  0  0  0  0
 28 46  1  0  0  0  0
 28 47  1  0  0  0  0
 29 30  1  0  0  0  0
 30 31  2  0  0  0  0
 30 48  1  0  0  0  0
 31 32  1  0  0  0  0
M  END
$$$$
