CHEMBL487863
 OpenBabel04072215383D

 51 53  0  0  0  0  0  0  0  0999 V2000
   10.1651   -5.4293   -5.2253 C   0  0  0  0  0  0  0  0  0  0  0  0
   10.3773   -4.2665   -4.2918 C   0  0  0  0  0  0  0  0  0  0  0  0
   11.5129   -3.9536   -3.9522 O   0  0  0  0  0  0  0  0  0  0  0  0
    9.2004   -3.6668   -3.9121 N   0  0  0  0  0  0  0  0  0  0  0  0
    9.1112   -2.5060   -3.1521 C   0  0  0  0  0  0  0  0  0  0  0  0
   10.1947   -1.7752   -2.8976 N   0  0  0  0  0  0  0  0  0  0  0  0
   10.0375   -0.6395   -2.1816 C   0  0  0  0  0  0  0  0  0  0  0  0
    8.8227   -0.1977   -1.7024 C   0  0  0  0  0  0  0  0  0  0  0  0
    8.6057    0.9886   -0.9561 N   0  0  0  0  0  0  0  0  0  0  0  0
    9.5828    1.9217   -0.6252 C   0  0  0  0  0  0  0  0  0  0  0  0
   10.7611    1.8337   -0.9466 O   0  0  0  0  0  0  0  0  0  0  0  0
    9.1286    3.1232    0.1604 C   0  0  0  0  0  0  0  0  0  0  0  0
    8.0609    3.0010    1.0655 C   0  0  0  0  0  0  0  0  0  0  0  0
    7.6034    4.1106    1.7938 C   0  0  0  0  0  0  0  0  0  0  0  0
    6.4300    3.9386    2.6956 C   0  0  0  0  0  0  0  0  0  0  0  0
    6.2553    2.8368    3.2019 O   0  0  0  0  0  0  0  0  0  0  0  0
    5.5907    5.0387    2.7937 N   0  0  0  0  0  0  0  0  0  0  0  0
    4.4032    5.1120    3.5540 C   0  0  0  0  0  0  0  0  0  0  0  0
    4.0890    4.2090    4.5703 C   0  0  0  0  0  0  0  0  0  0  0  0
    2.8749    4.3003    5.2535 C   0  0  0  0  0  0  0  0  0  0  0  0
    1.9567    5.2924    4.9191 C   0  0  0  0  0  0  0  0  0  0  0  0
    2.2537    6.2189    3.9112 C   0  0  0  0  0  0  0  0  0  0  0  0
    1.2510    7.2709    3.5065 C   0  0  0  0  0  0  0  0  0  0  0  0
    0.0588    7.1711    4.1571 F   0  0  0  0  0  0  0  0  0  0  0  0
    1.6987    8.5362    3.7347 F   0  0  0  0  0  0  0  0  0  0  0  0
    0.9547    7.2153    2.1774 F   0  0  0  0  0  0  0  0  0  0  0  0
    3.4964    6.1376    3.2540 C   0  0  0  0  0  0  0  0  0  0  0  0
    8.2557    5.3386    1.6779 C   0  0  0  0  0  0  0  0  0  0  0  0
    9.3370    5.4637    0.8082 C   0  0  0  0  0  0  0  0  0  0  0  0
    9.7798    4.3739    0.0341 C   0  0  0  0  0  0  0  0  0  0  0  0
   10.9422    4.6077   -0.8979 C   0  0  0  0  0  0  0  0  0  0  0  0
    7.7670   -1.0387   -2.0150 C   0  0  0  0  0  0  0  0  0  0  0  0
    7.8738   -2.1757   -2.7482 N   0  0  0  0  0  0  0  0  0  0  0  0
   11.1129   -5.9613   -5.3583 H   0  0  0  0  0  0  0  0  0  0  0  0
    9.8300   -5.0621   -6.1987 H   0  0  0  0  0  0  0  0  0  0  0  0
    9.4332   -6.1270   -4.8115 H   0  0  0  0  0  0  0  0  0  0  0  0
    8.3106   -4.0840   -4.1292 H   0  0  0  0  0  0  0  0  0  0  0  0
   10.9675   -0.1074   -2.0260 H   0  0  0  0  0  0  0  0  0  0  0  0
    7.6485    1.1814   -0.6941 H   0  0  0  0  0  0  0  0  0  0  0  0
    7.5817    2.0398    1.2410 H   0  0  0  0  0  0  0  0  0  0  0  0
    5.7489    5.8011    2.1469 H   0  0  0  0  0  0  0  0  0  0  0  0
    4.7792    3.4225    4.8620 H   0  0  0  0  0  0  0  0  0  0  0  0
    2.6458    3.5847    6.0396 H   0  0  0  0  0  0  0  0  0  0  0  0
    1.0026    5.3312    5.4432 H   0  0  0  0  0  0  0  0  0  0  0  0
    3.7237    6.8630    2.4744 H   0  0  0  0  0  0  0  0  0  0  0  0
    7.9621    6.1962    2.2778 H   0  0  0  0  0  0  0  0  0  0  0  0
    9.8441    6.4260    0.7384 H   0  0  0  0  0  0  0  0  0  0  0  0
   11.2741    5.6511   -0.8647 H   0  0  0  0  0  0  0  0  0  0  0  0
   10.6476    4.3958   -1.9307 H   0  0  0  0  0  0  0  0  0  0  0  0
   11.8027    3.9973   -0.6127 H   0  0  0  0  0  0  0  0  0  0  0  0
    6.7567   -0.8231   -1.6811 H   0  0  0  0  0  0  0  0  0  0  0  0
  1  2  1  0  0  0  0
  1 34  1  0  0  0  0
  1 35  1  0  0  0  0
  1 36  1  0  0  0  0
  2  3  2  0  0  0  0
  2  4  1  0  0  0  0
  4  5  1  0  0  0  0
  4 37  1  0  0  0  0
  5  6  1  0  0  0  0
  5 33  2  0  0  0  0
  6  7  2  0  0  0  0
  7  8  1  0  0  0  0
  7 38  1  0  0  0  0
  8  9  1  0  0  0  0
  8 32  2  0  0  0  0
  9 10  1  0  0  0  0
  9 39  1  0  0  0  0
 10 11  2  0  0  0  0
 10 12  1  0  0  0  0
 12 13  1  0  0  0  0
 12 30  2  0  0  0  0
 13 14  2  0  0  0  0
 13 40  1  0  0  0  0
 14 15  1  0  0  0  0
 14 28  1  0  0  0  0
 15 16  2  0  0  0  0
 15 17  1  0  0  0  0
 17 18  1  0  0  0  0
 17 41  1  0  0  0  0
 18 19  1  0  0  0  0
 18 27  2  0  0  0  0
 19 20  2  0  0  0  0
 19 42  1  0  0  0  0
 20 21  1  0  0  0  0
 20 43  1  0  0  0  0
 21 22  2  0  0  0  0
 21 44  1  0  0  0  0
 22 23  1  0  0  0  0
 22 27  1  0  0  0  0
 23 24  1  0  0  0  0
 23 25  1  0  0  0  0
 23 26  1  0  0  0  0
 27 45  1  0  0  0  0
 28 29  2  0  0  0  0
 28 46  1  0  0  0  0
 29 30  1  0  0  0  0
 29 47  1  0  0  0  0
 30 31  1  0  0  0  0
 31 48  1  0  0  0  0
 31 49  1  0  0  0  0
 31 50  1  0  0  0  0
 32 33  1  0  0  0  0
 32 51  1  0  0  0  0
M  END
$$$$
