CHEMBL209555
 OpenBabel04072215363D

 46 49  0  0  0  0  0  0  0  0999 V2000
    0.2275   -1.7919    2.2864 O   0  0  0  0  0  0  0  0  0  0  0  0
    1.1880   -1.0333    2.3982 C   0  0  0  0  0  0  0  0  0  0  0  0
    1.0932    0.2691    2.8549 N   0  0  0  0  0  0  0  0  0  0  0  0
   -0.1655    0.8311    3.2393 C   0  0  0  0  0  0  0  0  0  0  0  0
   -0.2824    2.2445    3.7367 C   0  0  0  0  0  0  0  0  0  0  0  0
   -0.4568    1.0985    4.6895 C   0  0  0  0  0  0  0  0  0  0  0  0
    2.5350   -1.5030    1.9891 C   0  0  0  0  0  0  0  0  0  0  0  0
    2.6219   -2.4450    0.9541 C   0  0  0  0  0  0  0  0  0  0  0  0
    3.8668   -2.9249    0.5460 C   0  0  0  0  0  0  0  0  0  0  0  0
    5.0183   -2.4736    1.1780 C   0  0  0  0  0  0  0  0  0  0  0  0
    6.2052   -2.9353    0.7647 F   0  0  0  0  0  0  0  0  0  0  0  0
    4.9579   -1.5501    2.2291 C   0  0  0  0  0  0  0  0  0  0  0  0
    6.2123   -1.0563    2.8999 C   0  0  0  0  0  0  0  0  0  0  0  0
    6.9866   -2.1456    3.6509 C   0  0  0  0  0  0  0  0  0  0  0  0
    8.1801   -1.5525    4.3229 C   0  0  0  0  0  0  0  0  0  0  0  0
    9.4370   -1.3666    3.8010 C   0  0  0  0  0  0  0  0  0  0  0  0
   10.3310   -0.7526    4.6388 N   0  0  0  0  0  0  0  0  0  0  0  0
    9.7959   -0.4962    5.8148 C   0  0  0  0  0  0  0  0  0  0  0  0
   10.4418    0.0367    6.8765 N   0  0  0  0  0  0  0  0  0  0  0  0
   11.8247   -0.0239    7.0830 C   0  0  0  0  0  0  0  0  0  0  0  0
   12.7512   -0.1266    6.0454 C   0  0  0  0  0  0  0  0  0  0  0  0
   14.0981   -0.3259    6.3259 C   0  0  0  0  0  0  0  0  0  0  0  0
   14.5081   -0.3660    7.6457 C   0  0  0  0  0  0  0  0  0  0  0  0
   13.5459   -0.1861    8.6246 C   0  0  0  0  0  0  0  0  0  0  0  0
   12.2254   -0.0157    8.3739 N   0  0  0  0  0  0  0  0  0  0  0  0
    8.1279   -0.9416    5.9244 S   0  0  0  0  0  0  0  0  0  0  0  0
    3.7021   -1.0649    2.6316 C   0  0  0  0  0  0  0  0  0  0  0  0
    1.8886    0.8879    2.7705 H   0  0  0  0  0  0  0  0  0  0  0  0
   -0.9949    0.4699    2.6335 H   0  0  0  0  0  0  0  0  0  0  0  0
   -1.1684    2.8031    3.4547 H   0  0  0  0  0  0  0  0  0  0  0  0
    0.6104    2.8495    3.8310 H   0  0  0  0  0  0  0  0  0  0  0  0
   -1.4544    0.8671    5.0447 H   0  0  0  0  0  0  0  0  0  0  0  0
    0.3250    0.9170    5.4172 H   0  0  0  0  0  0  0  0  0  0  0  0
    1.7178   -2.8016    0.4648 H   0  0  0  0  0  0  0  0  0  0  0  0
    3.9411   -3.6488   -0.2611 H   0  0  0  0  0  0  0  0  0  0  0  0
    5.9547   -0.2514    3.6011 H   0  0  0  0  0  0  0  0  0  0  0  0
    6.8508   -0.5891    2.1386 H   0  0  0  0  0  0  0  0  0  0  0  0
    7.3286   -2.9209    2.9522 H   0  0  0  0  0  0  0  0  0  0  0  0
    6.3424   -2.6536    4.3780 H   0  0  0  0  0  0  0  0  0  0  0  0
    9.7594   -1.6495    2.8073 H   0  0  0  0  0  0  0  0  0  0  0  0
    9.9733    0.0572    7.7724 H   0  0  0  0  0  0  0  0  0  0  0  0
   12.4465   -0.0782    5.0062 H   0  0  0  0  0  0  0  0  0  0  0  0
   14.8052   -0.4586    5.5131 H   0  0  0  0  0  0  0  0  0  0  0  0
   15.5469   -0.5328    7.9035 H   0  0  0  0  0  0  0  0  0  0  0  0
   13.8191   -0.1858    9.6755 H   0  0  0  0  0  0  0  0  0  0  0  0
    3.6399   -0.3678    3.4634 H   0  0  0  0  0  0  0  0  0  0  0  0
  1  2  2  0  0  0  0
  2  3  1  0  0  0  0
  2  7  1  0  0  0  0
  3  4  1  0  0  0  0
  3 28  1  0  0  0  0
  4  5  1  0  0  0  0
  4  6  1  0  0  0  0
  4 29  1  0  0  0  0
  5  6  1  0  0  0  0
  5 30  1  0  0  0  0
  5 31  1  0  0  0  0
  6 32  1  0  0  0  0
  6 33  1  0  0  0  0
  7  8  1  0  0  0  0
  7 27  2  0  0  0  0
  8  9  2  0  0  0  0
  8 34  1  0  0  0  0
  9 10  1  0  0  0  0
  9 35  1  0  0  0  0
 10 11  1  0  0  0  0
 10 12  2  0  0  0  0
 12 13  1  0  0  0  0
 12 27  1  0  0  0  0
 13 14  1  0  0  0  0
 13 36  1  0  0  0  0
 13 37  1  0  0  0  0
 14 15  1  0  0  0  0
 14 38  1  0  0  0  0
 14 39  1  0  0  0  0
 15 16  2  0  0  0  0
 15 26  1  0  0  0  0
 16 17  1  0  0  0  0
 16 40  1  0  0  0  0
 17 18  2  0  0  0  0
 18 19  1  0  0  0  0
 18 26  1  0  0  0  0
 19 20  1  0  0  0  0
 19 41  1  0  0  0  0
 20 21  1  0  0  0  0
 20 25  2  0  0  0  0
 21 22  2  0  0  0  0
 21 42  1  0  0  0  0
 22 23  1  0  0  0  0
 22 43  1  0  0  0  0
 23 24  2  0  0  0  0
 23 44  1  0  0  0  0
 24 25  1  0  0  0  0
 24 45  1  0  0  0  0
 27 46  1  0  0  0  0
M  END
$$$$
