CHEMBL3753142
 OpenBabel04072215373D

 36 38  0  0  0  0  0  0  0  0999 V2000
    1.1701   -0.1998    0.7114 O   0  0  0  0  0  0  0  0  0  0  0  0
    2.2833    0.0078    0.2271 C   0  0  0  0  0  0  0  0  0  0  0  0
    2.7804    1.2318   -0.1441 N   0  0  0  0  0  0  0  0  0  0  0  0
    2.1750    2.4913    0.0210 C   0  0  0  0  0  0  0  0  0  0  0  0
    1.0819    2.7026    0.8649 C   0  0  0  0  0  0  0  0  0  0  0  0
    0.4688    3.9615    1.0048 C   0  0  0  0  0  0  0  0  0  0  0  0
   -0.6558    4.1562    1.9484 C   0  0  0  0  0  0  0  0  0  0  0  0
   -1.5451    3.1225    2.2844 C   0  0  0  0  0  0  0  0  0  0  0  0
   -2.5490    3.3203    3.2313 C   0  0  0  0  0  0  0  0  0  0  0  0
   -2.6628    4.5674    3.8152 C   0  0  0  0  0  0  0  0  0  0  0  0
   -1.8543    5.6033    3.5199 N   0  0  0  0  0  0  0  0  0  0  0  0
   -0.8772    5.3695    2.6079 C   0  0  0  0  0  0  0  0  0  0  0  0
    0.9986    5.0183    0.2447 C   0  0  0  0  0  0  0  0  0  0  0  0
    2.1280    4.8477   -0.5754 C   0  0  0  0  0  0  0  0  0  0  0  0
    2.7113    6.0114   -1.3388 C   0  0  0  0  0  0  0  0  0  0  0  0
    2.0454    7.1830   -1.1395 F   0  0  0  0  0  0  0  0  0  0  0  0
    4.0063    6.2584   -0.9964 F   0  0  0  0  0  0  0  0  0  0  0  0
    2.7125    5.8065   -2.6842 F   0  0  0  0  0  0  0  0  0  0  0  0
    2.7153    3.5765   -0.6711 C   0  0  0  0  0  0  0  0  0  0  0  0
    3.0971   -1.0723    0.0377 N   0  0  0  0  0  0  0  0  0  0  0  0
    4.3540   -1.0440   -0.4801 C   0  0  0  0  0  0  0  0  0  0  0  0
    4.9946   -0.0117   -0.9758 N   0  0  0  0  0  0  0  0  0  0  0  0
    6.2535   -0.4208   -1.3725 C   0  0  0  0  0  0  0  0  0  0  0  0
    6.5408   -1.7536   -1.1604 C   0  0  0  0  0  0  0  0  0  0  0  0
    5.1772   -2.5343   -0.4687 S   0  0  0  0  0  0  0  0  0  0  0  0
    3.6508    1.1999   -0.6717 H   0  0  0  0  0  0  0  0  0  0  0  0
    0.7176    1.8775    1.4693 H   0  0  0  0  0  0  0  0  0  0  0  0
   -1.4653    2.1418    1.8189 H   0  0  0  0  0  0  0  0  0  0  0  0
   -3.2201    2.5145    3.5065 H   0  0  0  0  0  0  0  0  0  0  0  0
   -3.4265    4.7711    4.5594 H   0  0  0  0  0  0  0  0  0  0  0  0
   -0.2360    6.2307    2.4385 H   0  0  0  0  0  0  0  0  0  0  0  0
    0.5357    6.0041    0.2882 H   0  0  0  0  0  0  0  0  0  0  0  0
    3.5879    3.4402   -1.3083 H   0  0  0  0  0  0  0  0  0  0  0  0
    2.7233   -1.9588    0.3449 H   0  0  0  0  0  0  0  0  0  0  0  0
    6.9326    0.3008   -1.8112 H   0  0  0  0  0  0  0  0  0  0  0  0
    7.4534   -2.2896   -1.3760 H   0  0  0  0  0  0  0  0  0  0  0  0
  1  2  2  0  0  0  0
  2  3  1  0  0  0  0
  2 20  1  0  0  0  0
  3  4  1  0  0  0  0
  3 26  1  0  0  0  0
  4  5  1  0  0  0  0
  4 19  2  0  0  0  0
  5  6  2  0  0  0  0
  5 27  1  0  0  0  0
  6  7  1  0  0  0  0
  6 13  1  0  0  0  0
  7  8  1  0  0  0  0
  7 12  2  0  0  0  0
  8  9  2  0  0  0  0
  8 28  1  0  0  0  0
  9 10  1  0  0  0  0
  9 29  1  0  0  0  0
 10 11  2  0  0  0  0
 10 30  1  0  0  0  0
 11 12  1  0  0  0  0
 12 31  1  0  0  0  0
 13 14  2  0  0  0  0
 13 32  1  0  0  0  0
 14 15  1  0  0  0  0
 14 19  1  0  0  0  0
 15 16  1  0  0  0  0
 15 17  1  0  0  0  0
 15 18  1  0  0  0  0
 19 33  1  0  0  0  0
 20 21  1  0  0  0  0
 20 34  1  0  0  0  0
 21 22  2  0  0  0  0
 21 25  1  0  0  0  0
 22 23  1  0  0  0  0
 23 24  2  0  0  0  0
 23 35  1  0  0  0  0
 24 25  1  0  0  0  0
 24 36  1  0  0  0  0
M  END
$$$$
