CHEMBL4459013
 OpenBabel04072215383D

 53 57  0  0  0  0  0  0  0  0999 V2000
   -2.1572   -0.0984   -5.7551 C   0  0  0  0  0  0  0  0  0  0  0  0
   -2.1518   -0.7109   -4.3798 C   0  0  0  0  0  0  0  0  0  0  0  0
   -1.2871   -0.2354   -3.3848 C   0  0  0  0  0  0  0  0  0  0  0  0
   -1.3116   -0.7942   -2.0945 C   0  0  0  0  0  0  0  0  0  0  0  0
   -2.1996   -1.8286   -1.7777 C   0  0  0  0  0  0  0  0  0  0  0  0
   -2.3036   -2.3684   -0.3683 C   0  0  0  0  0  0  0  0  0  0  0  0
   -1.8441   -3.8106   -0.1913 C   0  0  0  0  0  0  0  0  0  0  0  0
   -0.6585   -4.1158   -0.3036 O   0  0  0  0  0  0  0  0  0  0  0  0
   -2.8694   -4.7073    0.1009 N   0  0  0  0  0  0  0  0  0  0  0  0
   -2.6326   -6.0811    0.3457 C   0  0  0  0  0  0  0  0  0  0  0  0
   -1.5717   -6.5264    1.1373 C   0  0  0  0  0  0  0  0  0  0  0  0
   -1.3071   -7.8991    1.2766 C   0  0  0  0  0  0  0  0  0  0  0  0
   -2.0846   -8.8459    0.5955 C   0  0  0  0  0  0  0  0  0  0  0  0
   -1.7248  -10.2316    0.6224 N   0  0  0  0  0  0  0  0  0  0  0  0
   -1.1739  -10.8848    1.7050 C   0  0  0  0  0  0  0  0  0  0  0  0
   -0.9738  -12.2050    1.4172 C   0  0  0  0  0  0  0  0  0  0  0  0
   -1.3587  -12.4228    0.1024 C   0  0  0  0  0  0  0  0  0  0  0  0
   -1.3100  -13.5735   -0.5888 N   0  0  0  0  0  0  0  0  0  0  0  0
   -1.7199  -13.4469   -1.8487 C   0  0  0  0  0  0  0  0  0  0  0  0
   -2.1527  -12.3334   -2.4556 N   0  0  0  0  0  0  0  0  0  0  0  0
   -2.1982  -11.1813   -1.7555 C   0  0  0  0  0  0  0  0  0  0  0  0
   -2.5830  -10.0751   -2.5023 N   0  0  0  0  0  0  0  0  0  0  0  0
   -1.8231  -11.1925   -0.4120 C   0  0  0  0  0  0  0  0  0  0  0  0
   -0.4704  -12.9708    2.5697 C   0  0  0  0  0  0  0  0  0  0  0  0
   -0.7761  -11.9881    3.7444 C   0  0  0  0  0  0  0  0  0  0  0  0
   -0.8823  -10.5523    3.1200 C   0  0  0  0  0  0  0  0  0  0  0  0
   -3.2009   -8.3980   -0.1196 C   0  0  0  0  0  0  0  0  0  0  0  0
   -3.4823   -7.0256   -0.2303 C   0  0  0  0  0  0  0  0  0  0  0  0
   -3.0442   -2.3027   -2.7840 C   0  0  0  0  0  0  0  0  0  0  0  0
   -3.9202   -3.2792   -2.5051 F   0  0  0  0  0  0  0  0  0  0  0  0
   -3.0256   -1.7553   -4.0700 C   0  0  0  0  0  0  0  0  0  0  0  0
   -1.4064    0.6940   -5.8467 H   0  0  0  0  0  0  0  0  0  0  0  0
   -3.1357    0.3446   -5.9661 H   0  0  0  0  0  0  0  0  0  0  0  0
   -1.9356   -0.8582   -6.5095 H   0  0  0  0  0  0  0  0  0  0  0  0
   -0.5975    0.5742   -3.5974 H   0  0  0  0  0  0  0  0  0  0  0  0
   -0.6346   -0.3923   -1.3445 H   0  0  0  0  0  0  0  0  0  0  0  0
   -3.3321   -2.2408   -0.0116 H   0  0  0  0  0  0  0  0  0  0  0  0
   -1.6812   -1.7663    0.3060 H   0  0  0  0  0  0  0  0  0  0  0  0
   -3.7838   -4.4586   -0.2598 H   0  0  0  0  0  0  0  0  0  0  0  0
   -0.9307   -5.8128    1.6511 H   0  0  0  0  0  0  0  0  0  0  0  0
   -0.4406   -8.1879    1.8644 H   0  0  0  0  0  0  0  0  0  0  0  0
   -1.6918  -14.3455   -2.4589 H   0  0  0  0  0  0  0  0  0  0  0  0
   -2.5800  -10.3289   -3.4836 H   0  0  0  0  0  0  0  0  0  0  0  0
   -2.0616   -9.2331   -2.2836 H   0  0  0  0  0  0  0  0  0  0  0  0
    0.6074  -13.1458    2.4829 H   0  0  0  0  0  0  0  0  0  0  0  0
   -0.9834  -13.9264    2.7063 H   0  0  0  0  0  0  0  0  0  0  0  0
   -0.0267  -12.0460    4.5396 H   0  0  0  0  0  0  0  0  0  0  0  0
   -1.7458  -12.2572    4.1846 H   0  0  0  0  0  0  0  0  0  0  0  0
    0.0793  -10.0392    3.2152 H   0  0  0  0  0  0  0  0  0  0  0  0
   -1.6705   -9.9733    3.6065 H   0  0  0  0  0  0  0  0  0  0  0  0
   -3.8771   -9.0992   -0.6040 H   0  0  0  0  0  0  0  0  0  0  0  0
   -4.3303   -6.7132   -0.8340 H   0  0  0  0  0  0  0  0  0  0  0  0
   -3.7111   -2.1460   -4.8183 H   0  0  0  0  0  0  0  0  0  0  0  0
  1  2  1  0  0  0  0
  1 32  1  0  0  0  0
  1 33  1  0  0  0  0
  1 34  1  0  0  0  0
  2  3  1  0  0  0  0
  2 31  2  0  0  0  0
  3  4  2  0  0  0  0
  3 35  1  0  0  0  0
  4  5  1  0  0  0  0
  4 36  1  0  0  0  0
  5  6  1  0  0  0  0
  5 29  2  0  0  0  0
  6  7  1  0  0  0  0
  6 37  1  0  0  0  0
  6 38  1  0  0  0  0
  7  8  2  0  0  0  0
  7  9  1  0  0  0  0
  9 10  1  0  0  0  0
  9 39  1  0  0  0  0
 10 11  1  0  0  0  0
 10 28  2  0  0  0  0
 11 12  2  0  0  0  0
 11 40  1  0  0  0  0
 12 13  1  0  0  0  0
 12 41  1  0  0  0  0
 13 14  1  0  0  0  0
 13 27  2  0  0  0  0
 14 15  1  0  0  0  0
 14 23  1  0  0  0  0
 15 16  2  0  0  0  0
 15 26  1  0  0  0  0
 16 17  1  0  0  0  0
 16 24  1  0  0  0  0
 17 18  1  0  0  0  0
 17 23  2  0  0  0  0
 18 19  2  0  0  0  0
 19 20  1  0  0  0  0
 19 42  1  0  0  0  0
 20 21  2  0  0  0  0
 21 22  1  0  0  0  0
 21 23  1  0  0  0  0
 22 43  1  0  0  0  0
 22 44  1  0  0  0  0
 24 25  1  0  0  0  0
 24 45  1  0  0  0  0
 24 46  1  0  0  0  0
 25 26  1  0  0  0  0
 25 47  1  0  0  0  0
 25 48  1  0  0  0  0
 26 49  1  0  0  0  0
 26 50  1  0  0  0  0
 27 28  1  0  0  0  0
 27 51  1  0  0  0  0
 28 52  1  0  0  0  0
 29 30  1  0  0  0  0
 29 31  1  0  0  0  0
 31 53  1  0  0  0  0
M  END
$$$$
