CHEMBL489083
 OpenBabel04072215383D

 51 56  0  0  0  0  0  0  0  0999 V2000
    4.0986   -5.5917   -1.9991 N   0  0  0  0  0  0  0  0  0  0  0  0
    4.7440   -5.3296   -0.9236 C   0  0  0  0  0  0  0  0  0  0  0  0
    4.8631   -6.1861    0.1148 N   0  0  0  0  0  0  0  0  0  0  0  0
    5.5233   -3.7933   -0.6886 S   0  0  0  0  0  0  0  0  0  0  0  0
    5.2255   -2.9919   -2.2977 C   0  0  0  0  0  0  0  0  0  0  0  0
    5.8576   -1.6057   -2.3747 C   0  0  0  0  0  0  0  0  0  0  0  0
    7.3691   -1.5441   -2.2253 C   0  0  0  0  0  0  0  0  0  0  0  0
    8.2275   -2.0730   -3.2709 N   0  0  0  0  0  0  0  0  0  0  0  0
    9.5466   -1.7852   -3.1604 C   0  0  0  0  0  0  0  0  0  0  0  0
   10.2068   -1.7521   -2.1371 O   0  0  0  0  0  0  0  0  0  0  0  0
   10.0713   -1.6157   -4.5377 C   0  0  0  0  0  0  0  0  0  0  0  0
    9.4031   -2.6320   -5.1047 C   0  0  0  0  0  0  0  0  0  0  0  0
    8.0250   -2.3744   -4.5809 C   0  0  0  0  0  0  0  0  0  0  0  0
    7.0443   -2.2078   -5.2642 O   0  0  0  0  0  0  0  0  0  0  0  0
    9.9774   -3.5943   -5.9308 N   0  0  0  0  0  0  0  0  0  0  0  0
    9.4394   -4.3498   -6.9711 C   0  0  0  0  0  0  0  0  0  0  0  0
    8.1044   -4.6268   -7.3525 C   0  0  0  0  0  0  0  0  0  0  0  0
    7.8951   -5.2714   -8.5664 C   0  0  0  0  0  0  0  0  0  0  0  0
    8.9332   -5.5728   -9.4307 C   0  0  0  0  0  0  0  0  0  0  0  0
   10.2632   -5.2772   -9.0546 C   0  0  0  0  0  0  0  0  0  0  0  0
   10.5145   -4.7340   -7.7888 C   0  0  0  0  0  0  0  0  0  0  0  0
   11.6999   -4.4641   -7.0673 C   0  0  0  0  0  0  0  0  0  0  0  0
   11.3410   -3.9977   -5.8136 C   0  0  0  0  0  0  0  0  0  0  0  0
   12.2576   -3.5684   -4.7487 C   0  0  0  0  0  0  0  0  0  0  0  0
   12.9197   -4.2821   -3.7606 C   0  0  0  0  0  0  0  0  0  0  0  0
   13.8021   -3.6159   -2.8803 C   0  0  0  0  0  0  0  0  0  0  0  0
   14.1366   -2.2502   -3.0370 C   0  0  0  0  0  0  0  0  0  0  0  0
   13.3663   -1.5116   -3.9408 C   0  0  0  0  0  0  0  0  0  0  0  0
   13.2513   -0.1707   -4.4156 C   0  0  0  0  0  0  0  0  0  0  0  0
   11.9886   -0.0661   -4.9823 C   0  0  0  0  0  0  0  0  0  0  0  0
   11.3917   -1.2834   -4.7772 N   0  0  0  0  0  0  0  0  0  0  0  0
   12.3957   -2.1961   -4.6400 C   0  0  0  0  0  0  0  0  0  0  0  0
    3.7408   -6.5470   -1.9482 H   0  0  0  0  0  0  0  0  0  0  0  0
    4.1411   -6.8859    0.2132 H   0  0  0  0  0  0  0  0  0  0  0  0
    5.1177   -5.7391    0.9886 H   0  0  0  0  0  0  0  0  0  0  0  0
    4.1430   -2.8768   -2.4236 H   0  0  0  0  0  0  0  0  0  0  0  0
    5.6018   -3.6215   -3.1087 H   0  0  0  0  0  0  0  0  0  0  0  0
    5.4283   -0.9830   -1.5760 H   0  0  0  0  0  0  0  0  0  0  0  0
    5.5648   -1.1236   -3.3138 H   0  0  0  0  0  0  0  0  0  0  0  0
    7.6935   -1.9898   -1.2767 H   0  0  0  0  0  0  0  0  0  0  0  0
    7.6439   -0.4828   -2.1415 H   0  0  0  0  0  0  0  0  0  0  0  0
    7.2771   -4.3616   -6.7190 H   0  0  0  0  0  0  0  0  0  0  0  0
    6.8780   -5.5384   -8.8599 H   0  0  0  0  0  0  0  0  0  0  0  0
    8.7548   -6.0284  -10.3969 H   0  0  0  0  0  0  0  0  0  0  0  0
   11.0851   -5.5121   -9.7337 H   0  0  0  0  0  0  0  0  0  0  0  0
   12.7107   -4.6361   -7.4131 H   0  0  0  0  0  0  0  0  0  0  0  0
   12.7145   -5.3405   -3.6140 H   0  0  0  0  0  0  0  0  0  0  0  0
   14.2343   -4.1607   -2.0423 H   0  0  0  0  0  0  0  0  0  0  0  0
   14.8476   -1.7619   -2.3801 H   0  0  0  0  0  0  0  0  0  0  0  0
   13.9437    0.6493   -4.2854 H   0  0  0  0  0  0  0  0  0  0  0  0
   11.4423    0.7634   -5.4113 H   0  0  0  0  0  0  0  0  0  0  0  0
  1  2  2  0  0  0  0
  1 33  1  0  0  0  0
  2  3  1  0  0  0  0
  2  4  1  0  0  0  0
  3 34  1  0  0  0  0
  3 35  1  0  0  0  0
  4  5  1  0  0  0  0
  5  6  1  0  0  0  0
  5 36  1  0  0  0  0
  5 37  1  0  0  0  0
  6  7  1  0  0  0  0
  6 38  1  0  0  0  0
  6 39  1  0  0  0  0
  7  8  1  0  0  0  0
  7 40  1  0  0  0  0
  7 41  1  0  0  0  0
  8  9  1  0  0  0  0
  8 13  1  0  0  0  0
  9 10  2  0  0  0  0
  9 11  1  0  0  0  0
 11 12  2  0  0  0  0
 11 31  1  0  0  0  0
 12 13  1  0  0  0  0
 12 15  1  0  0  0  0
 13 14  2  0  0  0  0
 15 16  1  0  0  0  0
 15 23  1  0  0  0  0
 16 17  1  0  0  0  0
 16 21  2  0  0  0  0
 17 18  2  0  0  0  0
 17 42  1  0  0  0  0
 18 19  1  0  0  0  0
 18 43  1  0  0  0  0
 19 20  2  0  0  0  0
 19 44  1  0  0  0  0
 20 21  1  0  0  0  0
 20 45  1  0  0  0  0
 21 22  1  0  0  0  0
 22 23  2  0  0  0  0
 22 46  1  0  0  0  0
 23 24  1  0  0  0  0
 24 25  1  0  0  0  0
 24 32  2  0  0  0  0
 25 26  2  0  0  0  0
 25 47  1  0  0  0  0
 26 27  1  0  0  0  0
 26 48  1  0  0  0  0
 27 28  2  0  0  0  0
 27 49  1  0  0  0  0
 28 29  1  0  0  0  0
 28 32  1  0  0  0  0
 29 30  2  0  0  0  0
 29 50  1  0  0  0  0
 30 31  1  0  0  0  0
 30 51  1  0  0  0  0
 31 32  1  0  0  0  0
M  END
$$$$
