CHEMBL3287223
 OpenBabel04072215363D

 38 39  0  0  0  0  0  0  0  0999 V2000
    1.2282   -0.9430   -0.8238 C   0  0  0  0  0  0  0  0  0  0  0  0
    1.9006    0.1999   -0.4413 O   0  0  0  0  0  0  0  0  0  0  0  0
    2.7705    0.8790   -1.2262 C   0  0  0  0  0  0  0  0  0  0  0  0
    3.0121    2.2219   -0.9342 C   0  0  0  0  0  0  0  0  0  0  0  0
    3.7890    2.9975   -1.7919 C   0  0  0  0  0  0  0  0  0  0  0  0
    4.3440    2.4433   -2.9652 C   0  0  0  0  0  0  0  0  0  0  0  0
    4.9966    3.2898   -3.9220 N   0  0  0  0  0  0  0  0  0  0  0  0
    6.1319    2.8202   -4.7026 C   0  0  0  0  0  0  0  0  0  0  0  0
    4.5014    4.6181   -4.1796 C   0  0  0  0  0  0  0  0  0  0  0  0
    5.3590    5.5880   -4.6210 N   0  0  0  0  0  0  0  0  0  0  0  0
    4.9463    6.8745   -4.8602 C   0  0  0  0  0  0  0  0  0  0  0  0
    5.9220    7.9017   -5.3273 C   0  0  0  0  0  0  0  0  0  0  0  0
    3.6431    7.2285   -4.6727 N   0  0  0  0  0  0  0  0  0  0  0  0
    2.7702    6.2798   -4.2678 C   0  0  0  0  0  0  0  0  0  0  0  0
    1.4177    6.3937   -4.0459 C   0  0  0  0  0  0  0  0  0  0  0  0
    1.0061    5.1183   -3.6905 C   0  0  0  0  0  0  0  0  0  0  0  0
    2.0537    4.2641   -3.6957 N   0  0  0  0  0  0  0  0  0  0  0  0
    3.1455    4.9915   -4.0273 C   0  0  0  0  0  0  0  0  0  0  0  0
    4.1831    1.0660   -3.2019 C   0  0  0  0  0  0  0  0  0  0  0  0
    3.3941    0.2959   -2.3470 C   0  0  0  0  0  0  0  0  0  0  0  0
    2.4592    0.0501    2.5999 Cl  0  0  0  0  0  0  0  0  0  0  0  0
    0.5362   -1.2488   -0.0141 H   0  0  0  0  0  0  0  0  0  0  0  0
    1.9350   -1.7728   -1.0256 H   0  0  0  0  0  0  0  0  0  0  0  0
    0.6211   -0.7279   -1.7314 H   0  0  0  0  0  0  0  0  0  0  0  0
    2.5502    2.6849   -0.0707 H   0  0  0  0  0  0  0  0  0  0  0  0
    3.9144    4.0495   -1.5660 H   0  0  0  0  0  0  0  0  0  0  0  0
    6.4496    1.7975   -4.4157 H   0  0  0  0  0  0  0  0  0  0  0  0
    7.0054    3.4879   -4.5482 H   0  0  0  0  0  0  0  0  0  0  0  0
    5.8643    2.8192   -5.7810 H   0  0  0  0  0  0  0  0  0  0  0  0
    6.9372    7.4624   -5.4248 H   0  0  0  0  0  0  0  0  0  0  0  0
    5.9566    8.7351   -4.5954 H   0  0  0  0  0  0  0  0  0  0  0  0
    5.6030    8.2963   -6.3147 H   0  0  0  0  0  0  0  0  0  0  0  0
    0.8039    7.2772   -4.1419 H   0  0  0  0  0  0  0  0  0  0  0  0
   -0.0082    4.8245   -3.4528 H   0  0  0  0  0  0  0  0  0  0  0  0
    1.9748    3.2469   -3.4896 H   0  0  0  0  0  0  0  0  0  0  0  0
    4.5989    0.5952   -4.0806 H   0  0  0  0  0  0  0  0  0  0  0  0
    3.2448   -0.7476   -2.5897 H   0  0  0  0  0  0  0  0  0  0  0  0
    1.9199   -1.0635    1.9981 H   0  0  0  0  0  0  0  0  0  0  0  0
  1  2  1  0  0  0  0
  1 22  1  0  0  0  0
  1 23  1  0  0  0  0
  1 24  1  0  0  0  0
  2  3  1  0  0  0  0
  3  4  1  0  0  0  0
  3 20  2  0  0  0  0
  4  5  2  0  0  0  0
  4 25  1  0  0  0  0
  5  6  1  0  0  0  0
  5 26  1  0  0  0  0
  6  7  1  0  0  0  0
  6 19  2  0  0  0  0
  7  8  1  0  0  0  0
  7  9  1  0  0  0  0
  8 27  1  0  0  0  0
  8 28  1  0  0  0  0
  8 29  1  0  0  0  0
  9 10  1  0  0  0  0
  9 18  2  0  0  0  0
 10 11  2  0  0  0  0
 11 12  1  0  0  0  0
 11 13  1  0  0  0  0
 12 30  1  0  0  0  0
 12 31  1  0  0  0  0
 12 32  1  0  0  0  0
 13 14  2  0  0  0  0
 14 15  1  0  0  0  0
 14 18  1  0  0  0  0
 15 16  2  0  0  0  0
 15 33  1  0  0  0  0
 16 17  1  0  0  0  0
 16 34  1  0  0  0  0
 17 18  1  0  0  0  0
 17 35  1  0  0  0  0
 19 20  1  0  0  0  0
 19 36  1  0  0  0  0
 20 37  1  0  0  0  0
 21 38  1  0  0  0  0
M  END
$$$$
