CHEMBL1253914
 OpenBabel04072215363D

 44 47  0  0  0  0  0  0  0  0999 V2000
    0.5445   -0.2207    0.1388 C   0  0  0  0  0  0  0  0  0  0  0  0
    1.9099   -0.0782    0.5914 N   0  0  0  0  0  0  0  0  0  0  0  0
    2.4631    1.0952    1.0439 C   0  0  0  0  0  0  0  0  0  0  0  0
    3.7549    0.8267    1.4442 C   0  0  0  0  0  0  0  0  0  0  0  0
    3.9918   -0.5454    1.2092 C   0  0  0  0  0  0  0  0  0  0  0  0
    5.1075   -1.2651    1.4524 N   0  0  0  0  0  0  0  0  0  0  0  0
    5.0026   -2.5472    1.0855 C   0  0  0  0  0  0  0  0  0  0  0  0
    3.9483   -3.1588    0.5203 N   0  0  0  0  0  0  0  0  0  0  0  0
    2.8197   -2.4361    0.3261 C   0  0  0  0  0  0  0  0  0  0  0  0
    1.6877   -3.0262   -0.2241 O   0  0  0  0  0  0  0  0  0  0  0  0
    1.5016   -4.3728   -0.0158 C   0  0  0  0  0  0  0  0  0  0  0  0
    1.8337   -5.0089    1.1786 C   0  0  0  0  0  0  0  0  0  0  0  0
    1.6638   -6.3827    1.3088 C   0  0  0  0  0  0  0  0  0  0  0  0
    1.0977   -7.1295    0.2746 C   0  0  0  0  0  0  0  0  0  0  0  0
    0.9698   -8.5290    0.3751 N   0  0  0  0  0  0  0  0  0  0  0  0
    0.6604   -9.2615    1.5199 C   0  0  0  0  0  0  0  0  0  0  0  0
   -0.1312   -8.6537    2.8786 S   0  0  0  0  0  0  0  0  0  0  0  0
    1.1083  -10.5793    1.3676 N   0  0  0  0  0  0  0  0  0  0  0  0
    0.6135  -11.6789    2.1029 C   0  0  0  0  0  0  0  0  0  0  0  0
   -0.7583  -11.8303    2.3160 C   0  0  0  0  0  0  0  0  0  0  0  0
   -1.2382  -12.8453    3.1376 C   0  0  0  0  0  0  0  0  0  0  0  0
   -0.3467  -13.7392    3.7207 C   0  0  0  0  0  0  0  0  0  0  0  0
    1.0189  -13.6464    3.4417 C   0  0  0  0  0  0  0  0  0  0  0  0
    1.5025  -12.6269    2.6156 C   0  0  0  0  0  0  0  0  0  0  0  0
    0.7175   -6.4868   -0.9071 C   0  0  0  0  0  0  0  0  0  0  0  0
    0.9037   -5.1050   -1.0441 C   0  0  0  0  0  0  0  0  0  0  0  0
    2.8379   -1.0911    0.6581 C   0  0  0  0  0  0  0  0  0  0  0  0
    0.0475    0.7519    0.1689 H   0  0  0  0  0  0  0  0  0  0  0  0
    0.0320   -0.9171    0.8068 H   0  0  0  0  0  0  0  0  0  0  0  0
    0.5547   -0.5957   -0.8870 H   0  0  0  0  0  0  0  0  0  0  0  0
    1.8987    2.0183    1.0570 H   0  0  0  0  0  0  0  0  0  0  0  0
    4.4560    1.5358    1.8637 H   0  0  0  0  0  0  0  0  0  0  0  0
    5.8704   -3.1719    1.2738 H   0  0  0  0  0  0  0  0  0  0  0  0
    2.2656   -4.4594    2.0098 H   0  0  0  0  0  0  0  0  0  0  0  0
    2.0174   -6.8532    2.2236 H   0  0  0  0  0  0  0  0  0  0  0  0
    0.8053   -9.0366   -0.4866 H   0  0  0  0  0  0  0  0  0  0  0  0
    2.0806  -10.6296    1.0809 H   0  0  0  0  0  0  0  0  0  0  0  0
   -1.4675  -11.1458    1.8578 H   0  0  0  0  0  0  0  0  0  0  0  0
   -2.3043  -12.9153    3.3379 H   0  0  0  0  0  0  0  0  0  0  0  0
   -0.7163  -14.5065    4.3955 H   0  0  0  0  0  0  0  0  0  0  0  0
    1.7092  -14.3546    3.8932 H   0  0  0  0  0  0  0  0  0  0  0  0
    2.5714  -12.5528    2.4400 H   0  0  0  0  0  0  0  0  0  0  0  0
    0.2505   -7.0395   -1.7178 H   0  0  0  0  0  0  0  0  0  0  0  0
    0.5920   -4.6055   -1.9579 H   0  0  0  0  0  0  0  0  0  0  0  0
  1  2  1  0  0  0  0
  1 28  1  0  0  0  0
  1 29  1  0  0  0  0
  1 30  1  0  0  0  0
  2  3  1  0  0  0  0
  2 27  1  0  0  0  0
  3  4  2  0  0  0  0
  3 31  1  0  0  0  0
  4  5  1  0  0  0  0
  4 32  1  0  0  0  0
  5  6  1  0  0  0  0
  5 27  2  0  0  0  0
  6  7  2  0  0  0  0
  7  8  1  0  0  0  0
  7 33  1  0  0  0  0
  8  9  2  0  0  0  0
  9 10  1  0  0  0  0
  9 27  1  0  0  0  0
 10 11  1  0  0  0  0
 11 12  1  0  0  0  0
 11 26  2  0  0  0  0
 12 13  2  0  0  0  0
 12 34  1  0  0  0  0
 13 14  1  0  0  0  0
 13 35  1  0  0  0  0
 14 15  1  0  0  0  0
 14 25  2  0  0  0  0
 15 16  1  0  0  0  0
 15 36  1  0  0  0  0
 16 17  2  0  0  0  0
 16 18  1  0  0  0  0
 18 19  1  0  0  0  0
 18 37  1  0  0  0  0
 19 20  1  0  0  0  0
 19 24  2  0  0  0  0
 20 21  2  0  0  0  0
 20 38  1  0  0  0  0
 21 22  1  0  0  0  0
 21 39  1  0  0  0  0
 22 23  2  0  0  0  0
 22 40  1  0  0  0  0
 23 24  1  0  0  0  0
 23 41  1  0  0  0  0
 24 42  1  0  0  0  0
 25 26  1  0  0  0  0
 25 43  1  0  0  0  0
 26 44  1  0  0  0  0
M  END
$$$$
