CHEMBL3739835
 OpenBabel04072215373D

 62 66  0  0  0  0  0  0  0  0999 V2000
    1.7357    2.3859   -6.8979 C   0  0  0  0  0  0  0  0  0  0  0  0
    3.0126    1.7898   -6.3637 C   0  0  0  0  0  0  0  0  0  0  0  0
    3.2223    2.0988   -4.6121 S   0  0  0  0  0  0  0  0  0  0  0  0
    3.3273    3.5335   -4.4142 O   0  0  0  0  0  0  0  0  0  0  0  0
    2.2433    1.3199   -3.8735 O   0  0  0  0  0  0  0  0  0  0  0  0
    4.8097    1.3831   -4.2623 C   0  0  0  0  0  0  0  0  0  0  0  0
    4.9773    0.0124   -4.4628 C   0  0  0  0  0  0  0  0  0  0  0  0
    6.2222   -0.5613   -4.2303 C   0  0  0  0  0  0  0  0  0  0  0  0
    7.2858    0.2471   -3.7925 C   0  0  0  0  0  0  0  0  0  0  0  0
    7.1206    1.6152   -3.5298 C   0  0  0  0  0  0  0  0  0  0  0  0
    8.1596    2.4339   -3.0524 N   0  0  0  0  0  0  0  0  0  0  0  0
    9.3710    2.1016   -2.4396 C   0  0  0  0  0  0  0  0  0  0  0  0
    9.9080    3.0588   -1.6688 N   0  0  0  0  0  0  0  0  0  0  0  0
   11.0154    2.7361   -0.9731 C   0  0  0  0  0  0  0  0  0  0  0  0
   11.6183    1.5057   -1.0311 C   0  0  0  0  0  0  0  0  0  0  0  0
   11.0450    0.6126   -1.9054 C   0  0  0  0  0  0  0  0  0  0  0  0
   11.5101   -0.6699   -2.1203 O   0  0  0  0  0  0  0  0  0  0  0  0
   12.8367   -0.9222   -1.8780 C   0  0  0  0  0  0  0  0  0  0  0  0
   13.1482   -1.9908   -1.0389 C   0  0  0  0  0  0  0  0  0  0  0  0
   14.4694   -2.1693   -0.6277 C   0  0  0  0  0  0  0  0  0  0  0  0
   15.4844   -1.3422   -1.1402 C   0  0  0  0  0  0  0  0  0  0  0  0
   16.8459   -1.4653   -0.8181 C   0  0  0  0  0  0  0  0  0  0  0  0
   17.5369   -0.0899   -0.4305 C   0  0  0  0  0  0  0  0  0  0  0  0
   16.8486    0.8596   -0.0578 O   0  0  0  0  0  0  0  0  0  0  0  0
   18.9228   -0.0582   -0.5859 N   0  0  0  0  0  0  0  0  0  0  0  0
   19.8204    1.0430   -0.5356 C   0  0  0  0  0  0  0  0  0  0  0  0
   19.4542    2.3729   -0.3524 C   0  0  0  0  0  0  0  0  0  0  0  0
   20.4344    3.3946   -0.3199 C   0  0  0  0  0  0  0  0  0  0  0  0
   21.7822    3.0843   -0.4830 C   0  0  0  0  0  0  0  0  0  0  0  0
   22.1626    1.7621   -0.6840 C   0  0  0  0  0  0  0  0  0  0  0  0
   21.1879    0.7537   -0.7139 C   0  0  0  0  0  0  0  0  0  0  0  0
   17.5216   -2.0351   -1.8873 C   0  0  0  0  0  0  0  0  0  0  0  0
   17.2808   -1.4648   -3.1354 C   0  0  0  0  0  0  0  0  0  0  0  0
   16.1807   -0.6099   -3.2896 C   0  0  0  0  0  0  0  0  0  0  0  0
   15.1785   -0.6347   -2.3120 C   0  0  0  0  0  0  0  0  0  0  0  0
   13.8552   -0.2585   -2.5582 C   0  0  0  0  0  0  0  0  0  0  0  0
    9.9241    0.8925   -2.5910 N   0  0  0  0  0  0  0  0  0  0  0  0
    5.8673    2.1854   -3.8007 C   0  0  0  0  0  0  0  0  0  0  0  0
    1.6326    2.1639   -7.9618 H   0  0  0  0  0  0  0  0  0  0  0  0
    1.7287    3.4731   -6.7718 H   0  0  0  0  0  0  0  0  0  0  0  0
    0.8620    1.9813   -6.3765 H   0  0  0  0  0  0  0  0  0  0  0  0
    3.8831    2.2102   -6.8740 H   0  0  0  0  0  0  0  0  0  0  0  0
    3.0091    0.7013   -6.5094 H   0  0  0  0  0  0  0  0  0  0  0  0
    4.1553   -0.6188   -4.7831 H   0  0  0  0  0  0  0  0  0  0  0  0
    6.3934   -1.6127   -4.4101 H   0  0  0  0  0  0  0  0  0  0  0  0
    8.2423   -0.2432   -3.6528 H   0  0  0  0  0  0  0  0  0  0  0  0
    7.8924    3.3556   -2.7367 H   0  0  0  0  0  0  0  0  0  0  0  0
   11.4117    3.5236   -0.3380 H   0  0  0  0  0  0  0  0  0  0  0  0
   12.4865    1.2797   -0.4283 H   0  0  0  0  0  0  0  0  0  0  0  0
   12.3689   -2.6763   -0.7122 H   0  0  0  0  0  0  0  0  0  0  0  0
   14.7152   -2.9971    0.0348 H   0  0  0  0  0  0  0  0  0  0  0  0
   19.3650   -0.9364   -0.8165 H   0  0  0  0  0  0  0  0  0  0  0  0
   18.4120    2.6628   -0.2323 H   0  0  0  0  0  0  0  0  0  0  0  0
   20.1321    4.4255   -0.1714 H   0  0  0  0  0  0  0  0  0  0  0  0
   22.5346    3.8712   -0.4523 H   0  0  0  0  0  0  0  0  0  0  0  0
   23.2102    1.5107   -0.8136 H   0  0  0  0  0  0  0  0  0  0  0  0
   21.5214   -0.2676   -0.8773 H   0  0  0  0  0  0  0  0  0  0  0  0
   18.2629   -2.8123   -1.7143 H   0  0  0  0  0  0  0  0  0  0  0  0
   17.8997   -1.7339   -3.9778 H   0  0  0  0  0  0  0  0  0  0  0  0
   15.9963   -0.1434   -4.2588 H   0  0  0  0  0  0  0  0  0  0  0  0
   13.6161    0.4323   -3.3644 H   0  0  0  0  0  0  0  0  0  0  0  0
    5.7042    3.2417   -3.6362 H   0  0  0  0  0  0  0  0  0  0  0  0
  1  2  1  0  0  0  0
  1 39  1  0  0  0  0
  1 40  1  0  0  0  0
  1 41  1  0  0  0  0
  2  3  1  0  0  0  0
  2 42  1  0  0  0  0
  2 43  1  0  0  0  0
  3  4  2  0  0  0  0
  3  5  2  0  0  0  0
  3  6  1  0  0  0  0
  6  7  1  0  0  0  0
  6 38  2  0  0  0  0
  7  8  2  0  0  0  0
  7 44  1  0  0  0  0
  8  9  1  0  0  0  0
  8 45  1  0  0  0  0
  9 10  2  0  0  0  0
  9 46  1  0  0  0  0
 10 11  1  0  0  0  0
 10 38  1  0  0  0  0
 11 12  1  0  0  0  0
 11 47  1  0  0  0  0
 12 13  1  0  0  0  0
 12 37  2  0  0  0  0
 13 14  2  0  0  0  0
 14 15  1  0  0  0  0
 14 48  1  0  0  0  0
 15 16  2  0  0  0  0
 15 49  1  0  0  0  0
 16 17  1  0  0  0  0
 16 37  1  0  0  0  0
 17 18  1  0  0  0  0
 18 19  1  0  0  0  0
 18 36  2  0  0  0  0
 19 20  2  0  0  0  0
 19 50  1  0  0  0  0
 20 21  1  0  0  0  0
 20 51  1  0  0  0  0
 21 22  1  0  0  0  0
 21 35  2  0  0  0  0
 22 23  1  0  0  0  0
 22 32  2  0  0  0  0
 23 24  2  0  0  0  0
 23 25  1  0  0  0  0
 25 26  1  0  0  0  0
 25 52  1  0  0  0  0
 26 27  1  0  0  0  0
 26 31  2  0  0  0  0
 27 28  2  0  0  0  0
 27 53  1  0  0  0  0
 28 29  1  0  0  0  0
 28 54  1  0  0  0  0
 29 30  2  0  0  0  0
 29 55  1  0  0  0  0
 30 31  1  0  0  0  0
 30 56  1  0  0  0  0
 31 57  1  0  0  0  0
 32 33  1  0  0  0  0
 32 58  1  0  0  0  0
 33 34  2  0  0  0  0
 33 59  1  0  0  0  0
 34 35  1  0  0  0  0
 34 60  1  0  0  0  0
 35 36  1  0  0  0  0
 36 61  1  0  0  0  0
 38 62  1  0  0  0  0
M  END
$$$$
