CHEMBL363393
 OpenBabel04072215373D

 43 45  0  0  0  0  0  0  0  0999 V2000
    1.0786    0.0997   -0.2162 C   0  0  0  0  0  0  0  0  0  0  0  0
    2.5615   -0.1964   -0.0843 C   0  0  0  0  0  0  0  0  0  0  0  0
    3.1155   -0.9039   -1.3216 C   0  0  0  0  0  0  0  0  0  0  0  0
    4.5978   -1.1962   -1.1357 C   0  0  0  0  0  0  0  0  0  0  0  0
    5.2001   -1.8326   -2.2885 N   0  0  0  0  0  0  0  0  0  0  0  0
    6.5608   -2.0774   -2.2161 C   0  0  0  0  0  0  0  0  0  0  0  0
    7.2344   -1.7037   -1.2635 O   0  0  0  0  0  0  0  0  0  0  0  0
    7.0218   -2.7411   -3.3335 N   0  0  0  0  0  0  0  0  0  0  0  0
    8.3528   -3.1631   -3.5302 C   0  0  0  0  0  0  0  0  0  0  0  0
    9.2766   -3.2672   -2.4872 C   0  0  0  0  0  0  0  0  0  0  0  0
   10.6212   -3.5391   -2.7468 C   0  0  0  0  0  0  0  0  0  0  0  0
   11.0720   -3.7649   -4.0538 C   0  0  0  0  0  0  0  0  0  0  0  0
   12.5094   -3.9025   -4.3301 C   0  0  0  0  0  0  0  0  0  0  0  0
   13.3207   -4.5708   -3.4249 C   0  0  0  0  0  0  0  0  0  0  0  0
   14.9652   -4.5763   -3.8692 S   0  0  0  0  0  0  0  0  0  0  0  0
   14.6373   -3.6989   -5.2864 C   0  0  0  0  0  0  0  0  0  0  0  0
   15.6507   -3.3868   -6.1114 N   0  0  0  0  0  0  0  0  0  0  0  0
   15.2466   -2.6953   -7.1737 C   0  0  0  0  0  0  0  0  0  0  0  0
   14.0007   -2.2960   -7.4556 N   0  0  0  0  0  0  0  0  0  0  0  0
   13.0110   -2.6078   -6.5982 C   0  0  0  0  0  0  0  0  0  0  0  0
   11.7643   -2.1024   -6.9512 N   0  0  0  0  0  0  0  0  0  0  0  0
   13.2932   -3.3718   -5.4407 C   0  0  0  0  0  0  0  0  0  0  0  0
   10.1164   -3.8061   -5.0742 C   0  0  0  0  0  0  0  0  0  0  0  0
    8.7750   -3.4755   -4.8231 C   0  0  0  0  0  0  0  0  0  0  0  0
    0.7165    0.6138    0.6800 H   0  0  0  0  0  0  0  0  0  0  0  0
    0.5040   -0.8243   -0.3338 H   0  0  0  0  0  0  0  0  0  0  0  0
    0.8825    0.7425   -1.0800 H   0  0  0  0  0  0  0  0  0  0  0  0
    2.7256   -0.8179    0.8042 H   0  0  0  0  0  0  0  0  0  0  0  0
    3.1020    0.7440    0.0778 H   0  0  0  0  0  0  0  0  0  0  0  0
    2.9673   -0.2794   -2.2109 H   0  0  0  0  0  0  0  0  0  0  0  0
    2.5727   -1.8408   -1.4950 H   0  0  0  0  0  0  0  0  0  0  0  0
    4.7480   -1.8562   -0.2702 H   0  0  0  0  0  0  0  0  0  0  0  0
    5.1420   -0.2647   -0.9357 H   0  0  0  0  0  0  0  0  0  0  0  0
    4.6692   -2.5625   -2.7373 H   0  0  0  0  0  0  0  0  0  0  0  0
    6.4361   -2.6625   -4.1530 H   0  0  0  0  0  0  0  0  0  0  0  0
    8.9854   -3.1114   -1.4524 H   0  0  0  0  0  0  0  0  0  0  0  0
   11.3060   -3.5390   -1.9026 H   0  0  0  0  0  0  0  0  0  0  0  0
   13.0366   -5.0606   -2.5023 H   0  0  0  0  0  0  0  0  0  0  0  0
   16.0129   -2.4171   -7.8896 H   0  0  0  0  0  0  0  0  0  0  0  0
   11.8755   -1.4335   -7.7059 H   0  0  0  0  0  0  0  0  0  0  0  0
   11.2287   -1.7638   -6.1606 H   0  0  0  0  0  0  0  0  0  0  0  0
   10.4045   -4.0537   -6.0933 H   0  0  0  0  0  0  0  0  0  0  0  0
    8.0847   -3.4347   -5.6600 H   0  0  0  0  0  0  0  0  0  0  0  0
  1  2  1  0  0  0  0
  1 25  1  0  0  0  0
  1 26  1  0  0  0  0
  1 27  1  0  0  0  0
  2  3  1  0  0  0  0
  2 28  1  0  0  0  0
  2 29  1  0  0  0  0
  3  4  1  0  0  0  0
  3 30  1  0  0  0  0
  3 31  1  0  0  0  0
  4  5  1  0  0  0  0
  4 32  1  0  0  0  0
  4 33  1  0  0  0  0
  5  6  1  0  0  0  0
  5 34  1  0  0  0  0
  6  7  2  0  0  0  0
  6  8  1  0  0  0  0
  8  9  1  0  0  0  0
  8 35  1  0  0  0  0
  9 10  1  0  0  0  0
  9 24  2  0  0  0  0
 10 11  2  0  0  0  0
 10 36  1  0  0  0  0
 11 12  1  0  0  0  0
 11 37  1  0  0  0  0
 12 13  1  0  0  0  0
 12 23  2  0  0  0  0
 13 14  2  0  0  0  0
 13 22  1  0  0  0  0
 14 15  1  0  0  0  0
 14 38  1  0  0  0  0
 15 16  1  0  0  0  0
 16 17  1  0  0  0  0
 16 22  2  0  0  0  0
 17 18  2  0  0  0  0
 18 19  1  0  0  0  0
 18 39  1  0  0  0  0
 19 20  2  0  0  0  0
 20 21  1  0  0  0  0
 20 22  1  0  0  0  0
 21 40  1  0  0  0  0
 21 41  1  0  0  0  0
 23 24  1  0  0  0  0
 23 42  1  0  0  0  0
 24 43  1  0  0  0  0
M  END
$$$$
