CHEMBL1688344
 OpenBabel04072215363D

 45 49  0  0  0  0  0  0  0  0999 V2000
    7.4163    4.6857    0.0702 F   0  0  0  0  0  0  0  0  0  0  0  0
    8.1774    3.5790    0.2592 C   0  0  0  0  0  0  0  0  0  0  0  0
    8.9806    3.4456   -0.8238 F   0  0  0  0  0  0  0  0  0  0  0  0
    8.9996    3.7855    1.4152 O   0  0  0  0  0  0  0  0  0  0  0  0
    8.5962    2.7373    2.1778 C   0  0  0  0  0  0  0  0  0  0  0  0
    9.0573    2.4368    3.4411 C   0  0  0  0  0  0  0  0  0  0  0  0
    8.5384    1.3024    4.0728 C   0  0  0  0  0  0  0  0  0  0  0  0
    7.5901    0.4634    3.4452 C   0  0  0  0  0  0  0  0  0  0  0  0
    7.0554   -0.6922    4.0475 N   0  0  0  0  0  0  0  0  0  0  0  0
    7.2324   -1.1435    5.3053 C   0  0  0  0  0  0  0  0  0  0  0  0
    7.2256   -2.3894    5.7357 N   0  0  0  0  0  0  0  0  0  0  0  0
    7.2988   -2.3376    7.1153 N   0  0  0  0  0  0  0  0  0  0  0  0
    7.3117   -1.0618    7.4378 C   0  0  0  0  0  0  0  0  0  0  0  0
    7.2316   -0.3913    8.7306 C   0  0  0  0  0  0  0  0  0  0  0  0
    7.9021    0.8232    8.9308 C   0  0  0  0  0  0  0  0  0  0  0  0
    7.7419    1.5213   10.1223 C   0  0  0  0  0  0  0  0  0  0  0  0
    6.9070    0.9804   11.0786 C   0  0  0  0  0  0  0  0  0  0  0  0
    6.2463   -0.1869   10.9248 N   0  0  0  0  0  0  0  0  0  0  0  0
    6.4066   -0.8691    9.7662 C   0  0  0  0  0  0  0  0  0  0  0  0
    5.6917   -2.0527    9.6060 N   0  0  0  0  0  0  0  0  0  0  0  0
    4.5638   -2.2802   10.4999 C   0  0  0  0  0  0  0  0  0  0  0  0
    3.6937   -3.3951    9.9541 C   0  0  0  0  0  0  0  0  0  0  0  0
    2.8305   -4.0952   10.8028 C   0  0  0  0  0  0  0  0  0  0  0  0
    2.0764   -5.1359   10.2773 C   0  0  0  0  0  0  0  0  0  0  0  0
    2.1048   -5.5094    8.9806 N   0  0  0  0  0  0  0  0  0  0  0  0
    2.9077   -4.7953    8.1666 C   0  0  0  0  0  0  0  0  0  0  0  0
    3.6933   -3.7372    8.5955 C   0  0  0  0  0  0  0  0  0  0  0  0
    7.3138   -0.2437    6.3333 O   0  0  0  0  0  0  0  0  0  0  0  0
    7.1173    0.8360    2.1683 C   0  0  0  0  0  0  0  0  0  0  0  0
    7.6426    1.9616    1.5644 C   0  0  0  0  0  0  0  0  0  0  0  0
    7.3122    2.4351    0.3301 O   0  0  0  0  0  0  0  0  0  0  0  0
    9.8067    3.0570    3.9271 H   0  0  0  0  0  0  0  0  0  0  0  0
    8.9189    1.0610    5.0625 H   0  0  0  0  0  0  0  0  0  0  0  0
    6.7981   -1.4055    3.3755 H   0  0  0  0  0  0  0  0  0  0  0  0
    8.5366    1.2412    8.1528 H   0  0  0  0  0  0  0  0  0  0  0  0
    8.2400    2.4678   10.2926 H   0  0  0  0  0  0  0  0  0  0  0  0
    6.7321    1.4869   12.0235 H   0  0  0  0  0  0  0  0  0  0  0  0
    6.3247   -2.8491    9.5532 H   0  0  0  0  0  0  0  0  0  0  0  0
    3.9391   -1.3812   10.5801 H   0  0  0  0  0  0  0  0  0  0  0  0
    4.9260   -2.5551   11.4978 H   0  0  0  0  0  0  0  0  0  0  0  0
    2.7464   -3.8479   11.8560 H   0  0  0  0  0  0  0  0  0  0  0  0
    1.4123   -5.7201   10.9082 H   0  0  0  0  0  0  0  0  0  0  0  0
    2.9166   -5.1044    7.1257 H   0  0  0  0  0  0  0  0  0  0  0  0
    4.3073   -3.2026    7.8764 H   0  0  0  0  0  0  0  0  0  0  0  0
    6.3564    0.2565    1.6569 H   0  0  0  0  0  0  0  0  0  0  0  0
  1  2  1  0  0  0  0
  2  3  1  0  0  0  0
  2  4  1  0  0  0  0
  2 31  1  0  0  0  0
  4  5  1  0  0  0  0
  5  6  1  0  0  0  0
  5 30  2  0  0  0  0
  6  7  2  0  0  0  0
  6 32  1  0  0  0  0
  7  8  1  0  0  0  0
  7 33  1  0  0  0  0
  8  9  1  0  0  0  0
  8 29  2  0  0  0  0
  9 10  1  0  0  0  0
  9 34  1  0  0  0  0
 10 11  2  0  0  0  0
 10 28  1  0  0  0  0
 11 12  1  0  0  0  0
 12 13  2  0  0  0  0
 13 14  1  0  0  0  0
 13 28  1  0  0  0  0
 14 15  1  0  0  0  0
 14 19  2  0  0  0  0
 15 16  2  0  0  0  0
 15 35  1  0  0  0  0
 16 17  1  0  0  0  0
 16 36  1  0  0  0  0
 17 18  2  0  0  0  0
 17 37  1  0  0  0  0
 18 19  1  0  0  0  0
 19 20  1  0  0  0  0
 20 21  1  0  0  0  0
 20 38  1  0  0  0  0
 21 22  1  0  0  0  0
 21 39  1  0  0  0  0
 21 40  1  0  0  0  0
 22 23  1  0  0  0  0
 22 27  2  0  0  0  0
 23 24  2  0  0  0  0
 23 41  1  0  0  0  0
 24 25  1  0  0  0  0
 24 42  1  0  0  0  0
 25 26  2  0  0  0  0
 26 27  1  0  0  0  0
 26 43  1  0  0  0  0
 27 44  1  0  0  0  0
 29 30  1  0  0  0  0
 29 45  1  0  0  0  0
 30 31  1  0  0  0  0
M  END
$$$$
