CHEMBL234699
 OpenBabel04072215363D

 42 43  0  0  0  0  0  0  0  0999 V2000
    0.9683   -0.0790   -0.1344 C   0  0  0  0  0  0  0  0  0  0  0  0
    2.5014    0.0941   -0.0148 C   0  0  0  0  0  0  0  0  0  0  0  0
    3.1442   -0.3728   -1.3443 C   0  0  0  0  0  0  0  0  0  0  0  0
    2.7722    1.6033    0.1051 C   0  0  0  0  0  0  0  0  0  0  0  0
    3.0078   -0.8004    1.1273 C   0  0  0  0  0  0  0  0  0  0  0  0
    2.7684   -2.1205    0.9069 N   0  0  0  0  0  0  0  0  0  0  0  0
    3.1297   -3.0649    1.7957 C   0  0  0  0  0  0  0  0  0  0  0  0
    2.9105   -4.4129    1.5170 N   0  0  0  0  0  0  0  0  0  0  0  0
    2.2990   -5.0021    0.4032 C   0  0  0  0  0  0  0  0  0  0  0  0
    2.6918   -6.2736   -0.0308 C   0  0  0  0  0  0  0  0  0  0  0  0
    2.1993   -6.8090   -1.2313 C   0  0  0  0  0  0  0  0  0  0  0  0
    1.3131   -6.0737   -2.0267 C   0  0  0  0  0  0  0  0  0  0  0  0
    0.8144   -6.5845   -3.3550 C   0  0  0  0  0  0  0  0  0  0  0  0
   -0.4762   -7.3935   -3.2444 C   0  0  0  0  0  0  0  0  0  0  0  0
   -1.5538   -6.6063   -2.7455 O   0  0  0  0  0  0  0  0  0  0  0  0
    0.8820   -4.8269   -1.5740 C   0  0  0  0  0  0  0  0  0  0  0  0
    1.3604   -4.3136   -0.3726 C   0  0  0  0  0  0  0  0  0  0  0  0
    3.7411   -2.7654    2.9395 N   0  0  0  0  0  0  0  0  0  0  0  0
    3.9712   -1.4541    3.1666 C   0  0  0  0  0  0  0  0  0  0  0  0
    3.6371   -0.4242    2.2972 C   0  0  0  0  0  0  0  0  0  0  0  0
    3.9759    0.8991    2.6924 C   0  0  0  0  0  0  0  0  0  0  0  0
    4.2783    1.9608    3.0492 N   0  0  0  0  0  0  0  0  0  0  0  0
    0.5551    0.5648   -0.9199 H   0  0  0  0  0  0  0  0  0  0  0  0
    0.4661    0.1738    0.8062 H   0  0  0  0  0  0  0  0  0  0  0  0
    0.6876   -1.1060   -0.3909 H   0  0  0  0  0  0  0  0  0  0  0  0
    2.8075    0.2450   -2.1859 H   0  0  0  0  0  0  0  0  0  0  0  0
    2.8843   -1.4097   -1.5895 H   0  0  0  0  0  0  0  0  0  0  0  0
    4.2374   -0.3086   -1.2994 H   0  0  0  0  0  0  0  0  0  0  0  0
    2.3900    2.1417   -0.7712 H   0  0  0  0  0  0  0  0  0  0  0  0
    3.8443    1.8180    0.1614 H   0  0  0  0  0  0  0  0  0  0  0  0
    2.2692    2.0347    0.9767 H   0  0  0  0  0  0  0  0  0  0  0  0
    3.4123   -5.0035    2.1613 H   0  0  0  0  0  0  0  0  0  0  0  0
    3.4155   -6.8482    0.5410 H   0  0  0  0  0  0  0  0  0  0  0  0
    2.5424   -7.7897   -1.5529 H   0  0  0  0  0  0  0  0  0  0  0  0
    1.5958   -7.1936   -3.8247 H   0  0  0  0  0  0  0  0  0  0  0  0
    0.6533   -5.7250   -4.0191 H   0  0  0  0  0  0  0  0  0  0  0  0
   -0.3540   -8.2686   -2.5991 H   0  0  0  0  0  0  0  0  0  0  0  0
   -0.7678   -7.7424   -4.2399 H   0  0  0  0  0  0  0  0  0  0  0  0
   -1.3445   -6.3999   -1.8171 H   0  0  0  0  0  0  0  0  0  0  0  0
    0.1836   -4.2319   -2.1587 H   0  0  0  0  0  0  0  0  0  0  0  0
    0.9891   -3.3450   -0.0559 H   0  0  0  0  0  0  0  0  0  0  0  0
    4.4597   -1.2489    4.1178 H   0  0  0  0  0  0  0  0  0  0  0  0
  1  2  1  0  0  0  0
  1 23  1  0  0  0  0
  1 24  1  0  0  0  0
  1 25  1  0  0  0  0
  2  3  1  0  0  0  0
  2  4  1  0  0  0  0
  2  5  1  0  0  0  0
  3 26  1  0  0  0  0
  3 27  1  0  0  0  0
  3 28  1  0  0  0  0
  4 29  1  0  0  0  0
  4 30  1  0  0  0  0
  4 31  1  0  0  0  0
  5  6  1  0  0  0  0
  5 20  2  0  0  0  0
  6  7  2  0  0  0  0
  7  8  1  0  0  0  0
  7 18  1  0  0  0  0
  8  9  1  0  0  0  0
  8 32  1  0  0  0  0
  9 10  1  0  0  0  0
  9 17  2  0  0  0  0
 10 11  2  0  0  0  0
 10 33  1  0  0  0  0
 11 12  1  0  0  0  0
 11 34  1  0  0  0  0
 12 13  1  0  0  0  0
 12 16  2  0  0  0  0
 13 14  1  0  0  0  0
 13 35  1  0  0  0  0
 13 36  1  0  0  0  0
 14 15  1  0  0  0  0
 14 37  1  0  0  0  0
 14 38  1  0  0  0  0
 15 39  1  0  0  0  0
 16 17  1  0  0  0  0
 16 40  1  0  0  0  0
 17 41  1  0  0  0  0
 18 19  2  0  0  0  0
 19 20  1  0  0  0  0
 19 42  1  0  0  0  0
 20 21  1  0  0  0  0
 21 22  3  0  0  0  0
M  END
$$$$
