CHEMBL1242665
 OpenBabel04072215363D

 37 40  0  0  0  0  0  0  0  0999 V2000
    2.1815    0.7791    1.3291 C   0  0  0  0  0  0  0  0  0  0  0  0
    2.4803   -0.0157    0.0569 C   0  0  0  0  0  0  0  0  0  0  0  0
    3.4753    0.7266   -0.8344 C   0  0  0  0  0  0  0  0  0  0  0  0
    2.9400   -1.3686    0.3562 N   0  0  0  0  0  0  0  0  0  0  0  0
    4.0717   -1.5619    1.0753 N   0  0  0  0  0  0  0  0  0  0  0  0
    4.1646   -2.8991    1.1794 C   0  0  0  0  0  0  0  0  0  0  0  0
    5.2393   -3.5636    1.8614 C   0  0  0  0  0  0  0  0  0  0  0  0
    5.0687   -3.9329    3.2753 C   0  0  0  0  0  0  0  0  0  0  0  0
    6.0453   -4.5967    3.9162 C   0  0  0  0  0  0  0  0  0  0  0  0
    7.2077   -4.9203    3.2261 N   0  0  0  0  0  0  0  0  0  0  0  0
    8.3192   -5.5998    3.6529 C   0  0  0  0  0  0  0  0  0  0  0  0
    9.1562   -5.6546    2.5622 C   0  0  0  0  0  0  0  0  0  0  0  0
    8.5936   -5.0326    1.4764 N   0  0  0  0  0  0  0  0  0  0  0  0
    7.4250   -4.5892    1.8944 C   0  0  0  0  0  0  0  0  0  0  0  0
    6.3905   -3.8806    1.2206 C   0  0  0  0  0  0  0  0  0  0  0  0
    3.0867   -3.5595    0.5268 C   0  0  0  0  0  0  0  0  0  0  0  0
    2.6270   -4.8671    0.3209 C   0  0  0  0  0  0  0  0  0  0  0  0
    3.2005   -6.0019    0.8639 N   0  0  0  0  0  0  0  0  0  0  0  0
    1.5273   -5.0481   -0.4402 N   0  0  0  0  0  0  0  0  0  0  0  0
    0.9004   -3.9643   -0.9388 C   0  0  0  0  0  0  0  0  0  0  0  0
    1.2236   -2.6711   -0.7720 N   0  0  0  0  0  0  0  0  0  0  0  0
    2.3335   -2.5368   -0.0255 C   0  0  0  0  0  0  0  0  0  0  0  0
    1.8512    1.7945    1.0832 H   0  0  0  0  0  0  0  0  0  0  0  0
    3.0617    0.8609    1.9761 H   0  0  0  0  0  0  0  0  0  0  0  0
    1.3852    0.2998    1.9091 H   0  0  0  0  0  0  0  0  0  0  0  0
    1.5410   -0.1136   -0.5000 H   0  0  0  0  0  0  0  0  0  0  0  0
    4.4473    0.8457   -0.3443 H   0  0  0  0  0  0  0  0  0  0  0  0
    3.0995    1.7249   -1.0843 H   0  0  0  0  0  0  0  0  0  0  0  0
    3.6371    0.1839   -1.7719 H   0  0  0  0  0  0  0  0  0  0  0  0
    4.1469   -3.6533    3.7784 H   0  0  0  0  0  0  0  0  0  0  0  0
    5.9762   -4.8967    4.9542 H   0  0  0  0  0  0  0  0  0  0  0  0
    8.4146   -5.9764    4.6604 H   0  0  0  0  0  0  0  0  0  0  0  0
   10.1351   -6.1133    2.5006 H   0  0  0  0  0  0  0  0  0  0  0  0
    6.5547   -3.6183    0.1807 H   0  0  0  0  0  0  0  0  0  0  0  0
    4.1634   -5.9636    1.1630 H   0  0  0  0  0  0  0  0  0  0  0  0
    2.8792   -6.8551    0.4227 H   0  0  0  0  0  0  0  0  0  0  0  0
    0.0224   -4.1634   -1.5464 H   0  0  0  0  0  0  0  0  0  0  0  0
  1  2  1  0  0  0  0
  1 23  1  0  0  0  0
  1 24  1  0  0  0  0
  1 25  1  0  0  0  0
  2  3  1  0  0  0  0
  2  4  1  0  0  0  0
  2 26  1  0  0  0  0
  3 27  1  0  0  0  0
  3 28  1  0  0  0  0
  3 29  1  0  0  0  0
  4  5  1  0  0  0  0
  4 22  1  0  0  0  0
  5  6  2  0  0  0  0
  6  7  1  0  0  0  0
  6 16  1  0  0  0  0
  7  8  1  0  0  0  0
  7 15  2  0  0  0  0
  8  9  2  0  0  0  0
  8 30  1  0  0  0  0
  9 10  1  0  0  0  0
  9 31  1  0  0  0  0
 10 11  1  0  0  0  0
 10 14  1  0  0  0  0
 11 12  2  0  0  0  0
 11 32  1  0  0  0  0
 12 13  1  0  0  0  0
 12 33  1  0  0  0  0
 13 14  2  0  0  0  0
 14 15  1  0  0  0  0
 15 34  1  0  0  0  0
 16 17  1  0  0  0  0
 16 22  2  0  0  0  0
 17 18  1  0  0  0  0
 17 19  2  0  0  0  0
 18 35  1  0  0  0  0
 18 36  1  0  0  0  0
 19 20  1  0  0  0  0
 20 21  2  0  0  0  0
 20 37  1  0  0  0  0
 21 22  1  0  0  0  0
M  END
$$$$
