CHEMBL4285792
 OpenBabel04072215383D

 77 82  0  0  1  0  0  0  0  0999 V2000
    0.9798   -0.2657   -0.0491 C   0  0  0  0  0  0  0  0  0  0  0  0
    2.4649   -0.1773   -0.0863 C   0  0  0  0  0  0  0  0  0  0  0  0
    3.2782    1.0018   -0.0935 C   0  0  0  0  0  0  0  0  0  0  0  0
    2.8388    2.2891   -0.0751 O   0  0  0  0  0  0  0  0  0  0  0  0
    3.9152    3.2453   -0.1545 C   0  0  0  0  0  0  0  0  0  0  0  0
    3.4134    4.6937   -0.0311 C   0  0  3  0  0  0  0  0  0  0  0  0
    2.4657    4.9792   -1.0636 O   0  0  0  0  0  0  0  0  0  0  0  0
    2.8033    4.9940    1.3559 C   0  0  0  0  0  0  0  0  0  0  0  0
    3.7034    4.5740    2.4234 N   0  0  0  0  0  0  0  0  0  0  0  0
    4.9092    5.3987    2.5954 C   0  0  0  0  0  0  0  0  0  0  0  0
    5.8833    4.6324    3.5033 C   0  0  0  0  0  0  0  0  0  0  0  0
    5.2950    4.3715    4.7862 O   0  0  0  0  0  0  0  0  0  0  0  0
    4.0703    3.6332    4.6385 C   0  0  0  0  0  0  0  0  0  0  0  0
    3.0684    4.3691    3.7294 C   0  0  0  0  0  0  0  0  0  0  0  0
    4.5945    0.5986   -0.1247 C   0  0  0  0  0  0  0  0  0  0  0  0
    4.6257   -0.7586   -0.1604 N   0  0  0  0  0  0  0  0  0  0  0  0
    5.7436   -1.5001   -0.2150 N   0  0  0  0  0  0  0  0  0  0  0  0
    5.5348   -2.7778   -0.2555 C   0  0  0  0  0  0  0  0  0  0  0  0
    4.3216   -3.4017   -0.2143 N   0  0  0  0  0  0  0  0  0  0  0  0
    3.2707   -2.6580   -0.1061 C   0  0  0  0  0  0  0  0  0  0  0  0
    1.9962   -3.1401    0.1249 O   0  0  0  0  0  0  0  0  0  0  0  0
    1.9728   -4.3464    0.8417 C   0  0  0  0  0  0  0  0  0  0  0  0
    2.8239   -4.5508    1.9296 C   0  0  0  0  0  0  0  0  0  0  0  0
    2.7824   -5.7507    2.6223 C   0  0  0  0  0  0  0  0  0  0  0  0
    1.8403   -6.7243    2.2920 C   0  0  0  0  0  0  0  0  0  0  0  0
    1.7054   -7.9015    3.0424 N   0  0  0  0  0  0  0  0  0  0  0  0
    2.1769   -8.0816    4.3289 C   0  0  0  0  0  0  0  0  0  0  0  0
    2.7700   -7.2769    5.0323 O   0  0  0  0  0  0  0  0  0  0  0  0
    1.9006   -9.4360    4.8890 C   0  0  0  0  0  0  0  0  0  0  0  0
    3.0044  -10.3916    4.6192 C   0  0  0  0  0  0  0  0  0  0  0  0
    3.0308  -10.9284    3.5187 O   0  0  0  0  0  0  0  0  0  0  0  0
    3.9448  -10.5627    5.6289 N   0  0  0  0  0  0  0  0  0  0  0  0
    5.1721  -11.1995    5.3689 C   0  0  0  0  0  0  0  0  0  0  0  0
    5.8473  -10.9912    4.1593 C   0  0  0  0  0  0  0  0  0  0  0  0
    6.9964  -11.7148    3.8567 C   0  0  0  0  0  0  0  0  0  0  0  0
    7.4670  -12.6454    4.7699 C   0  0  0  0  0  0  0  0  0  0  0  0
    8.5276  -13.3987    4.4525 F   0  0  0  0  0  0  0  0  0  0  0  0
    6.8471  -12.8145    6.0060 C   0  0  0  0  0  0  0  0  0  0  0  0
    5.7116  -12.0634    6.3271 C   0  0  0  0  0  0  0  0  0  0  0  0
    0.4784   -9.9998    4.8171 C   0  0  0  0  0  0  0  0  0  0  0  0
    1.0128   -9.5022    6.1242 C   0  0  0  0  0  0  0  0  0  0  0  0
    0.9842   -6.5191    1.2041 C   0  0  0  0  0  0  0  0  0  0  0  0
    1.0445   -5.3209    0.4941 C   0  0  0  0  0  0  0  0  0  0  0  0
    0.1817   -5.1112   -0.5096 F   0  0  0  0  0  0  0  0  0  0  0  0
    3.3568   -1.2442   -0.1221 C   0  0  0  0  0  0  0  0  0  0  0  0
    0.5099    0.7219   -0.0548 H   0  0  0  0  0  0  0  0  0  0  0  0
    0.6476   -0.7918    0.8529 H   0  0  0  0  0  0  0  0  0  0  0  0
    0.6109   -0.8195   -0.9198 H   0  0  0  0  0  0  0  0  0  0  0  0
    4.4095    3.1318   -1.1265 H   0  0  0  0  0  0  0  0  0  0  0  0
    4.6453    3.0554    0.6425 H   0  0  0  0  0  0  0  0  0  0  0  0
    4.2661    5.3603   -0.2027 H   0  0  0  0  0  0  0  0  0  0  0  0
    1.8753    4.2050   -1.1114 H   0  0  0  0  0  0  0  0  0  0  0  0
    1.8537    4.4469    1.4221 H   0  0  0  0  0  0  0  0  0  0  0  0
    2.5379    6.0567    1.4331 H   0  0  0  0  0  0  0  0  0  0  0  0
    4.6520    6.3666    3.0446 H   0  0  0  0  0  0  0  0  0  0  0  0
    5.4108    5.5936    1.6430 H   0  0  0  0  0  0  0  0  0  0  0  0
    6.7931    5.2194    3.6603 H   0  0  0  0  0  0  0  0  0  0  0  0
    6.1795    3.6820    3.0391 H   0  0  0  0  0  0  0  0  0  0  0  0
    3.6432    3.4957    5.6361 H   0  0  0  0  0  0  0  0  0  0  0  0
    4.2998    2.6381    4.2352 H   0  0  0  0  0  0  0  0  0  0  0  0
    2.7858    5.3306    4.1766 H   0  0  0  0  0  0  0  0  0  0  0  0
    2.1649    3.7572    3.6345 H   0  0  0  0  0  0  0  0  0  0  0  0
    5.5263    1.1405   -0.1252 H   0  0  0  0  0  0  0  0  0  0  0  0
    6.4158   -3.4407   -0.2936 H   0  0  0  0  0  0  0  0  0  0  0  0
    3.5461   -3.8021    2.2412 H   0  0  0  0  0  0  0  0  0  0  0  0
    3.5143   -5.9009    3.4101 H   0  0  0  0  0  0  0  0  0  0  0  0
    1.1524   -8.6495    2.6407 H   0  0  0  0  0  0  0  0  0  0  0  0
    3.6595  -10.4033    6.5765 H   0  0  0  0  0  0  0  0  0  0  0  0
    5.4804  -10.2622    3.4403 H   0  0  0  0  0  0  0  0  0  0  0  0
    7.5032  -11.5721    2.9081 H   0  0  0  0  0  0  0  0  0  0  0  0
    7.2365  -13.5549    6.6969 H   0  0  0  0  0  0  0  0  0  0  0  0
    5.2218  -12.2227    7.2822 H   0  0  0  0  0  0  0  0  0  0  0  0
    0.3653  -11.0716    4.6909 H   0  0  0  0  0  0  0  0  0  0  0  0
   -0.2886   -9.4195    4.3204 H   0  0  0  0  0  0  0  0  0  0  0  0
    1.2199  -10.2277    6.8978 H   0  0  0  0  0  0  0  0  0  0  0  0
    0.6025   -8.5667    6.4978 H   0  0  0  0  0  0  0  0  0  0  0  0
    0.2379   -7.2543    0.9212 H   0  0  0  0  0  0  0  0  0  0  0  0
  1  2  1  0  0  0  0
  1 46  1  0  0  0  0
  1 47  1  0  0  0  0
  1 48  1  0  0  0  0
  2  3  1  0  0  0  0
  2 45  2  0  0  0  0
  3  4  1  0  0  0  0
  3 15  2  0  0  0  0
  4  5  1  0  0  0  0
  5  6  1  0  0  0  0
  5 49  1  0  0  0  0
  5 50  1  0  0  0  0
  6  7  1  0  0  0  0
  6  8  1  0  0  0  0
  6 51  1  0  0  0  0
  7 52  1  0  0  0  0
  8  9  1  0  0  0  0
  8 53  1  0  0  0  0
  8 54  1  0  0  0  0
  9 10  1  0  0  0  0
  9 14  1  0  0  0  0
 10 11  1  0  0  0  0
 10 55  1  0  0  0  0
 10 56  1  0  0  0  0
 11 12  1  0  0  0  0
 11 57  1  0  0  0  0
 11 58  1  0  0  0  0
 12 13  1  0  0  0  0
 13 14  1  0  0  0  0
 13 59  1  0  0  0  0
 13 60  1  0  0  0  0
 14 61  1  0  0  0  0
 14 62  1  0  0  0  0
 15 16  1  0  0  0  0
 15 63  1  0  0  0  0
 16 17  1  0  0  0  0
 16 45  1  0  0  0  0
 17 18  2  0  0  0  0
 18 19  1  0  0  0  0
 18 64  1  0  0  0  0
 19 20  2  0  0  0  0
 20 21  1  0  0  0  0
 20 45  1  0  0  0  0
 21 22  1  0  0  0  0
 22 23  1  0  0  0  0
 22 43  2  0  0  0  0
 23 24  2  0  0  0  0
 23 65  1  0  0  0  0
 24 25  1  0  0  0  0
 24 66  1  0  0  0  0
 25 26  1  0  0  0  0
 25 42  2  0  0  0  0
 26 27  1  0  0  0  0
 26 67  1  0  0  0  0
 27 28  2  0  0  0  0
 27 29  1  0  0  0  0
 29 30  1  0  0  0  0
 29 40  1  0  0  0  0
 29 41  1  0  0  0  0
 30 31  2  0  0  0  0
 30 32  1  0  0  0  0
 32 33  1  0  0  0  0
 32 68  1  0  0  0  0
 33 34  1  0  0  0  0
 33 39  2  0  0  0  0
 34 35  2  0  0  0  0
 34 69  1  0  0  0  0
 35 36  1  0  0  0  0
 35 70  1  0  0  0  0
 36 37  1  0  0  0  0
 36 38  2  0  0  0  0
 38 39  1  0  0  0  0
 38 71  1  0  0  0  0
 39 72  1  0  0  0  0
 40 41  1  0  0  0  0
 40 73  1  0  0  0  0
 40 74  1  0  0  0  0
 41 75  1  0  0  0  0
 41 76  1  0  0  0  0
 42 43  1  0  0  0  0
 42 77  1  0  0  0  0
 43 44  1  0  0  0  0
M  END
$$$$
