CHEMBL2069625
 OpenBabel04072215363D

 39 41  0  0  0  0  0  0  0  0999 V2000
    2.2117    0.0455    0.0181 C   0  0  0  0  0  0  0  0  0  0  0  0
    0.7425    0.1393    0.0106 C   0  0  0  0  0  0  0  0  0  0  0  0
    0.0505   -1.0361    0.0108 O   0  0  0  0  0  0  0  0  0  0  0  0
   -1.2684   -0.6618   -0.0089 C   0  0  0  0  0  0  0  0  0  0  0  0
   -2.2478   -1.7466   -0.0360 C   0  0  0  0  0  0  0  0  0  0  0  0
   -1.8506   -3.0916   -0.0077 C   0  0  0  0  0  0  0  0  0  0  0  0
   -2.7965   -4.1201   -0.0410 C   0  0  0  0  0  0  0  0  0  0  0  0
   -4.1531   -3.8132   -0.1058 C   0  0  0  0  0  0  0  0  0  0  0  0
   -4.5646   -2.4838   -0.1354 C   0  0  0  0  0  0  0  0  0  0  0  0
   -3.6173   -1.4551   -0.1006 C   0  0  0  0  0  0  0  0  0  0  0  0
   -1.4520    0.6450   -0.0012 N   0  0  0  0  0  0  0  0  0  0  0  0
   -0.1729    1.1715   -0.0013 C   0  0  0  0  0  0  0  0  0  0  0  0
    0.0686    2.6429   -0.0075 C   0  0  0  0  0  0  0  0  0  0  0  0
    0.2201    3.1243   -1.3452 O   0  0  0  0  0  0  0  0  0  0  0  0
    0.4706    4.4586   -1.5091 C   0  0  0  0  0  0  0  0  0  0  0  0
    0.5725    5.4105   -0.4970 C   0  0  0  0  0  0  0  0  0  0  0  0
    0.8660    6.7401   -0.8158 C   0  0  0  0  0  0  0  0  0  0  0  0
    1.0601    7.1225   -2.1447 C   0  0  0  0  0  0  0  0  0  0  0  0
    0.9399    6.1844   -3.1762 C   0  0  0  0  0  0  0  0  0  0  0  0
    1.2115    6.5432   -4.6147 C   0  0  0  0  0  0  0  0  0  0  0  0
    0.8641    7.8912   -4.9033 O   0  0  0  0  0  0  0  0  0  0  0  0
    0.6483    4.8533   -2.8402 C   0  0  0  0  0  0  0  0  0  0  0  0
    2.5412   -0.9979    0.0495 H   0  0  0  0  0  0  0  0  0  0  0  0
    2.6245    0.5549    0.8940 H   0  0  0  0  0  0  0  0  0  0  0  0
    2.6302    0.5056   -0.8817 H   0  0  0  0  0  0  0  0  0  0  0  0
   -0.7959   -3.3545    0.0391 H   0  0  0  0  0  0  0  0  0  0  0  0
   -2.4703   -5.1565   -0.0195 H   0  0  0  0  0  0  0  0  0  0  0  0
   -4.8893   -4.6132   -0.1328 H   0  0  0  0  0  0  0  0  0  0  0  0
   -5.6241   -2.2429   -0.1883 H   0  0  0  0  0  0  0  0  0  0  0  0
   -3.9535   -0.4199   -0.1283 H   0  0  0  0  0  0  0  0  0  0  0  0
    0.9802    2.8523    0.5664 H   0  0  0  0  0  0  0  0  0  0  0  0
   -0.7814    3.1411    0.4747 H   0  0  0  0  0  0  0  0  0  0  0  0
    0.4388    5.1579    0.5495 H   0  0  0  0  0  0  0  0  0  0  0  0
    0.9568    7.4798   -0.0232 H   0  0  0  0  0  0  0  0  0  0  0  0
    1.3140    8.1568   -2.3697 H   0  0  0  0  0  0  0  0  0  0  0  0
    0.6322    5.9039   -5.2894 H   0  0  0  0  0  0  0  0  0  0  0  0
    2.2750    6.4040   -4.8319 H   0  0  0  0  0  0  0  0  0  0  0  0
   -0.0813    7.9822   -4.6956 H   0  0  0  0  0  0  0  0  0  0  0  0
    0.5684    4.1002   -3.6222 H   0  0  0  0  0  0  0  0  0  0  0  0
  1  2  1  0  0  0  0
  1 23  1  0  0  0  0
  1 24  1  0  0  0  0
  1 25  1  0  0  0  0
  2  3  1  0  0  0  0
  2 12  2  0  0  0  0
  3  4  1  0  0  0  0
  4  5  1  0  0  0  0
  4 11  2  0  0  0  0
  5  6  1  0  0  0  0
  5 10  2  0  0  0  0
  6  7  2  0  0  0  0
  6 26  1  0  0  0  0
  7  8  1  0  0  0  0
  7 27  1  0  0  0  0
  8  9  2  0  0  0  0
  8 28  1  0  0  0  0
  9 10  1  0  0  0  0
  9 29  1  0  0  0  0
 10 30  1  0  0  0  0
 11 12  1  0  0  0  0
 12 13  1  0  0  0  0
 13 14  1  0  0  0  0
 13 31  1  0  0  0  0
 13 32  1  0  0  0  0
 14 15  1  0  0  0  0
 15 16  1  0  0  0  0
 15 22  2  0  0  0  0
 16 17  2  0  0  0  0
 16 33  1  0  0  0  0
 17 18  1  0  0  0  0
 17 34  1  0  0  0  0
 18 19  2  0  0  0  0
 18 35  1  0  0  0  0
 19 20  1  0  0  0  0
 19 22  1  0  0  0  0
 20 21  1  0  0  0  0
 20 36  1  0  0  0  0
 20 37  1  0  0  0  0
 21 38  1  0  0  0  0
 22 39  1  0  0  0  0
M  END
$$$$
