CHEMBL3109355
 OpenBabel04072215363D

 50 53  0  0  0  0  0  0  0  0999 V2000
    1.0406   -1.4316    1.5199 C   0  0  0  0  0  0  0  0  0  0  0  0
    2.4564   -1.5345    1.4854 O   0  0  0  0  0  0  0  0  0  0  0  0
    2.9143   -2.0057    0.2176 C   0  0  0  0  0  0  0  0  0  0  0  0
    4.4311   -2.0848    0.2529 C   0  0  0  0  0  0  0  0  0  0  0  0
    4.9240   -2.5331   -1.0043 O   0  0  0  0  0  0  0  0  0  0  0  0
    6.2874   -2.7421   -1.1256 C   0  0  0  0  0  0  0  0  0  0  0  0
    7.1909   -2.3758   -0.0389 C   0  0  0  0  0  0  0  0  0  0  0  0
    8.5092   -2.5889   -0.1740 C   0  0  0  0  0  0  0  0  0  0  0  0
    9.0057   -3.1561   -1.3463 N   0  0  0  0  0  0  0  0  0  0  0  0
   10.3022   -3.4500   -1.7353 C   0  0  0  0  0  0  0  0  0  0  0  0
   11.5166   -3.2046   -0.9653 C   0  0  0  0  0  0  0  0  0  0  0  0
   12.7181   -2.9348   -1.5996 C   0  0  0  0  0  0  0  0  0  0  0  0
   13.8494   -2.7430   -0.8204 C   0  0  0  0  0  0  0  0  0  0  0  0
   13.7593   -2.8266    0.5707 C   0  0  0  0  0  0  0  0  0  0  0  0
   14.9062   -2.6493    1.3574 C   0  0  0  0  0  0  0  0  0  0  0  0
   14.8279   -2.7413    2.7398 C   0  0  0  0  0  0  0  0  0  0  0  0
   13.6005   -2.9951    3.3434 C   0  0  0  0  0  0  0  0  0  0  0  0
   12.4427   -3.1557    2.5649 C   0  0  0  0  0  0  0  0  0  0  0  0
   11.2058   -3.4314    3.1144 O   0  0  0  0  0  0  0  0  0  0  0  0
   10.9746   -2.9591    4.4469 C   0  0  0  0  0  0  0  0  0  0  0  0
    9.5518   -3.3405    4.8802 C   0  0  0  0  0  0  0  0  0  0  0  0
    9.3781   -4.7947    4.9437 N   0  0  0  0  0  0  0  0  0  0  0  0
   12.5013   -3.0956    1.1572 C   0  0  0  0  0  0  0  0  0  0  0  0
   11.4030   -3.2796    0.3794 N   0  0  0  0  0  0  0  0  0  0  0  0
   10.1570   -3.9877   -3.0053 C   0  0  0  0  0  0  0  0  0  0  0  0
    8.8535   -4.0139   -3.4158 N   0  0  0  0  0  0  0  0  0  0  0  0
    8.1732   -3.5109   -2.4100 C   0  0  0  0  0  0  0  0  0  0  0  0
    6.7737   -3.2813   -2.2598 C   0  0  0  0  0  0  0  0  0  0  0  0
    0.7457   -1.0733    2.5095 H   0  0  0  0  0  0  0  0  0  0  0  0
    0.5841   -2.4111    1.3502 H   0  0  0  0  0  0  0  0  0  0  0  0
    0.6934   -0.7158    0.7691 H   0  0  0  0  0  0  0  0  0  0  0  0
    2.5936   -1.3234   -0.5779 H   0  0  0  0  0  0  0  0  0  0  0  0
    2.4936   -2.9960    0.0084 H   0  0  0  0  0  0  0  0  0  0  0  0
    4.7282   -2.7764    1.0521 H   0  0  0  0  0  0  0  0  0  0  0  0
    4.8285   -1.0874    0.4806 H   0  0  0  0  0  0  0  0  0  0  0  0
    6.8339   -1.9337    0.8823 H   0  0  0  0  0  0  0  0  0  0  0  0
    9.2121   -2.3338    0.6087 H   0  0  0  0  0  0  0  0  0  0  0  0
   12.7866   -2.8665   -2.6794 H   0  0  0  0  0  0  0  0  0  0  0  0
   14.7979   -2.5331   -1.3082 H   0  0  0  0  0  0  0  0  0  0  0  0
   15.8710   -2.4517    0.8947 H   0  0  0  0  0  0  0  0  0  0  0  0
   15.7229   -2.6267    3.3463 H   0  0  0  0  0  0  0  0  0  0  0  0
   13.5842   -3.0905    4.4236 H   0  0  0  0  0  0  0  0  0  0  0  0
   11.0721   -1.8667    4.4651 H   0  0  0  0  0  0  0  0  0  0  0  0
   11.6778   -3.4041    5.1586 H   0  0  0  0  0  0  0  0  0  0  0  0
    8.8219   -2.9300    4.1747 H   0  0  0  0  0  0  0  0  0  0  0  0
    9.3490   -2.9204    5.8708 H   0  0  0  0  0  0  0  0  0  0  0  0
    9.5562   -5.1717    4.0087 H   0  0  0  0  0  0  0  0  0  0  0  0
    8.4073   -5.0143    5.1589 H   0  0  0  0  0  0  0  0  0  0  0  0
   10.9438   -4.3595   -3.6508 H   0  0  0  0  0  0  0  0  0  0  0  0
    6.1206   -3.5532   -3.0811 H   0  0  0  0  0  0  0  0  0  0  0  0
  1  2  1  0  0  0  0
  1 29  1  0  0  0  0
  1 30  1  0  0  0  0
  1 31  1  0  0  0  0
  2  3  1  0  0  0  0
  3  4  1  0  0  0  0
  3 32  1  0  0  0  0
  3 33  1  0  0  0  0
  4  5  1  0  0  0  0
  4 34  1  0  0  0  0
  4 35  1  0  0  0  0
  5  6  1  0  0  0  0
  6  7  1  0  0  0  0
  6 28  2  0  0  0  0
  7  8  2  0  0  0  0
  7 36  1  0  0  0  0
  8  9  1  0  0  0  0
  8 37  1  0  0  0  0
  9 10  1  0  0  0  0
  9 27  1  0  0  0  0
 10 11  1  0  0  0  0
 10 25  2  0  0  0  0
 11 12  1  0  0  0  0
 11 24  2  0  0  0  0
 12 13  2  0  0  0  0
 12 38  1  0  0  0  0
 13 14  1  0  0  0  0
 13 39  1  0  0  0  0
 14 15  1  0  0  0  0
 14 23  2  0  0  0  0
 15 16  2  0  0  0  0
 15 40  1  0  0  0  0
 16 17  1  0  0  0  0
 16 41  1  0  0  0  0
 17 18  2  0  0  0  0
 17 42  1  0  0  0  0
 18 19  1  0  0  0  0
 18 23  1  0  0  0  0
 19 20  1  0  0  0  0
 20 21  1  0  0  0  0
 20 43  1  0  0  0  0
 20 44  1  0  0  0  0
 21 22  1  0  0  0  0
 21 45  1  0  0  0  0
 21 46  1  0  0  0  0
 22 47  1  0  0  0  0
 22 48  1  0  0  0  0
 23 24  1  0  0  0  0
 25 26  1  0  0  0  0
 25 49  1  0  0  0  0
 26 27  2  0  0  0  0
 27 28  1  0  0  0  0
 28 50  1  0  0  0  0
M  END
$$$$
