CHEMBL4567013
 OpenBabel04072215383D

 63 68  0  0  0  0  0  0  0  0999 V2000
    5.5068    2.1171    1.9819 O   0  0  0  0  0  0  0  0  0  0  0  0
    4.8653    1.1649    1.5326 C   0  0  0  0  0  0  0  0  0  0  0  0
    3.5444    0.8851    1.8133 N   0  0  0  0  0  0  0  0  0  0  0  0
    2.7216    1.6757    2.6410 C   0  0  0  0  0  0  0  0  0  0  0  0
    1.4106    1.2632    2.8091 C   0  0  0  0  0  0  0  0  0  0  0  0
    0.5994    1.9760    3.6899 C   0  0  0  0  0  0  0  0  0  0  0  0
   -0.7172    1.6776    3.9236 O   0  0  0  0  0  0  0  0  0  0  0  0
   -1.1234    0.3729    4.0557 C   0  0  0  0  0  0  0  0  0  0  0  0
   -2.4719    0.1524    3.7611 C   0  0  0  0  0  0  0  0  0  0  0  0
   -3.0598   -1.0911    4.0057 C   0  0  0  0  0  0  0  0  0  0  0  0
   -2.3036   -2.1228    4.5511 C   0  0  0  0  0  0  0  0  0  0  0  0
   -2.8447   -3.2874    5.0914 N   0  0  0  0  0  0  0  0  0  0  0  0
   -4.1186   -3.8067    5.2471 C   0  0  0  0  0  0  0  0  0  0  0  0
   -4.1662   -5.0567    4.6749 N   0  0  0  0  0  0  0  0  0  0  0  0
   -5.0671   -5.9631    5.0975 C   0  0  0  0  0  0  0  0  0  0  0  0
   -5.8500   -5.7329    6.1814 C   0  0  0  0  0  0  0  0  0  0  0  0
   -5.8239   -4.4511    6.7032 C   0  0  0  0  0  0  0  0  0  0  0  0
   -6.6693   -4.2420    7.8087 N   0  0  0  0  0  0  0  0  0  0  0  0
   -7.4427   -3.1360    7.5928 C   0  0  0  0  0  0  0  0  0  0  0  0
   -6.8938   -1.9230    7.3678 C   0  0  0  0  0  0  0  0  0  0  0  0
   -7.6127   -1.0127    8.3299 C   0  0  0  0  0  0  0  0  0  0  0  0
   -7.0729   -0.9486    9.6474 C   0  0  0  0  0  0  0  0  0  0  0  0
   -7.9022   -0.9987   10.7952 C   0  0  0  0  0  0  0  0  0  0  0  0
   -9.2863   -1.0140   10.6271 C   0  0  0  0  0  0  0  0  0  0  0  0
  -10.0648   -1.1881   11.6926 F   0  0  0  0  0  0  0  0  0  0  0  0
   -9.8533   -0.9331    9.3528 C   0  0  0  0  0  0  0  0  0  0  0  0
   -9.0285   -0.9009    8.2201 C   0  0  0  0  0  0  0  0  0  0  0  0
   -5.4276   -2.0056    6.8164 C   0  0  0  0  0  0  0  0  0  0  0  0
   -4.6616   -1.0598    6.8641 O   0  0  0  0  0  0  0  0  0  0  0  0
   -5.0720   -3.3865    6.1750 C   0  0  0  0  0  0  0  0  0  0  0  0
   -0.9258   -1.9322    4.7318 C   0  0  0  0  0  0  0  0  0  0  0  0
   -0.3538   -0.6860    4.5320 C   0  0  0  0  0  0  0  0  0  0  0  0
    0.9390   -0.5415    4.8567 F   0  0  0  0  0  0  0  0  0  0  0  0
    1.0842    3.1146    4.3167 C   0  0  0  0  0  0  0  0  0  0  0  0
    2.3876    3.4738    4.0588 C   0  0  0  0  0  0  0  0  0  0  0  0
    3.2037    2.7757    3.2450 N   0  0  0  0  0  0  0  0  0  0  0  0
    5.5531    0.1758    0.5693 C   0  0  0  0  0  0  0  0  0  0  0  0
    6.1293    0.8201   -0.7265 C   0  0  0  0  0  0  0  0  0  0  0  0
    5.8500   -0.5159   -1.4317 C   0  0  0  0  0  0  0  0  0  0  0  0
    4.7703   -0.7738   -0.3617 C   0  0  0  0  0  0  0  0  0  0  0  0
    3.1306    0.0633    1.4214 H   0  0  0  0  0  0  0  0  0  0  0  0
    1.0261    0.3929    2.2918 H   0  0  0  0  0  0  0  0  0  0  0  0
   -3.0834    0.9703    3.3892 H   0  0  0  0  0  0  0  0  0  0  0  0
   -4.1157   -1.2303    3.7955 H   0  0  0  0  0  0  0  0  0  0  0  0
   -2.2185   -4.0834    4.9826 H   0  0  0  0  0  0  0  0  0  0  0  0
   -5.1107   -6.9037    4.5692 H   0  0  0  0  0  0  0  0  0  0  0  0
   -6.5127   -6.4799    6.6012 H   0  0  0  0  0  0  0  0  0  0  0  0
   -6.0223   -3.9699    8.5705 H   0  0  0  0  0  0  0  0  0  0  0  0
   -8.4297   -3.3207    8.0004 H   0  0  0  0  0  0  0  0  0  0  0  0
   -5.9928   -1.0793    9.7776 H   0  0  0  0  0  0  0  0  0  0  0  0
   -7.4726   -1.0928   11.7732 H   0  0  0  0  0  0  0  0  0  0  0  0
  -10.9382   -1.0249    9.2634 H   0  0  0  0  0  0  0  0  0  0  0  0
   -9.5125   -1.0192    7.2460 H   0  0  0  0  0  0  0  0  0  0  0  0
   -0.2955   -2.7369    5.1015 H   0  0  0  0  0  0  0  0  0  0  0  0
    0.4638    3.7019    4.9831 H   0  0  0  0  0  0  0  0  0  0  0  0
    2.8316    4.3565    4.5086 H   0  0  0  0  0  0  0  0  0  0  0  0
    6.3390   -0.3680    1.1202 H   0  0  0  0  0  0  0  0  0  0  0  0
    7.1778    1.1253   -0.6790 H   0  0  0  0  0  0  0  0  0  0  0  0
    5.5337    1.6568   -1.1117 H   0  0  0  0  0  0  0  0  0  0  0  0
    6.6932   -1.2146   -1.3925 H   0  0  0  0  0  0  0  0  0  0  0  0
    5.4926   -0.4404   -2.4614 H   0  0  0  0  0  0  0  0  0  0  0  0
    4.6978   -1.8099   -0.0194 H   0  0  0  0  0  0  0  0  0  0  0  0
    3.7750   -0.4256   -0.6594 H   0  0  0  0  0  0  0  0  0  0  0  0
  1  2  2  0  0  0  0
  2  3  1  0  0  0  0
  2 37  1  0  0  0  0
  3  4  1  0  0  0  0
  3 41  1  0  0  0  0
  4  5  1  0  0  0  0
  4 36  2  0  0  0  0
  5  6  2  0  0  0  0
  5 42  1  0  0  0  0
  6  7  1  0  0  0  0
  6 34  1  0  0  0  0
  7  8  1  0  0  0  0
  8  9  1  0  0  0  0
  8 32  2  0  0  0  0
  9 10  2  0  0  0  0
  9 43  1  0  0  0  0
 10 11  1  0  0  0  0
 10 44  1  0  0  0  0
 11 12  1  0  0  0  0
 11 31  2  0  0  0  0
 12 13  1  0  0  0  0
 12 45  1  0  0  0  0
 13 14  1  0  0  0  0
 13 30  2  0  0  0  0
 14 15  2  0  0  0  0
 15 16  1  0  0  0  0
 15 46  1  0  0  0  0
 16 17  2  0  0  0  0
 16 47  1  0  0  0  0
 17 18  1  0  0  0  0
 17 30  1  0  0  0  0
 18 19  1  0  0  0  0
 18 48  1  0  0  0  0
 19 20  2  0  0  0  0
 19 49  1  0  0  0  0
 20 21  1  0  0  0  0
 20 28  1  0  0  0  0
 21 22  1  0  0  0  0
 21 27  2  0  0  0  0
 22 23  2  0  0  0  0
 22 50  1  0  0  0  0
 23 24  1  0  0  0  0
 23 51  1  0  0  0  0
 24 25  1  0  0  0  0
 24 26  2  0  0  0  0
 26 27  1  0  0  0  0
 26 52  1  0  0  0  0
 27 53  1  0  0  0  0
 28 29  2  0  0  0  0
 28 30  1  0  0  0  0
 31 32  1  0  0  0  0
 31 54  1  0  0  0  0
 32 33  1  0  0  0  0
 34 35  2  0  0  0  0
 34 55  1  0  0  0  0
 35 36  1  0  0  0  0
 35 56  1  0  0  0  0
 37 38  1  0  0  0  0
 37 40  1  0  0  0  0
 37 57  1  0  0  0  0
 38 39  1  0  0  0  0
 38 58  1  0  0  0  0
 38 59  1  0  0  0  0
 39 40  1  0  0  0  0
 39 60  1  0  0  0  0
 39 61  1  0  0  0  0
 40 62  1  0  0  0  0
 40 63  1  0  0  0  0
M  END
$$$$
