CHEMBL2086724
 OpenBabel04072215363D

 41 45  0  0  0  0  0  0  0  0999 V2000
   -2.9714    0.8089   -0.2169 O   0  0  0  0  0  0  0  0  0  0  0  0
   -1.8041    0.5108   -0.0578 C   0  0  0  0  0  0  0  0  0  0  0  0
   -0.7589    1.4105    0.0367 N   0  0  0  0  0  0  0  0  0  0  0  0
    0.4696    0.7674    0.0386 C   0  0  0  0  0  0  0  0  0  0  0  0
    1.7052    1.3881    0.0556 C   0  0  0  0  0  0  0  0  0  0  0  0
    2.8326    0.5712    0.0001 C   0  0  0  0  0  0  0  0  0  0  0  0
    2.6961   -0.8232   -0.0765 C   0  0  0  0  0  0  0  0  0  0  0  0
    1.4302   -1.4272   -0.0845 C   0  0  0  0  0  0  0  0  0  0  0  0
    0.3043   -0.6222   -0.0170 C   0  0  0  0  0  0  0  0  0  0  0  0
   -1.1590   -0.8664   -0.0165 C   0  0  0  0  0  0  0  0  0  0  0  0
   -1.8598   -2.0236    0.0516 C   0  0  0  0  0  0  0  0  0  0  0  0
   -1.1729   -3.3317    0.1483 C   0  0  0  0  0  0  0  0  0  0  0  0
   -0.8501   -3.8612    1.4081 C   0  0  0  0  0  0  0  0  0  0  0  0
   -0.2137   -5.0997    1.5075 C   0  0  0  0  0  0  0  0  0  0  0  0
    0.0880   -5.8085    0.3506 C   0  0  0  0  0  0  0  0  0  0  0  0
    0.7017   -6.9951    0.4445 F   0  0  0  0  0  0  0  0  0  0  0  0
   -0.2377   -5.3059   -0.9049 C   0  0  0  0  0  0  0  0  0  0  0  0
   -0.8726   -4.0669   -1.0093 C   0  0  0  0  0  0  0  0  0  0  0  0
   -3.2847   -1.9870    0.1316 C   0  0  0  0  0  0  0  0  0  0  0  0
   -4.0842   -1.9361    1.1791 N   0  0  0  0  0  0  0  0  0  0  0  0
   -5.3612   -1.9330    0.6679 C   0  0  0  0  0  0  0  0  0  0  0  0
   -6.5953   -1.8436    1.3284 C   0  0  0  0  0  0  0  0  0  0  0  0
   -7.7712   -1.8704    0.5658 C   0  0  0  0  0  0  0  0  0  0  0  0
   -7.7201   -1.9926   -0.8253 C   0  0  0  0  0  0  0  0  0  0  0  0
   -6.4985   -2.0829   -1.5024 C   0  0  0  0  0  0  0  0  0  0  0  0
   -5.3439   -2.0420   -0.7178 C   0  0  0  0  0  0  0  0  0  0  0  0
   -4.0104   -2.0753   -1.0327 N   0  0  0  0  0  0  0  0  0  0  0  0
   -0.9052    2.4080    0.0262 H   0  0  0  0  0  0  0  0  0  0  0  0
    1.8003    2.4666    0.1021 H   0  0  0  0  0  0  0  0  0  0  0  0
    3.8251    1.0168    0.0064 H   0  0  0  0  0  0  0  0  0  0  0  0
    3.5880   -1.4452   -0.1317 H   0  0  0  0  0  0  0  0  0  0  0  0
    1.3709   -2.5065   -0.1503 H   0  0  0  0  0  0  0  0  0  0  0  0
   -1.1027   -3.3124    2.3141 H   0  0  0  0  0  0  0  0  0  0  0  0
    0.0405   -5.5153    2.4775 H   0  0  0  0  0  0  0  0  0  0  0  0
    0.0018   -5.8842   -1.7915 H   0  0  0  0  0  0  0  0  0  0  0  0
   -1.1254   -3.6799   -1.9931 H   0  0  0  0  0  0  0  0  0  0  0  0
   -6.6275   -1.7461    2.4073 H   0  0  0  0  0  0  0  0  0  0  0  0
   -8.7337   -1.7913    1.0654 H   0  0  0  0  0  0  0  0  0  0  0  0
   -8.6475   -2.0105   -1.3939 H   0  0  0  0  0  0  0  0  0  0  0  0
   -6.4584   -2.1696   -2.5823 H   0  0  0  0  0  0  0  0  0  0  0  0
   -3.6263   -2.1260   -1.9630 H   0  0  0  0  0  0  0  0  0  0  0  0
  1  2  2  0  0  0  0
  2  3  1  0  0  0  0
  2 10  1  0  0  0  0
  3  4  1  0  0  0  0
  3 28  1  0  0  0  0
  4  5  1  0  0  0  0
  4  9  2  0  0  0  0
  5  6  2  0  0  0  0
  5 29  1  0  0  0  0
  6  7  1  0  0  0  0
  6 30  1  0  0  0  0
  7  8  2  0  0  0  0
  7 31  1  0  0  0  0
  8  9  1  0  0  0  0
  8 32  1  0  0  0  0
  9 10  1  0  0  0  0
 10 11  2  3  0  0  0
 11 12  1  0  0  0  0
 11 19  1  0  0  0  0
 12 13  1  0  0  0  0
 12 18  2  0  0  0  0
 13 14  2  0  0  0  0
 13 33  1  0  0  0  0
 14 15  1  0  0  0  0
 14 34  1  0  0  0  0
 15 16  1  0  0  0  0
 15 17  2  0  0  0  0
 17 18  1  0  0  0  0
 17 35  1  0  0  0  0
 18 36  1  0  0  0  0
 19 20  2  0  0  0  0
 19 27  1  0  0  0  0
 20 21  1  0  0  0  0
 21 22  1  0  0  0  0
 21 26  2  0  0  0  0
 22 23  2  0  0  0  0
 22 37  1  0  0  0  0
 23 24  1  0  0  0  0
 23 38  1  0  0  0  0
 24 25  2  0  0  0  0
 24 39  1  0  0  0  0
 25 26  1  0  0  0  0
 25 40  1  0  0  0  0
 26 27  1  0  0  0  0
 27 41  1  0  0  0  0
M  END
$$$$
