CHEMBL92623
 OpenBabel04072215383D

 33 36  0  0  0  0  0  0  0  0999 V2000
    1.2568   -0.5590    0.3049 C   0  0  0  0  0  0  0  0  0  0  0  0
    0.4696   -0.3079    1.4261 C   0  0  0  0  0  0  0  0  0  0  0  0
   -0.8696    0.0624    1.2743 C   0  0  0  0  0  0  0  0  0  0  0  0
   -1.4389    0.1834    0.0000 C   0  0  0  0  0  0  0  0  0  0  0  0
   -2.8502    0.4943   -0.1792 C   0  0  0  0  0  0  0  0  0  0  0  0
   -3.4940    1.1896   -1.2256 C   0  0  0  0  0  0  0  0  0  0  0  0
   -4.8203    1.2240   -1.1024 N   0  0  0  0  0  0  0  0  0  0  0  0
   -5.0663    0.5295    0.0339 N   0  0  0  0  0  0  0  0  0  0  0  0
   -6.3126    0.2358    0.5818 C   0  0  0  0  0  0  0  0  0  0  0  0
   -6.4089   -0.4768    1.7135 C   0  0  0  0  0  0  0  0  0  0  0  0
   -7.6893   -0.8337    2.3222 C   0  0  0  0  0  0  0  0  0  0  0  0
   -8.3194   -2.0331    1.9895 C   0  0  0  0  0  0  0  0  0  0  0  0
   -9.5372   -2.3219    2.5844 C   0  0  0  0  0  0  0  0  0  0  0  0
  -10.1508   -1.5064    3.4679 N   0  0  0  0  0  0  0  0  0  0  0  0
   -9.5251   -0.3501    3.7698 C   0  0  0  0  0  0  0  0  0  0  0  0
   -8.3064    0.0276    3.2292 C   0  0  0  0  0  0  0  0  0  0  0  0
   -5.0970   -0.8864    2.3049 C   0  0  0  0  0  0  0  0  0  0  0  0
   -3.9188   -0.6350    1.8162 N   0  0  0  0  0  0  0  0  0  0  0  0
   -3.8868    0.0847    0.6457 C   0  0  0  0  0  0  0  0  0  0  0  0
   -0.6226   -0.0321   -1.1213 C   0  0  0  0  0  0  0  0  0  0  0  0
    0.7138   -0.4131   -0.9692 C   0  0  0  0  0  0  0  0  0  0  0  0
    2.2905   -0.8723    0.4245 H   0  0  0  0  0  0  0  0  0  0  0  0
    0.8903   -0.4140    2.4225 H   0  0  0  0  0  0  0  0  0  0  0  0
   -1.4660    0.2426    2.1657 H   0  0  0  0  0  0  0  0  0  0  0  0
   -3.0427    1.6729   -2.0829 H   0  0  0  0  0  0  0  0  0  0  0  0
   -7.1632    0.6093    0.0275 H   0  0  0  0  0  0  0  0  0  0  0  0
   -7.8836   -2.7316    1.2829 H   0  0  0  0  0  0  0  0  0  0  0  0
  -10.0679   -3.2419    2.3576 H   0  0  0  0  0  0  0  0  0  0  0  0
  -10.0448    0.2863    4.4810 H   0  0  0  0  0  0  0  0  0  0  0  0
   -7.8584    0.9739    3.5130 H   0  0  0  0  0  0  0  0  0  0  0  0
   -5.1611   -1.4540    3.2490 H   0  0  0  0  0  0  0  0  0  0  0  0
   -1.0214    0.0626   -2.1283 H   0  0  0  0  0  0  0  0  0  0  0  0
    1.3246   -0.6113   -1.8462 H   0  0  0  0  0  0  0  0  0  0  0  0
  1  2  1  0  0  0  0
  1 21  2  0  0  0  0
  1 22  1  0  0  0  0
  2  3  2  0  0  0  0
  2 23  1  0  0  0  0
  3  4  1  0  0  0  0
  3 24  1  0  0  0  0
  4  5  1  0  0  0  0
  4 20  2  0  0  0  0
  5  6  1  0  0  0  0
  5 19  2  0  0  0  0
  6  7  2  0  0  0  0
  6 25  1  0  0  0  0
  7  8  1  0  0  0  0
  8  9  1  0  0  0  0
  8 19  1  0  0  0  0
  9 10  2  0  0  0  0
  9 26  1  0  0  0  0
 10 11  1  0  0  0  0
 10 17  1  0  0  0  0
 11 12  1  0  0  0  0
 11 16  2  0  0  0  0
 12 13  2  0  0  0  0
 12 27  1  0  0  0  0
 13 14  1  0  0  0  0
 13 28  1  0  0  0  0
 14 15  2  0  0  0  0
 15 16  1  0  0  0  0
 15 29  1  0  0  0  0
 16 30  1  0  0  0  0
 17 18  2  0  0  0  0
 17 31  1  0  0  0  0
 18 19  1  0  0  0  0
 20 21  1  0  0  0  0
 20 32  1  0  0  0  0
 21 33  1  0  0  0  0
M  END
$$$$
