CHEMBL3925855
 OpenBabel04072215373D

 53 57  0  0  0  0  0  0  0  0999 V2000
   -0.9372   -0.2261    1.6592 C   0  0  0  0  0  0  0  0  0  0  0  0
    0.3217   -0.5467    1.0277 N   0  0  0  0  0  0  0  0  0  0  0  0
    0.7043   -1.7904    0.6102 C   0  0  0  0  0  0  0  0  0  0  0  0
    1.9494   -1.6126    0.0585 C   0  0  0  0  0  0  0  0  0  0  0  0
    2.3323   -0.2957    0.1199 N   0  0  0  0  0  0  0  0  0  0  0  0
    1.3385    0.3357    0.7297 C   0  0  0  0  0  0  0  0  0  0  0  0
    1.3442    1.7622    1.0267 C   0  0  0  0  0  0  0  0  0  0  0  0
    0.4204    2.2916    1.6393 O   0  0  0  0  0  0  0  0  0  0  0  0
    2.4541    2.4225    0.5207 N   0  0  0  0  0  0  0  0  0  0  0  0
    2.7118    3.8143    0.6243 C   0  0  0  0  0  0  0  0  0  0  0  0
    1.9870    4.6439    1.4889 C   0  0  0  0  0  0  0  0  0  0  0  0
    2.1447    6.0275    1.4631 C   0  0  0  0  0  0  0  0  0  0  0  0
    3.0496    6.6009    0.5832 C   0  0  0  0  0  0  0  0  0  0  0  0
    3.8998    5.7885   -0.1650 C   0  0  0  0  0  0  0  0  0  0  0  0
    4.9068    6.2723   -0.9674 O   0  0  0  0  0  0  0  0  0  0  0  0
    5.6210    7.4034   -0.6156 C   0  0  0  0  0  0  0  0  0  0  0  0
    5.7280    7.9484    0.6741 C   0  0  0  0  0  0  0  0  0  0  0  0
    6.3970    9.1689    0.9126 C   0  0  0  0  0  0  0  0  0  0  0  0
    7.1489    9.7164   -0.1395 C   0  0  0  0  0  0  0  0  0  0  0  0
    8.0200   10.8262   -0.4087 C   0  0  0  0  0  0  0  0  0  0  0  0
    7.6635   12.1434   -0.9248 C   0  0  0  0  0  0  0  0  0  0  0  0
    6.4830   12.4429   -1.5034 C   0  0  0  0  0  0  0  0  0  0  0  0
    6.4018   13.2973   -2.7130 C   0  0  0  0  0  0  0  0  0  0  0  0
    5.1697   13.5365   -3.3158 C   0  0  0  0  0  0  0  0  0  0  0  0
    5.1343   14.1250   -4.5824 C   0  0  0  0  0  0  0  0  0  0  0  0
    6.3241   14.4523   -5.2191 C   0  0  0  0  0  0  0  0  0  0  0  0
    7.5063   14.1926   -4.5509 C   0  0  0  0  0  0  0  0  0  0  0  0
    7.5683   13.6311   -3.3206 N   0  0  0  0  0  0  0  0  0  0  0  0
    9.0676   10.2873   -1.0697 N   0  0  0  0  0  0  0  0  0  0  0  0
    8.4397    9.3818   -1.8456 N   0  0  0  0  0  0  0  0  0  0  0  0
    7.2609    8.9529   -1.2984 C   0  0  0  0  0  0  0  0  0  0  0  0
    6.3942    7.9257   -1.6521 C   0  0  0  0  0  0  0  0  0  0  0  0
    3.7006    4.3941   -0.1784 C   0  0  0  0  0  0  0  0  0  0  0  0
   -1.5667   -1.1192    1.6894 H   0  0  0  0  0  0  0  0  0  0  0  0
   -1.4380    0.5461    1.0696 H   0  0  0  0  0  0  0  0  0  0  0  0
   -0.7412    0.1180    2.6775 H   0  0  0  0  0  0  0  0  0  0  0  0
    0.0827   -2.6666    0.7352 H   0  0  0  0  0  0  0  0  0  0  0  0
    2.5866   -2.3672   -0.3845 H   0  0  0  0  0  0  0  0  0  0  0  0
    3.0670    1.8600   -0.0565 H   0  0  0  0  0  0  0  0  0  0  0  0
    1.2850    4.2430    2.2105 H   0  0  0  0  0  0  0  0  0  0  0  0
    1.5600    6.6528    2.1294 H   0  0  0  0  0  0  0  0  0  0  0  0
    3.1211    7.6813    0.5381 H   0  0  0  0  0  0  0  0  0  0  0  0
    5.3033    7.4280    1.5291 H   0  0  0  0  0  0  0  0  0  0  0  0
    6.4377    9.5837    1.9155 H   0  0  0  0  0  0  0  0  0  0  0  0
    8.5361   12.7307   -1.2171 H   0  0  0  0  0  0  0  0  0  0  0  0
    5.5972   11.8524   -1.2961 H   0  0  0  0  0  0  0  0  0  0  0  0
    4.2451   13.2322   -2.8383 H   0  0  0  0  0  0  0  0  0  0  0  0
    4.1839   14.2988   -5.0797 H   0  0  0  0  0  0  0  0  0  0  0  0
    6.3310   14.8879   -6.2127 H   0  0  0  0  0  0  0  0  0  0  0  0
    8.4667   14.4159   -5.0083 H   0  0  0  0  0  0  0  0  0  0  0  0
    8.9338    9.0139   -2.6478 H   0  0  0  0  0  0  0  0  0  0  0  0
    6.4218    7.4649   -2.6322 H   0  0  0  0  0  0  0  0  0  0  0  0
    4.3054    3.7819   -0.8417 H   0  0  0  0  0  0  0  0  0  0  0  0
  1  2  1  0  0  0  0
  1 34  1  0  0  0  0
  1 35  1  0  0  0  0
  1 36  1  0  0  0  0
  2  3  1  0  0  0  0
  2  6  1  0  0  0  0
  3  4  2  0  0  0  0
  3 37  1  0  0  0  0
  4  5  1  0  0  0  0
  4 38  1  0  0  0  0
  5  6  2  0  0  0  0
  6  7  1  0  0  0  0
  7  8  2  0  0  0  0
  7  9  1  0  0  0  0
  9 10  1  0  0  0  0
  9 39  1  0  0  0  0
 10 11  1  0  0  0  0
 10 33  2  0  0  0  0
 11 12  2  0  0  0  0
 11 40  1  0  0  0  0
 12 13  1  0  0  0  0
 12 41  1  0  0  0  0
 13 14  2  0  0  0  0
 13 42  1  0  0  0  0
 14 15  1  0  0  0  0
 14 33  1  0  0  0  0
 15 16  1  0  0  0  0
 16 17  1  0  0  0  0
 16 32  2  0  0  0  0
 17 18  2  0  0  0  0
 17 43  1  0  0  0  0
 18 19  1  0  0  0  0
 18 44  1  0  0  0  0
 19 20  1  0  0  0  0
 19 31  2  0  0  0  0
 20 21  1  0  0  0  0
 20 29  2  0  0  0  0
 21 22  2  0  0  0  0
 21 45  1  0  0  0  0
 22 23  1  0  0  0  0
 22 46  1  0  0  0  0
 23 24  1  0  0  0  0
 23 28  2  0  0  0  0
 24 25  2  0  0  0  0
 24 47  1  0  0  0  0
 25 26  1  0  0  0  0
 25 48  1  0  0  0  0
 26 27  2  0  0  0  0
 26 49  1  0  0  0  0
 27 28  1  0  0  0  0
 27 50  1  0  0  0  0
 29 30  1  0  0  0  0
 30 31  1  0  0  0  0
 30 51  1  0  0  0  0
 31 32  1  0  0  0  0
 32 52  1  0  0  0  0
 33 53  1  0  0  0  0
M  END
$$$$
