CHEMBL427139
 OpenBabel04072215383D

 50 54  0  0  0  0  0  0  0  0999 V2000
    1.1135    0.6857    0.3149 O   0  0  0  0  0  0  0  0  0  0  0  0
    2.2350    0.2250    0.1398 C   0  0  0  0  0  0  0  0  0  0  0  0
    2.8269    0.0883   -1.1098 N   0  0  0  0  0  0  0  0  0  0  0  0
    2.2281    0.4746   -2.3311 C   0  0  0  0  0  0  0  0  0  0  0  0
    1.1767    1.3923   -2.4079 C   0  0  0  0  0  0  0  0  0  0  0  0
    0.5138    1.6315   -3.6160 C   0  0  0  0  0  0  0  0  0  0  0  0
    0.8678    0.9336   -4.7733 C   0  0  0  0  0  0  0  0  0  0  0  0
   -0.0210    0.8654   -5.9487 C   0  0  0  0  0  0  0  0  0  0  0  0
    0.4912    0.8800   -7.2650 C   0  0  0  0  0  0  0  0  0  0  0  0
   -0.2545    0.4027   -8.3638 C   0  0  0  0  0  0  0  0  0  0  0  0
   -1.4935   -0.1939   -8.1574 C   0  0  0  0  0  0  0  0  0  0  0  0
   -1.9834   -0.1826   -6.8680 C   0  0  0  0  0  0  0  0  0  0  0  0
   -1.3402    0.4460   -5.8007 C   0  0  0  0  0  0  0  0  0  0  0  0
   -2.2024    0.2863   -4.5943 C   0  0  0  0  0  0  0  0  0  0  0  0
   -2.9473   -0.9053   -4.9047 N   0  0  0  0  0  0  0  0  0  0  0  0
   -2.9054   -1.1595   -6.2659 C   0  0  0  0  0  0  0  0  0  0  0  0
   -3.3470   -2.1453   -6.8271 O   0  0  0  0  0  0  0  0  0  0  0  0
    1.9994    0.0967   -4.7105 C   0  0  0  0  0  0  0  0  0  0  0  0
    2.6823   -0.1196   -3.5078 C   0  0  0  0  0  0  0  0  0  0  0  0
    3.0539   -0.2695    1.1422 N   0  0  0  0  0  0  0  0  0  0  0  0
    2.7454   -0.3495    2.5186 C   0  0  0  0  0  0  0  0  0  0  0  0
    1.5205    0.0722    3.0708 C   0  0  0  0  0  0  0  0  0  0  0  0
    1.2803    0.0113    4.4469 C   0  0  0  0  0  0  0  0  0  0  0  0
    2.2687   -0.4979    5.2628 C   0  0  0  0  0  0  0  0  0  0  0  0
    3.4748   -0.9501    4.7294 C   0  0  0  0  0  0  0  0  0  0  0  0
    3.7304   -0.8742    3.3662 C   0  0  0  0  0  0  0  0  0  0  0  0
    4.3945   -1.4293    5.8060 C   0  0  0  0  0  0  0  0  0  0  0  0
    3.4684   -1.4790    7.0319 C   0  0  0  0  0  0  0  0  0  0  0  0
    2.2629   -0.5716    6.7533 C   0  0  0  0  0  0  0  0  0  0  0  0
    3.5790   -0.5862   -1.1775 H   0  0  0  0  0  0  0  0  0  0  0  0
    0.8134    1.9125   -1.5270 H   0  0  0  0  0  0  0  0  0  0  0  0
   -0.3434    2.3009   -3.6089 H   0  0  0  0  0  0  0  0  0  0  0  0
    1.5244    1.1794   -7.4372 H   0  0  0  0  0  0  0  0  0  0  0  0
    0.1948    0.3878   -9.3548 H   0  0  0  0  0  0  0  0  0  0  0  0
   -2.0129   -0.7265   -8.9465 H   0  0  0  0  0  0  0  0  0  0  0  0
   -2.9307    1.1095   -4.5528 H   0  0  0  0  0  0  0  0  0  0  0  0
   -1.7061    0.1877   -3.6304 H   0  0  0  0  0  0  0  0  0  0  0  0
   -2.8269   -1.7290   -4.3266 H   0  0  0  0  0  0  0  0  0  0  0  0
    2.3055   -0.4756   -5.5853 H   0  0  0  0  0  0  0  0  0  0  0  0
    3.5125   -0.8207   -3.5008 H   0  0  0  0  0  0  0  0  0  0  0  0
    3.9872   -0.5415    0.8748 H   0  0  0  0  0  0  0  0  0  0  0  0
    0.7271    0.4865    2.4569 H   0  0  0  0  0  0  0  0  0  0  0  0
    0.3437    0.3758    4.8545 H   0  0  0  0  0  0  0  0  0  0  0  0
    4.6876   -1.2091    2.9811 H   0  0  0  0  0  0  0  0  0  0  0  0
    5.2125   -0.7180    5.9528 H   0  0  0  0  0  0  0  0  0  0  0  0
    4.7971   -2.4220    5.5811 H   0  0  0  0  0  0  0  0  0  0  0  0
    3.9908   -1.1891    7.9496 H   0  0  0  0  0  0  0  0  0  0  0  0
    3.1174   -2.5087    7.1788 H   0  0  0  0  0  0  0  0  0  0  0  0
    2.4102    0.4265    7.1796 H   0  0  0  0  0  0  0  0  0  0  0  0
    1.3374   -1.0077    7.1423 H   0  0  0  0  0  0  0  0  0  0  0  0
  1  2  2  0  0  0  0
  2  3  1  0  0  0  0
  2 20  1  0  0  0  0
  3  4  1  0  0  0  0
  3 30  1  0  0  0  0
  4  5  1  0  0  0  0
  4 19  2  0  0  0  0
  5  6  2  0  0  0  0
  5 31  1  0  0  0  0
  6  7  1  0  0  0  0
  6 32  1  0  0  0  0
  7  8  1  0  0  0  0
  7 18  2  0  0  0  0
  8  9  1  0  0  0  0
  8 13  2  0  0  0  0
  9 10  2  0  0  0  0
  9 33  1  0  0  0  0
 10 11  1  0  0  0  0
 10 34  1  0  0  0  0
 11 12  2  0  0  0  0
 11 35  1  0  0  0  0
 12 13  1  0  0  0  0
 12 16  1  0  0  0  0
 13 14  1  0  0  0  0
 14 15  1  0  0  0  0
 14 36  1  0  0  0  0
 14 37  1  0  0  0  0
 15 16  1  0  0  0  0
 15 38  1  0  0  0  0
 16 17  2  0  0  0  0
 18 19  1  0  0  0  0
 18 39  1  0  0  0  0
 19 40  1  0  0  0  0
 20 21  1  0  0  0  0
 20 41  1  0  0  0  0
 21 22  1  0  0  0  0
 21 26  2  0  0  0  0
 22 23  2  0  0  0  0
 22 42  1  0  0  0  0
 23 24  1  0  0  0  0
 23 43  1  0  0  0  0
 24 25  2  0  0  0  0
 24 29  1  0  0  0  0
 25 26  1  0  0  0  0
 25 27  1  0  0  0  0
 26 44  1  0  0  0  0
 27 28  1  0  0  0  0
 27 45  1  0  0  0  0
 27 46  1  0  0  0  0
 28 29  1  0  0  0  0
 28 47  1  0  0  0  0
 28 48  1  0  0  0  0
 29 49  1  0  0  0  0
 29 50  1  0  0  0  0
M  END
$$$$
