CHEMBL264803
 OpenBabel04072215363D

 89 93  0  0  0  0  0  0  0  0999 V2000
    0.5859    0.5737    1.2417 C   0  0  0  0  0  0  0  0  0  0  0  0
    1.9655    0.4851    0.9216 O   0  0  0  0  0  0  0  0  0  0  0  0
    2.7274   -0.4177    1.6071 C   0  0  0  0  0  0  0  0  0  0  0  0
    2.3144   -1.2885    2.6067 C   0  0  0  0  0  0  0  0  0  0  0  0
    3.2382   -2.1677    3.2032 C   0  0  0  0  0  0  0  0  0  0  0  0
    4.5985   -2.1578    2.8349 C   0  0  0  0  0  0  0  0  0  0  0  0
    5.5478   -3.0220    3.4850 N   0  0  0  0  0  0  0  0  0  0  0  0
    6.6526   -2.5429    4.1815 C   0  0  0  0  0  0  0  0  0  0  0  0
    7.6653   -3.2028    4.4145 O   0  0  0  0  0  0  0  0  0  0  0  0
    6.4509   -1.2518    4.6748 O   0  0  0  0  0  0  0  0  0  0  0  0
    7.1224   -0.7183    5.8129 C   0  0  0  0  0  0  0  0  0  0  0  0
    7.1641   -1.3730    7.0622 C   0  0  0  0  0  0  0  0  0  0  0  0
    6.7877   -2.8020    7.3513 C   0  0  0  0  0  0  0  0  0  0  0  0
    7.5617   -0.6218    8.1864 C   0  0  0  0  0  0  0  0  0  0  0  0
    7.9275    0.7168    8.0780 C   0  0  0  0  0  0  0  0  0  0  0  0
    7.9378    1.3311    6.8307 C   0  0  0  0  0  0  0  0  0  0  0  0
    7.5340    0.6280    5.6847 C   0  0  0  0  0  0  0  0  0  0  0  0
    7.5813    1.3152    4.3496 C   0  0  0  0  0  0  0  0  0  0  0  0
    5.1815   -4.3791    3.6629 C   0  0  0  0  0  0  0  0  0  0  0  0
    4.9792   -5.1491    2.5366 C   0  0  0  0  0  0  0  0  0  0  0  0
    4.6302   -6.4481    2.7612 C   0  0  0  0  0  0  0  0  0  0  0  0
    4.4081   -6.9347    3.9888 N   0  0  0  0  0  0  0  0  0  0  0  0
    4.6150   -6.1280    5.0431 C   0  0  0  0  0  0  0  0  0  0  0  0
    4.3374   -6.6262    6.3190 N   0  0  0  0  0  0  0  0  0  0  0  0
    3.3994   -7.6144    6.6661 C   0  0  0  0  0  0  0  0  0  0  0  0
    3.6146   -8.4687    7.7495 C   0  0  0  0  0  0  0  0  0  0  0  0
    2.7561   -9.5563    8.0087 C   0  0  0  0  0  0  0  0  0  0  0  0
    3.0190  -10.4720    8.9959 O   0  0  0  0  0  0  0  0  0  0  0  0
    3.9291  -10.1164   10.0281 C   0  0  0  0  0  0  0  0  0  0  0  0
    1.6359   -9.7776    7.1731 C   0  0  0  0  0  0  0  0  0  0  0  0
    0.6994  -10.7773    7.2800 O   0  0  0  0  0  0  0  0  0  0  0  0
    0.5439  -11.4656    8.5148 C   0  0  0  0  0  0  0  0  0  0  0  0
   -0.9513  -11.6777    8.7881 C   0  0  0  0  0  0  0  0  0  0  0  0
   -1.1918  -12.2755   10.1161 N   0  0  0  0  0  0  0  0  0  0  0  0
   -0.7431  -13.6815   10.2117 C   0  0  0  0  0  0  0  0  0  0  0  0
   -1.6473  -14.6740    9.4646 C   0  0  0  0  0  0  0  0  0  0  0  0
   -3.0076  -14.5715    9.9048 O   0  0  0  0  0  0  0  0  0  0  0  0
   -3.4956  -13.2337    9.7363 C   0  0  0  0  0  0  0  0  0  0  0  0
   -2.6206  -12.2184   10.4876 C   0  0  0  0  0  0  0  0  0  0  0  0
    1.4284   -8.9301    6.0699 C   0  0  0  0  0  0  0  0  0  0  0  0
    0.3618   -9.2026    5.2391 O   0  0  0  0  0  0  0  0  0  0  0  0
    0.4582   -8.6717    3.9185 C   0  0  0  0  0  0  0  0  0  0  0  0
    2.2854   -7.8519    5.8544 C   0  0  0  0  0  0  0  0  0  0  0  0
    5.0508   -4.8679    4.9208 N   0  0  0  0  0  0  0  0  0  0  0  0
    5.0073   -1.2783    1.8167 C   0  0  0  0  0  0  0  0  0  0  0  0
    6.3155   -1.3664    1.4050 O   0  0  0  0  0  0  0  0  0  0  0  0
    6.7762   -0.3442    0.5259 C   0  0  0  0  0  0  0  0  0  0  0  0
    4.0671   -0.4327    1.2124 C   0  0  0  0  0  0  0  0  0  0  0  0
    0.1435    1.3278    0.5826 H   0  0  0  0  0  0  0  0  0  0  0  0
    0.4412    0.9069    2.2739 H   0  0  0  0  0  0  0  0  0  0  0  0
    0.0744   -0.3747    1.0515 H   0  0  0  0  0  0  0  0  0  0  0  0
    1.2839   -1.3061    2.9520 H   0  0  0  0  0  0  0  0  0  0  0  0
    2.8905   -2.8175    4.0022 H   0  0  0  0  0  0  0  0  0  0  0  0
    6.6206   -3.4113    6.4707 H   0  0  0  0  0  0  0  0  0  0  0  0
    5.8860   -2.8371    7.9571 H   0  0  0  0  0  0  0  0  0  0  0  0
    7.6107   -3.2827    7.9019 H   0  0  0  0  0  0  0  0  0  0  0  0
    7.5681   -1.0866    9.1712 H   0  0  0  0  0  0  0  0  0  0  0  0
    8.2069    1.2763    8.9668 H   0  0  0  0  0  0  0  0  0  0  0  0
    8.2436    2.3720    6.7604 H   0  0  0  0  0  0  0  0  0  0  0  0
    7.7937    2.3872    4.4643 H   0  0  0  0  0  0  0  0  0  0  0  0
    6.6291    1.2236    3.8297 H   0  0  0  0  0  0  0  0  0  0  0  0
    8.3830    0.8823    3.7390 H   0  0  0  0  0  0  0  0  0  0  0  0
    5.1471   -4.7688    1.5380 H   0  0  0  0  0  0  0  0  0  0  0  0
    4.5168   -7.1606    1.9520 H   0  0  0  0  0  0  0  0  0  0  0  0
    4.9062   -6.2091    7.0366 H   0  0  0  0  0  0  0  0  0  0  0  0
    4.4935   -8.3018    8.3626 H   0  0  0  0  0  0  0  0  0  0  0  0
    3.8019  -10.8336   10.8456 H   0  0  0  0  0  0  0  0  0  0  0  0
    3.7266   -9.1193   10.4340 H   0  0  0  0  0  0  0  0  0  0  0  0
    4.9589  -10.1983    9.6688 H   0  0  0  0  0  0  0  0  0  0  0  0
    0.9200  -10.9052    9.3722 H   0  0  0  0  0  0  0  0  0  0  0  0
    1.0689  -12.4210    8.4240 H   0  0  0  0  0  0  0  0  0  0  0  0
   -1.4145  -12.2427    7.9702 H   0  0  0  0  0  0  0  0  0  0  0  0
   -1.4180  -10.6829    8.7566 H   0  0  0  0  0  0  0  0  0  0  0  0
   -0.7422  -13.9472   11.2769 H   0  0  0  0  0  0  0  0  0  0  0  0
    0.2949  -13.7972    9.8835 H   0  0  0  0  0  0  0  0  0  0  0  0
   -1.3124  -15.6963    9.6676 H   0  0  0  0  0  0  0  0  0  0  0  0
   -1.6057  -14.5249    8.3799 H   0  0  0  0  0  0  0  0  0  0  0  0
   -4.5147  -13.2040   10.1353 H   0  0  0  0  0  0  0  0  0  0  0  0
   -3.5539  -13.0033    8.6667 H   0  0  0  0  0  0  0  0  0  0  0  0
   -2.6846  -12.4311   11.5629 H   0  0  0  0  0  0  0  0  0  0  0  0
   -3.0141  -11.2034   10.3567 H   0  0  0  0  0  0  0  0  0  0  0  0
   -0.3192   -9.1348    3.3040 H   0  0  0  0  0  0  0  0  0  0  0  0
    1.4268   -8.9022    3.4579 H   0  0  0  0  0  0  0  0  0  0  0  0
    0.2739   -7.5917    3.9215 H   0  0  0  0  0  0  0  0  0  0  0  0
    2.0983   -7.1664    5.0360 H   0  0  0  0  0  0  0  0  0  0  0  0
    7.8330   -0.5282    0.3136 H   0  0  0  0  0  0  0  0  0  0  0  0
    6.6911    0.6378    1.0031 H   0  0  0  0  0  0  0  0  0  0  0  0
    6.2462   -0.3644   -0.4336 H   0  0  0  0  0  0  0  0  0  0  0  0
    4.3401    0.2369    0.4017 H   0  0  0  0  0  0  0  0  0  0  0  0
  1  2  1  0  0  0  0
  1 49  1  0  0  0  0
  1 50  1  0  0  0  0
  1 51  1  0  0  0  0
  2  3  1  0  0  0  0
  3  4  1  0  0  0  0
  3 48  2  0  0  0  0
  4  5  2  0  0  0  0
  4 52  1  0  0  0  0
  5  6  1  0  0  0  0
  5 53  1  0  0  0  0
  6  7  1  0  0  0  0
  6 45  2  0  0  0  0
  7  8  1  0  0  0  0
  7 19  1  0  0  0  0
  8  9  2  0  0  0  0
  8 10  1  0  0  0  0
 10 11  1  0  0  0  0
 11 12  1  0  0  0  0
 11 17  2  0  0  0  0
 12 13  1  0  0  0  0
 12 14  2  0  0  0  0
 13 54  1  0  0  0  0
 13 55  1  0  0  0  0
 13 56  1  0  0  0  0
 14 15  1  0  0  0  0
 14 57  1  0  0  0  0
 15 16  2  0  0  0  0
 15 58  1  0  0  0  0
 16 17  1  0  0  0  0
 16 59  1  0  0  0  0
 17 18  1  0  0  0  0
 18 60  1  0  0  0  0
 18 61  1  0  0  0  0
 18 62  1  0  0  0  0
 19 20  1  0  0  0  0
 19 44  2  0  0  0  0
 20 21  2  0  0  0  0
 20 63  1  0  0  0  0
 21 22  1  0  0  0  0
 21 64  1  0  0  0  0
 22 23  2  0  0  0  0
 23 24  1  0  0  0  0
 23 44  1  0  0  0  0
 24 25  1  0  0  0  0
 24 65  1  0  0  0  0
 25 26  1  0  0  0  0
 25 43  2  0  0  0  0
 26 27  2  0  0  0  0
 26 66  1  0  0  0  0
 27 28  1  0  0  0  0
 27 30  1  0  0  0  0
 28 29  1  0  0  0  0
 29 67  1  0  0  0  0
 29 68  1  0  0  0  0
 29 69  1  0  0  0  0
 30 31  1  0  0  0  0
 30 40  2  0  0  0  0
 31 32  1  0  0  0  0
 32 33  1  0  0  0  0
 32 70  1  0  0  0  0
 32 71  1  0  0  0  0
 33 34  1  0  0  0  0
 33 72  1  0  0  0  0
 33 73  1  0  0  0  0
 34 35  1  0  0  0  0
 34 39  1  0  0  0  0
 35 36  1  0  0  0  0
 35 74  1  0  0  0  0
 35 75  1  0  0  0  0
 36 37  1  0  0  0  0
 36 76  1  0  0  0  0
 36 77  1  0  0  0  0
 37 38  1  0  0  0  0
 38 39  1  0  0  0  0
 38 78  1  0  0  0  0
 38 79  1  0  0  0  0
 39 80  1  0  0  0  0
 39 81  1  0  0  0  0
 40 41  1  0  0  0  0
 40 43  1  0  0  0  0
 41 42  1  0  0  0  0
 42 82  1  0  0  0  0
 42 83  1  0  0  0  0
 42 84  1  0  0  0  0
 43 85  1  0  0  0  0
 45 46  1  0  0  0  0
 45 48  1  0  0  0  0
 46 47  1  0  0  0  0
 47 86  1  0  0  0  0
 47 87  1  0  0  0  0
 47 88  1  0  0  0  0
 48 89  1  0  0  0  0
M  END
$$$$
