CHEMBL214556
 OpenBabel04072215363D

 69 73  0  0  0  0  0  0  0  0999 V2000
   -1.8599   -2.0691   -1.2383 C   0  0  0  0  0  0  0  0  0  0  0  0
   -1.0115   -0.9933   -0.6040 C   0  0  0  0  0  0  0  0  0  0  0  0
   -1.5677    0.3040   -0.5950 C   0  0  0  0  0  0  0  0  0  0  0  0
   -0.9092    1.3689    0.0101 C   0  0  0  0  0  0  0  0  0  0  0  0
    0.3320    1.1659    0.6007 C   0  0  0  0  0  0  0  0  0  0  0  0
    0.9836    2.3149    1.2922 C   0  0  0  0  0  0  0  0  0  0  0  0
    0.2554    3.1545    1.8046 O   0  0  0  0  0  0  0  0  0  0  0  0
    2.3679    2.3380    1.2385 N   0  0  0  0  0  0  0  0  0  0  0  0
    3.2172    3.3118    1.8278 C   0  0  0  0  0  0  0  0  0  0  0  0
    2.7432    4.1849    2.8137 C   0  0  0  0  0  0  0  0  0  0  0  0
    3.5603    5.1706    3.3582 C   0  0  0  0  0  0  0  0  0  0  0  0
    4.8708    5.3005    2.9206 C   0  0  0  0  0  0  0  0  0  0  0  0
    5.3962    4.4296    1.9485 C   0  0  0  0  0  0  0  0  0  0  0  0
    6.8284    4.6405    1.5021 C   0  0  0  0  0  0  0  0  0  0  0  0
    7.4358    5.7088    2.0941 F   0  0  0  0  0  0  0  0  0  0  0  0
    7.6270    3.5709    1.7733 F   0  0  0  0  0  0  0  0  0  0  0  0
    6.9330    4.8623    0.1615 F   0  0  0  0  0  0  0  0  0  0  0  0
    4.5711    3.4032    1.4110 C   0  0  0  0  0  0  0  0  0  0  0  0
    5.1196    2.4282    0.3945 C   0  0  0  0  0  0  0  0  0  0  0  0
    0.9121   -0.1091    0.5721 C   0  0  0  0  0  0  0  0  0  0  0  0
    0.2671   -1.2205   -0.0249 C   0  0  0  0  0  0  0  0  0  0  0  0
    0.9636   -2.5401   -0.0007 C   0  0  0  0  0  0  0  0  0  0  0  0
    1.7525   -2.9327    1.0973 C   0  0  0  0  0  0  0  0  0  0  0  0
    2.4779   -4.1346    1.0938 C   0  0  0  0  0  0  0  0  0  0  0  0
    2.4107   -5.0161    0.0293 C   0  0  0  0  0  0  0  0  0  0  0  0
    3.1185   -6.1486    0.0493 N   0  0  0  0  0  0  0  0  0  0  0  0
    3.0101   -6.9804   -0.9958 C   0  0  0  0  0  0  0  0  0  0  0  0
    3.7713   -8.1373   -1.0494 N   0  0  0  0  0  0  0  0  0  0  0  0
    4.1261   -8.6741    0.2559 C   0  0  0  0  0  0  0  0  0  0  0  0
    4.9147   -9.9871    0.0824 C   0  0  0  0  0  0  0  0  0  0  0  0
    5.3891  -10.5811    1.3468 N   0  0  0  0  0  0  0  0  0  0  0  0
    6.2046  -11.7791    1.0870 C   0  0  0  0  0  0  0  0  0  0  0  0
    5.2087  -12.9204    1.0331 C   0  0  0  0  0  0  0  0  0  0  0  0
    4.2182  -12.5527    2.1190 C   0  0  0  0  0  0  0  0  0  0  0  0
    4.2928  -11.0353    2.2247 C   0  0  0  0  0  0  0  0  0  0  0  0
    2.1956   -6.7799   -2.0365 N   0  0  0  0  0  0  0  0  0  0  0  0
    1.5117   -5.6233   -2.0437 C   0  0  0  0  0  0  0  0  0  0  0  0
    1.5948   -4.6731   -1.0413 C   0  0  0  0  0  0  0  0  0  0  0  0
    0.9197   -3.4361   -1.0764 C   0  0  0  0  0  0  0  0  0  0  0  0
   -2.8910   -1.7299   -1.3855 H   0  0  0  0  0  0  0  0  0  0  0  0
   -1.9087   -2.9570   -0.6020 H   0  0  0  0  0  0  0  0  0  0  0  0
   -1.4788   -2.3245   -2.2309 H   0  0  0  0  0  0  0  0  0  0  0  0
   -2.5414    0.4875   -1.0451 H   0  0  0  0  0  0  0  0  0  0  0  0
   -1.3753    2.3517    0.0302 H   0  0  0  0  0  0  0  0  0  0  0  0
    2.8031    1.6894    0.5993 H   0  0  0  0  0  0  0  0  0  0  0  0
    1.7283    4.1155    3.1943 H   0  0  0  0  0  0  0  0  0  0  0  0
    3.1642    5.8407    4.1173 H   0  0  0  0  0  0  0  0  0  0  0  0
    5.4863    6.0935    3.3442 H   0  0  0  0  0  0  0  0  0  0  0  0
    6.1642    2.6087    0.1342 H   0  0  0  0  0  0  0  0  0  0  0  0
    4.5471    2.4889   -0.5368 H   0  0  0  0  0  0  0  0  0  0  0  0
    5.0666    1.4087    0.7920 H   0  0  0  0  0  0  0  0  0  0  0  0
    1.8766   -0.2516    1.0562 H   0  0  0  0  0  0  0  0  0  0  0  0
    1.8339   -2.3048    1.9830 H   0  0  0  0  0  0  0  0  0  0  0  0
    3.1076   -4.3840    1.9450 H   0  0  0  0  0  0  0  0  0  0  0  0
    3.2874   -8.7647   -1.6820 H   0  0  0  0  0  0  0  0  0  0  0  0
    3.2115   -8.8496    0.8328 H   0  0  0  0  0  0  0  0  0  0  0  0
    4.7504   -7.9612    0.8095 H   0  0  0  0  0  0  0  0  0  0  0  0
    5.7922   -9.7541   -0.5371 H   0  0  0  0  0  0  0  0  0  0  0  0
    4.3097  -10.6994   -0.4924 H   0  0  0  0  0  0  0  0  0  0  0  0
    6.8946  -11.9240    1.9274 H   0  0  0  0  0  0  0  0  0  0  0  0
    6.8139  -11.7093    0.1788 H   0  0  0  0  0  0  0  0  0  0  0  0
    5.6727  -13.8948    1.2084 H   0  0  0  0  0  0  0  0  0  0  0  0
    4.7052  -12.9534    0.0601 H   0  0  0  0  0  0  0  0  0  0  0  0
    4.5152  -13.0083    3.0709 H   0  0  0  0  0  0  0  0  0  0  0  0
    3.2085  -12.8993    1.8762 H   0  0  0  0  0  0  0  0  0  0  0  0
    4.5297  -10.7482    3.2569 H   0  0  0  0  0  0  0  0  0  0  0  0
    3.3230  -10.5901    1.9957 H   0  0  0  0  0  0  0  0  0  0  0  0
    0.8665   -5.4827   -2.9063 H   0  0  0  0  0  0  0  0  0  0  0  0
    0.3830   -3.1829   -1.9844 H   0  0  0  0  0  0  0  0  0  0  0  0
  1  2  1  0  0  0  0
  1 40  1  0  0  0  0
  1 41  1  0  0  0  0
  1 42  1  0  0  0  0
  2  3  1  0  0  0  0
  2 21  2  0  0  0  0
  3  4  2  0  0  0  0
  3 43  1  0  0  0  0
  4  5  1  0  0  0  0
  4 44  1  0  0  0  0
  5  6  1  0  0  0  0
  5 20  2  0  0  0  0
  6  7  2  0  0  0  0
  6  8  1  0  0  0  0
  8  9  1  0  0  0  0
  8 45  1  0  0  0  0
  9 10  1  0  0  0  0
  9 18  2  0  0  0  0
 10 11  2  0  0  0  0
 10 46  1  0  0  0  0
 11 12  1  0  0  0  0
 11 47  1  0  0  0  0
 12 13  2  0  0  0  0
 12 48  1  0  0  0  0
 13 14  1  0  0  0  0
 13 18  1  0  0  0  0
 14 15  1  0  0  0  0
 14 16  1  0  0  0  0
 14 17  1  0  0  0  0
 18 19  1  0  0  0  0
 19 49  1  0  0  0  0
 19 50  1  0  0  0  0
 19 51  1  0  0  0  0
 20 21  1  0  0  0  0
 20 52  1  0  0  0  0
 21 22  1  0  0  0  0
 22 23  1  0  0  0  0
 22 39  2  0  0  0  0
 23 24  2  0  0  0  0
 23 53  1  0  0  0  0
 24 25  1  0  0  0  0
 24 54  1  0  0  0  0
 25 26  1  0  0  0  0
 25 38  2  0  0  0  0
 26 27  2  0  0  0  0
 27 28  1  0  0  0  0
 27 36  1  0  0  0  0
 28 29  1  0  0  0  0
 28 55  1  0  0  0  0
 29 30  1  0  0  0  0
 29 56  1  0  0  0  0
 29 57  1  0  0  0  0
 30 31  1  0  0  0  0
 30 58  1  0  0  0  0
 30 59  1  0  0  0  0
 31 32  1  0  0  0  0
 31 35  1  0  0  0  0
 32 33  1  0  0  0  0
 32 60  1  0  0  0  0
 32 61  1  0  0  0  0
 33 34  1  0  0  0  0
 33 62  1  0  0  0  0
 33 63  1  0  0  0  0
 34 35  1  0  0  0  0
 34 64  1  0  0  0  0
 34 65  1  0  0  0  0
 35 66  1  0  0  0  0
 35 67  1  0  0  0  0
 36 37  2  0  0  0  0
 37 38  1  0  0  0  0
 37 68  1  0  0  0  0
 38 39  1  0  0  0  0
 39 69  1  0  0  0  0
M  END
$$$$
