CHEMBL256825
 OpenBabel04072215363D

 42 45  0  0  0  0  0  0  0  0999 V2000
    1.3245   -0.0340   -1.4237 N   0  0  0  0  0  0  0  0  0  0  0  0
    2.6351   -0.1765   -1.1686 C   0  0  0  0  0  0  0  0  0  0  0  0
    3.4940    0.7795   -1.5088 N   0  0  0  0  0  0  0  0  0  0  0  0
    4.6729    0.3224   -1.0752 N   0  0  0  0  0  0  0  0  0  0  0  0
    4.6106   -0.8964   -0.4601 C   0  0  0  0  0  0  0  0  0  0  0  0
    5.6064   -1.6701    0.1277 C   0  0  0  0  0  0  0  0  0  0  0  0
    5.1679   -2.8691    0.6549 C   0  0  0  0  0  0  0  0  0  0  0  0
    3.8960   -3.3139    0.5975 N   0  0  0  0  0  0  0  0  0  0  0  0
    2.9256   -2.5615   -0.0167 C   0  0  0  0  0  0  0  0  0  0  0  0
    1.5917   -3.1787   -0.1122 C   0  0  0  0  0  0  0  0  0  0  0  0
    1.1149   -4.0206    0.9067 C   0  0  0  0  0  0  0  0  0  0  0  0
   -0.1532   -4.6124    0.8347 C   0  0  0  0  0  0  0  0  0  0  0  0
   -0.9962   -4.3574   -0.2482 C   0  0  0  0  0  0  0  0  0  0  0  0
   -2.2805   -4.9224   -0.3781 N   0  0  0  0  0  0  0  0  0  0  0  0
   -3.0240   -5.4589    0.6542 C   0  0  0  0  0  0  0  0  0  0  0  0
   -2.7788   -5.3188    1.8439 O   0  0  0  0  0  0  0  0  0  0  0  0
   -4.0760   -6.2198    0.1599 N   0  0  0  0  0  0  0  0  0  0  0  0
   -4.9902   -6.8538    1.0286 C   0  0  0  0  0  0  0  0  0  0  0  0
   -5.3503   -8.1795    0.7723 C   0  0  0  0  0  0  0  0  0  0  0  0
   -6.2170   -8.8473    1.6406 C   0  0  0  0  0  0  0  0  0  0  0  0
   -6.7651   -8.1761    2.7341 C   0  0  0  0  0  0  0  0  0  0  0  0
   -6.4319   -6.8428    2.9654 C   0  0  0  0  0  0  0  0  0  0  0  0
   -7.1363   -6.0064    4.2949 Cl  0  0  0  0  0  0  0  0  0  0  0  0
   -5.5391   -6.1821    2.1246 C   0  0  0  0  0  0  0  0  0  0  0  0
   -0.5261   -3.5579   -1.2860 C   0  0  0  0  0  0  0  0  0  0  0  0
    0.7598   -3.0077   -1.2276 C   0  0  0  0  0  0  0  0  0  0  0  0
    3.2720   -1.2903   -0.5335 C   0  0  0  0  0  0  0  0  0  0  0  0
    1.0371    0.8781   -1.7628 H   0  0  0  0  0  0  0  0  0  0  0  0
    0.6372   -0.4673   -0.8162 H   0  0  0  0  0  0  0  0  0  0  0  0
    5.4931    0.8966   -1.2311 H   0  0  0  0  0  0  0  0  0  0  0  0
    6.6429   -1.3632    0.1777 H   0  0  0  0  0  0  0  0  0  0  0  0
    5.8641   -3.5417    1.1499 H   0  0  0  0  0  0  0  0  0  0  0  0
    1.7427   -4.2422    1.7703 H   0  0  0  0  0  0  0  0  0  0  0  0
   -0.4476   -5.2850    1.6357 H   0  0  0  0  0  0  0  0  0  0  0  0
   -2.7971   -4.7078   -1.2190 H   0  0  0  0  0  0  0  0  0  0  0  0
   -3.8549   -6.7043   -0.6984 H   0  0  0  0  0  0  0  0  0  0  0  0
   -4.9170   -8.7239   -0.0619 H   0  0  0  0  0  0  0  0  0  0  0  0
   -6.4559   -9.8943    1.4721 H   0  0  0  0  0  0  0  0  0  0  0  0
   -7.4461   -8.6957    3.4027 H   0  0  0  0  0  0  0  0  0  0  0  0
   -5.2803   -5.1451    2.3238 H   0  0  0  0  0  0  0  0  0  0  0  0
   -1.1416   -3.3431   -2.1545 H   0  0  0  0  0  0  0  0  0  0  0  0
    1.1074   -2.4385   -2.0864 H   0  0  0  0  0  0  0  0  0  0  0  0
  1  2  1  0  0  0  0
  1 28  1  0  0  0  0
  1 29  1  0  0  0  0
  2  3  2  0  0  0  0
  2 27  1  0  0  0  0
  3  4  1  0  0  0  0
  4  5  1  0  0  0  0
  4 30  1  0  0  0  0
  5  6  1  0  0  0  0
  5 27  2  0  0  0  0
  6  7  2  0  0  0  0
  6 31  1  0  0  0  0
  7  8  1  0  0  0  0
  7 32  1  0  0  0  0
  8  9  2  0  0  0  0
  9 10  1  0  0  0  0
  9 27  1  0  0  0  0
 10 11  1  0  0  0  0
 10 26  2  0  0  0  0
 11 12  2  0  0  0  0
 11 33  1  0  0  0  0
 12 13  1  0  0  0  0
 12 34  1  0  0  0  0
 13 14  1  0  0  0  0
 13 25  2  0  0  0  0
 14 15  1  0  0  0  0
 14 35  1  0  0  0  0
 15 16  2  0  0  0  0
 15 17  1  0  0  0  0
 17 18  1  0  0  0  0
 17 36  1  0  0  0  0
 18 19  1  0  0  0  0
 18 24  2  0  0  0  0
 19 20  2  0  0  0  0
 19 37  1  0  0  0  0
 20 21  1  0  0  0  0
 20 38  1  0  0  0  0
 21 22  2  0  0  0  0
 21 39  1  0  0  0  0
 22 23  1  0  0  0  0
 22 24  1  0  0  0  0
 24 40  1  0  0  0  0
 25 26  1  0  0  0  0
 25 41  1  0  0  0  0
 26 42  1  0  0  0  0
M  END
$$$$
