CHEMBL4090507
 OpenBabel04072215383D

 62 66  0  0  0  0  0  0  0  0999 V2000
    8.7348   -0.0773    0.1465 C   0  0  0  0  0  0  0  0  0  0  0  0
    7.9656   -0.3657    1.3117 O   0  0  0  0  0  0  0  0  0  0  0  0
    7.2263    0.6809    1.7920 C   0  0  0  0  0  0  0  0  0  0  0  0
    6.6773    1.6631    0.9404 C   0  0  0  0  0  0  0  0  0  0  0  0
    5.9627    2.7612    1.4048 C   0  0  0  0  0  0  0  0  0  0  0  0
    5.5543    3.6799    0.5176 N   0  0  0  0  0  0  0  0  0  0  0  0
    4.9260    4.7617    0.9945 C   0  0  0  0  0  0  0  0  0  0  0  0
    4.6410    5.0014    2.2773 N   0  0  0  0  0  0  0  0  0  0  0  0
    5.0103    4.0350    3.1583 C   0  0  0  0  0  0  0  0  0  0  0  0
    4.6430    4.2196    4.5198 N   0  0  0  0  0  0  0  0  0  0  0  0
    4.5215    3.1873    5.3873 N   0  0  0  0  0  0  0  0  0  0  0  0
    4.1764    3.7844    6.5168 C   0  0  0  0  0  0  0  0  0  0  0  0
    3.9095    3.0980    7.6418 N   0  0  0  0  0  0  0  0  0  0  0  0
    2.9401    3.4189    8.6073 C   0  0  0  0  0  0  0  0  0  0  0  0
    2.3174    2.3910    9.3173 C   0  0  0  0  0  0  0  0  0  0  0  0
    1.2618    2.6666   10.1901 C   0  0  0  0  0  0  0  0  0  0  0  0
    0.8600    3.9831   10.4469 C   0  0  0  0  0  0  0  0  0  0  0  0
   -0.1579    4.3821   11.5093 C   0  0  0  0  0  0  0  0  0  0  0  0
    0.4649    5.3558   12.5242 C   0  0  0  0  0  0  0  0  0  0  0  0
    1.5828    4.6618   13.3004 C   0  0  0  0  0  0  0  0  0  0  0  0
    1.1761    3.4281   13.9851 N   0  0  0  0  0  0  0  0  0  0  0  0
    2.3806    2.6481   14.3106 C   0  0  0  0  0  0  0  0  0  0  0  0
    0.2252    2.5656   13.2694 C   0  0  0  0  0  0  0  0  0  0  0  0
   -0.7829    3.2615   12.3466 C   0  0  0  0  0  0  0  0  0  0  0  0
    1.4922    5.0061    9.7314 C   0  0  0  0  0  0  0  0  0  0  0  0
    2.5290    4.7288    8.8504 C   0  0  0  0  0  0  0  0  0  0  0  0
    4.0507    5.1357    6.4260 N   0  0  0  0  0  0  0  0  0  0  0  0
    4.3071    5.3989    5.1727 C   0  0  0  0  0  0  0  0  0  0  0  0
    4.2982    6.6264    4.6175 N   0  0  0  0  0  0  0  0  0  0  0  0
    5.7245    2.8753    2.7757 C   0  0  0  0  0  0  0  0  0  0  0  0
    6.2655    1.8666    3.6224 C   0  0  0  0  0  0  0  0  0  0  0  0
    7.0010    0.7787    3.1582 C   0  0  0  0  0  0  0  0  0  0  0  0
    7.4181   -0.0054    4.1923 O   0  0  0  0  0  0  0  0  0  0  0  0
    8.1920   -1.1640    3.9526 C   0  0  0  0  0  0  0  0  0  0  0  0
    9.5471   -0.8070    0.0910 H   0  0  0  0  0  0  0  0  0  0  0  0
    9.1891    0.9204    0.1865 H   0  0  0  0  0  0  0  0  0  0  0  0
    8.1159   -0.1879   -0.7490 H   0  0  0  0  0  0  0  0  0  0  0  0
    6.8146    1.5942   -0.1343 H   0  0  0  0  0  0  0  0  0  0  0  0
    4.6162    5.5100    0.2719 H   0  0  0  0  0  0  0  0  0  0  0  0
    4.0386    2.0987    7.5396 H   0  0  0  0  0  0  0  0  0  0  0  0
    2.6268    1.3576    9.1802 H   0  0  0  0  0  0  0  0  0  0  0  0
    0.7813    1.8178   10.6615 H   0  0  0  0  0  0  0  0  0  0  0  0
   -0.9715    4.8954   10.9786 H   0  0  0  0  0  0  0  0  0  0  0  0
   -0.3065    5.7138   13.2174 H   0  0  0  0  0  0  0  0  0  0  0  0
    0.8661    6.2529   12.0400 H   0  0  0  0  0  0  0  0  0  0  0  0
    1.9498    5.3646   14.0590 H   0  0  0  0  0  0  0  0  0  0  0  0
    2.4272    4.4788   12.6229 H   0  0  0  0  0  0  0  0  0  0  0  0
    3.1544    3.2777   14.7629 H   0  0  0  0  0  0  0  0  0  0  0  0
    2.8189    2.1854   13.4149 H   0  0  0  0  0  0  0  0  0  0  0  0
    2.1433    1.8546   15.0254 H   0  0  0  0  0  0  0  0  0  0  0  0
   -0.3435    1.9979   14.0166 H   0  0  0  0  0  0  0  0  0  0  0  0
    0.7563    1.8021   12.6940 H   0  0  0  0  0  0  0  0  0  0  0  0
   -1.5753    3.6990   12.9694 H   0  0  0  0  0  0  0  0  0  0  0  0
   -1.2770    2.5239   11.7028 H   0  0  0  0  0  0  0  0  0  0  0  0
    1.2044    6.0457    9.8640 H   0  0  0  0  0  0  0  0  0  0  0  0
    3.0068    5.5709    8.3609 H   0  0  0  0  0  0  0  0  0  0  0  0
    3.8235    7.3529    5.1440 H   0  0  0  0  0  0  0  0  0  0  0  0
    4.1941    6.6992    3.6077 H   0  0  0  0  0  0  0  0  0  0  0  0
    6.1604    1.9169    4.7018 H   0  0  0  0  0  0  0  0  0  0  0  0
    8.5354   -1.5225    4.9299 H   0  0  0  0  0  0  0  0  0  0  0  0
    9.0863   -0.9468    3.3645 H   0  0  0  0  0  0  0  0  0  0  0  0
    7.5793   -1.9525    3.5071 H   0  0  0  0  0  0  0  0  0  0  0  0
  1  2  1  0  0  0  0
  1 35  1  0  0  0  0
  1 36  1  0  0  0  0
  1 37  1  0  0  0  0
  2  3  1  0  0  0  0
  3  4  1  0  0  0  0
  3 32  2  0  0  0  0
  4  5  2  0  0  0  0
  4 38  1  0  0  0  0
  5  6  1  0  0  0  0
  5 30  1  0  0  0  0
  6  7  2  0  0  0  0
  7  8  1  0  0  0  0
  7 39  1  0  0  0  0
  8  9  2  0  0  0  0
  9 10  1  0  0  0  0
  9 30  1  0  0  0  0
 10 11  1  0  0  0  0
 10 28  1  0  0  0  0
 11 12  2  0  0  0  0
 12 13  1  0  0  0  0
 12 27  1  0  0  0  0
 13 14  1  0  0  0  0
 13 40  1  0  0  0  0
 14 15  1  0  0  0  0
 14 26  2  0  0  0  0
 15 16  2  0  0  0  0
 15 41  1  0  0  0  0
 16 17  1  0  0  0  0
 16 42  1  0  0  0  0
 17 18  1  0  0  0  0
 17 25  2  0  0  0  0
 18 19  1  0  0  0  0
 18 24  1  0  0  0  0
 18 43  1  0  0  0  0
 19 20  1  0  0  0  0
 19 44  1  0  0  0  0
 19 45  1  0  0  0  0
 20 21  1  0  0  0  0
 20 46  1  0  0  0  0
 20 47  1  0  0  0  0
 21 22  1  0  0  0  0
 21 23  1  0  0  0  0
 22 48  1  0  0  0  0
 22 49  1  0  0  0  0
 22 50  1  0  0  0  0
 23 24  1  0  0  0  0
 23 51  1  0  0  0  0
 23 52  1  0  0  0  0
 24 53  1  0  0  0  0
 24 54  1  0  0  0  0
 25 26  1  0  0  0  0
 25 55  1  0  0  0  0
 26 56  1  0  0  0  0
 27 28  2  0  0  0  0
 28 29  1  0  0  0  0
 29 57  1  0  0  0  0
 29 58  1  0  0  0  0
 30 31  2  0  0  0  0
 31 32  1  0  0  0  0
 31 59  1  0  0  0  0
 32 33  1  0  0  0  0
 33 34  1  0  0  0  0
 34 60  1  0  0  0  0
 34 61  1  0  0  0  0
 34 62  1  0  0  0  0
M  END
$$$$
