CHEMBL3933492
 OpenBabel04072215373D

 54 57  0  0  0  0  0  0  0  0999 V2000
    2.0611    0.8114    2.9963 Cl  0  0  0  0  0  0  0  0  0  0  0  0
   -1.5412    0.7216    0.9254 C   0  0  0  0  0  0  0  0  0  0  0  0
   -0.4918    0.0859    0.1385 N   0  0  0  0  0  0  0  0  0  0  0  0
    0.4485   -0.7659    0.5939 C   0  0  0  0  0  0  0  0  0  0  0  0
    1.2534   -1.1140   -0.4709 C   0  0  0  0  0  0  0  0  0  0  0  0
    2.4599   -1.9655   -0.4638 C   0  0  0  0  0  0  0  0  0  0  0  0
    2.8744   -2.6382   -1.6237 C   0  0  0  0  0  0  0  0  0  0  0  0
    4.0270   -3.3574   -1.6112 N   0  0  0  0  0  0  0  0  0  0  0  0
    4.8269   -3.3821   -0.5147 C   0  0  0  0  0  0  0  0  0  0  0  0
    6.0539   -4.0418   -0.5487 C   0  0  0  0  0  0  0  0  0  0  0  0
    6.9300   -3.9427    0.5354 C   0  0  0  0  0  0  0  0  0  0  0  0
    6.6028   -3.1744    1.6775 C   0  0  0  0  0  0  0  0  0  0  0  0
    7.5893   -2.9437    2.7176 N   0  0  0  0  0  0  0  0  0  0  0  0
    7.1489   -2.8236    4.1167 C   0  0  0  0  0  0  0  0  0  0  0  0
    7.4211   -4.1174    4.9082 C   0  0  0  0  0  0  0  0  0  0  0  0
    6.4833   -5.2891    4.6939 C   0  0  0  0  0  0  0  0  0  0  0  0
    6.3414   -4.4106    5.9430 C   0  0  0  0  0  0  0  0  0  0  0  0
    8.9282   -2.4803    2.3539 C   0  0  0  0  0  0  0  0  0  0  0  0
    9.9194   -2.2381    3.3338 C   0  0  0  0  0  0  0  0  0  0  0  0
   11.1797   -1.7239    2.9969 C   0  0  0  0  0  0  0  0  0  0  0  0
   11.5044   -1.4569    1.6716 C   0  0  0  0  0  0  0  0  0  0  0  0
   10.5705   -1.7040    0.6569 C   0  0  0  0  0  0  0  0  0  0  0  0
   10.8266   -1.4868   -0.6665 O   0  0  0  0  0  0  0  0  0  0  0  0
   12.0366   -1.5003   -1.3427 C   0  0  0  0  0  0  0  0  0  0  0  0
   13.0983   -1.9161   -0.5555 F   0  0  0  0  0  0  0  0  0  0  0  0
   11.9380   -2.3872   -2.4001 F   0  0  0  0  0  0  0  0  0  0  0  0
   12.3015   -0.2407   -1.8471 F   0  0  0  0  0  0  0  0  0  0  0  0
    9.2973   -2.1766    1.0064 C   0  0  0  0  0  0  0  0  0  0  0  0
    5.3060   -2.5959    1.7333 C   0  0  0  0  0  0  0  0  0  0  0  0
    4.4347   -2.6864    0.6410 C   0  0  0  0  0  0  0  0  0  0  0  0
    3.2424   -2.0274    0.6502 N   0  0  0  0  0  0  0  0  0  0  0  0
    0.7289   -0.4400   -1.5602 C   0  0  0  0  0  0  0  0  0  0  0  0
   -0.3271    0.2932   -1.1582 N   0  0  0  0  0  0  0  0  0  0  0  0
    2.6195    0.5642    1.7618 H   0  0  0  0  0  0  0  0  0  0  0  0
   -1.5052    0.3787    1.9811 H   0  0  0  0  0  0  0  0  0  0  0  0
   -2.5336    0.4707    0.4960 H   0  0  0  0  0  0  0  0  0  0  0  0
   -1.4052    1.8240    0.9025 H   0  0  0  0  0  0  0  0  0  0  0  0
    0.5385   -1.1050    1.6173 H   0  0  0  0  0  0  0  0  0  0  0  0
    2.2861   -2.5959   -2.5301 H   0  0  0  0  0  0  0  0  0  0  0  0
    6.3551   -4.5877   -1.4348 H   0  0  0  0  0  0  0  0  0  0  0  0
    7.8939   -4.4304    0.4603 H   0  0  0  0  0  0  0  0  0  0  0  0
    6.0793   -2.5870    4.1878 H   0  0  0  0  0  0  0  0  0  0  0  0
    7.6214   -1.9560    4.6206 H   0  0  0  0  0  0  0  0  0  0  0  0
    8.4418   -4.3682    5.2683 H   0  0  0  0  0  0  0  0  0  0  0  0
    7.0954   -6.2133    4.7796 H   0  0  0  0  0  0  0  0  0  0  0  0
    5.8713   -5.0733    3.7920 H   0  0  0  0  0  0  0  0  0  0  0  0
    6.5664   -5.0888    6.7912 H   0  0  0  0  0  0  0  0  0  0  0  0
    5.3108   -4.0018    5.8467 H   0  0  0  0  0  0  0  0  0  0  0  0
    9.7462   -2.4281    4.3841 H   0  0  0  0  0  0  0  0  0  0  0  0
   11.9105   -1.5228    3.7700 H   0  0  0  0  0  0  0  0  0  0  0  0
   12.4780   -1.0449    1.4554 H   0  0  0  0  0  0  0  0  0  0  0  0
    8.6166   -2.2815    0.1815 H   0  0  0  0  0  0  0  0  0  0  0  0
    4.9763   -1.9926    2.5632 H   0  0  0  0  0  0  0  0  0  0  0  0
    1.1198   -0.4382   -2.5687 H   0  0  0  0  0  0  0  0  0  0  0  0
  1 34  1  0  0  0  0
  2  3  1  0  0  0  0
  2 35  1  0  0  0  0
  2 36  1  0  0  0  0
  2 37  1  0  0  0  0
  3  4  1  0  0  0  0
  3 33  1  0  0  0  0
  4  5  2  0  0  0  0
  4 38  1  0  0  0  0
  5  6  1  0  0  0  0
  5 32  1  0  0  0  0
  6  7  1  0  0  0  0
  6 31  2  0  0  0  0
  7  8  2  0  0  0  0
  7 39  1  0  0  0  0
  8  9  1  0  0  0  0
  9 10  1  0  0  0  0
  9 30  2  0  0  0  0
 10 11  2  0  0  0  0
 10 40  1  0  0  0  0
 11 12  1  0  0  0  0
 11 41  1  0  0  0  0
 12 13  1  0  0  0  0
 12 29  2  0  0  0  0
 13 14  1  0  0  0  0
 13 18  1  0  0  0  0
 14 15  1  0  0  0  0
 14 42  1  0  0  0  0
 14 43  1  0  0  0  0
 15 16  1  0  0  0  0
 15 17  1  0  0  0  0
 15 44  1  0  0  0  0
 16 17  1  0  0  0  0
 16 45  1  0  0  0  0
 16 46  1  0  0  0  0
 17 47  1  0  0  0  0
 17 48  1  0  0  0  0
 18 19  1  0  0  0  0
 18 28  2  0  0  0  0
 19 20  2  0  0  0  0
 19 49  1  0  0  0  0
 20 21  1  0  0  0  0
 20 50  1  0  0  0  0
 21 22  2  0  0  0  0
 21 51  1  0  0  0  0
 22 23  1  0  0  0  0
 22 28  1  0  0  0  0
 23 24  1  0  0  0  0
 24 25  1  0  0  0  0
 24 26  1  0  0  0  0
 24 27  1  0  0  0  0
 28 52  1  0  0  0  0
 29 30  1  0  0  0  0
 29 53  1  0  0  0  0
 30 31  1  0  0  0  0
 32 33  2  0  0  0  0
 32 54  1  0  0  0  0
M  END
$$$$
