CHEMBL604912
 OpenBabel04072215383D

 42 45  0  0  0  0  0  0  0  0999 V2000
    1.4602    0.7591    0.4393 C   0  0  0  0  0  0  0  0  0  0  0  0
    2.6199    0.0208    0.0786 O   0  0  0  0  0  0  0  0  0  0  0  0
    3.2568    0.3977   -1.0700 C   0  0  0  0  0  0  0  0  0  0  0  0
    2.9020    1.4515   -1.9048 C   0  0  0  0  0  0  0  0  0  0  0  0
    3.6399    1.7048   -3.0687 C   0  0  0  0  0  0  0  0  0  0  0  0
    4.7079    0.8756   -3.4634 C   0  0  0  0  0  0  0  0  0  0  0  0
    5.0264   -0.2136   -2.6234 C   0  0  0  0  0  0  0  0  0  0  0  0
    4.3459   -0.4016   -1.4125 C   0  0  0  0  0  0  0  0  0  0  0  0
    5.9888   -1.1959   -2.9262 N   0  0  0  0  0  0  0  0  0  0  0  0
    6.2592   -1.7293   -4.1558 C   0  0  0  0  0  0  0  0  0  0  0  0
    7.0580   -2.6660   -4.2531 O   0  0  0  0  0  0  0  0  0  0  0  0
    5.5006   -1.2169   -5.3552 C   0  0  0  0  0  0  0  0  0  0  0  0
    5.8276    0.2116   -5.5999 C   0  0  0  0  0  0  0  0  0  0  0  0
    6.5550    0.6375   -6.6876 C   0  0  0  0  0  0  0  0  0  0  0  0
    6.8963    1.9211   -6.8956 N   0  0  0  0  0  0  0  0  0  0  0  0
    6.4795    2.8139   -5.9860 C   0  0  0  0  0  0  0  0  0  0  0  0
    6.8025    4.1402   -6.2603 N   0  0  0  0  0  0  0  0  0  0  0  0
    6.3136    5.3324   -5.7120 C   0  0  0  0  0  0  0  0  0  0  0  0
    6.4199    6.5185   -6.4552 C   0  0  0  0  0  0  0  0  0  0  0  0
    5.8854    7.7203   -5.9774 C   0  0  0  0  0  0  0  0  0  0  0  0
    5.2489    7.7602   -4.7387 C   0  0  0  0  0  0  0  0  0  0  0  0
    5.1581    6.5957   -3.9902 C   0  0  0  0  0  0  0  0  0  0  0  0
    4.5584    6.5761   -2.7654 O   0  0  0  0  0  0  0  0  0  0  0  0
    5.6798    5.3999   -4.4667 C   0  0  0  0  0  0  0  0  0  0  0  0
    5.7606    2.4793   -4.9043 N   0  0  0  0  0  0  0  0  0  0  0  0
    5.4554    1.1831   -4.6999 C   0  0  0  0  0  0  0  0  0  0  0  0
    1.0590    0.3224    1.3589 H   0  0  0  0  0  0  0  0  0  0  0  0
    0.6852    0.6828   -0.3309 H   0  0  0  0  0  0  0  0  0  0  0  0
    1.7136    1.8033    0.6463 H   0  0  0  0  0  0  0  0  0  0  0  0
    2.0614    2.1006   -1.6837 H   0  0  0  0  0  0  0  0  0  0  0  0
    3.3629    2.5586   -3.6878 H   0  0  0  0  0  0  0  0  0  0  0  0
    4.6070   -1.2296   -0.7566 H   0  0  0  0  0  0  0  0  0  0  0  0
    6.3785   -1.7407   -2.1651 H   0  0  0  0  0  0  0  0  0  0  0  0
    4.4218   -1.3500   -5.1962 H   0  0  0  0  0  0  0  0  0  0  0  0
    5.7550   -1.8322   -6.2253 H   0  0  0  0  0  0  0  0  0  0  0  0
    6.8977   -0.0548   -7.4480 H   0  0  0  0  0  0  0  0  0  0  0  0
    7.2893    4.1926   -7.1415 H   0  0  0  0  0  0  0  0  0  0  0  0
    6.9026    6.5126   -7.4295 H   0  0  0  0  0  0  0  0  0  0  0  0
    5.9604    8.6219   -6.5789 H   0  0  0  0  0  0  0  0  0  0  0  0
    4.8299    8.6939   -4.3798 H   0  0  0  0  0  0  0  0  0  0  0  0
    4.3763    7.4894   -2.4966 H   0  0  0  0  0  0  0  0  0  0  0  0
    5.5881    4.5229   -3.8338 H   0  0  0  0  0  0  0  0  0  0  0  0
  1  2  1  0  0  0  0
  1 27  1  0  0  0  0
  1 28  1  0  0  0  0
  1 29  1  0  0  0  0
  2  3  1  0  0  0  0
  3  4  1  0  0  0  0
  3  8  2  0  0  0  0
  4  5  2  0  0  0  0
  4 30  1  0  0  0  0
  5  6  1  0  0  0  0
  5 31  1  0  0  0  0
  6  7  2  0  0  0  0
  6 26  1  0  0  0  0
  7  8  1  0  0  0  0
  7  9  1  0  0  0  0
  8 32  1  0  0  0  0
  9 10  1  0  0  0  0
  9 33  1  0  0  0  0
 10 11  2  0  0  0  0
 10 12  1  0  0  0  0
 12 13  1  0  0  0  0
 12 34  1  0  0  0  0
 12 35  1  0  0  0  0
 13 14  1  0  0  0  0
 13 26  2  0  0  0  0
 14 15  2  0  0  0  0
 14 36  1  0  0  0  0
 15 16  1  0  0  0  0
 16 17  1  0  0  0  0
 16 25  2  0  0  0  0
 17 18  1  0  0  0  0
 17 37  1  0  0  0  0
 18 19  1  0  0  0  0
 18 24  2  0  0  0  0
 19 20  2  0  0  0  0
 19 38  1  0  0  0  0
 20 21  1  0  0  0  0
 20 39  1  0  0  0  0
 21 22  2  0  0  0  0
 21 40  1  0  0  0  0
 22 23  1  0  0  0  0
 22 24  1  0  0  0  0
 23 41  1  0  0  0  0
 24 42  1  0  0  0  0
 25 26  1  0  0  0  0
M  END
$$$$
