CHEMBL3939764
 OpenBabel04072215373D

 57 60  0  0  1  0  0  0  0  0999 V2000
    7.2408   -8.1987   -2.4115 C   0  0  0  0  0  0  0  0  0  0  0  0
    6.6666   -7.1809   -3.1970 O   0  0  0  0  0  0  0  0  0  0  0  0
    6.1457   -6.2245   -2.3709 C   0  0  0  0  0  0  0  0  0  0  0  0
    6.5290   -5.8521   -1.1753 C   0  0  0  0  0  0  0  0  0  0  0  0
    6.0938   -4.5979   -0.5908 C   0  0  0  0  0  0  0  0  0  0  0  0
    6.5586   -4.2643    0.6512 O   0  0  0  0  0  0  0  0  0  0  0  0
    6.8087   -5.4340    1.4129 C   0  0  0  0  0  0  0  0  0  0  0  0
    5.2685   -3.6018   -1.1864 C   0  0  0  0  0  0  0  0  0  0  0  0
    4.9260   -3.8057   -2.4829 C   0  0  0  0  0  0  0  0  0  0  0  0
    4.1999   -2.6343   -3.2866 N   0  0  0  0  0  0  0  0  0  0  0  0
    4.4239   -0.9982   -2.9935 C   0  0  0  0  0  0  0  0  0  0  0  0
    5.7705   -0.4044   -2.4419 C   0  0  2  0  0  0  0  0  0  0  0  0
    6.0011    0.9749   -2.4035 O   0  0  0  0  0  0  0  0  0  0  0  0
    6.5691   -0.8400   -3.5057 C   0  0  0  0  0  0  0  0  0  0  0  0
    7.8650   -0.2310   -2.6380 O   0  0  0  0  0  0  0  0  0  0  0  0
    2.7505   -2.7448   -3.6745 C   0  0  0  0  0  0  0  0  0  0  0  0
    2.4034   -2.0911   -4.8187 C   0  0  0  0  0  0  0  0  0  0  0  0
    1.0904   -1.9765   -5.1214 C   0  0  0  0  0  0  0  0  0  0  0  0
    0.0804   -2.2536   -4.1441 C   0  0  0  0  0  0  0  0  0  0  0  0
   -0.6379   -1.2192   -4.1636 N   0  0  0  0  0  0  0  0  0  0  0  0
   -1.5216   -1.3806   -5.0945 C   0  0  0  0  0  0  0  0  0  0  0  0
   -2.4947   -2.1846   -4.8083 C   0  0  0  0  0  0  0  0  0  0  0  0
   -3.7402   -1.3552   -5.7260 C   0  0  0  0  0  0  0  0  0  0  0  0
   -3.8780   -0.4986   -6.9685 C   0  0  0  0  0  0  0  0  0  0  0  0
   -5.0774   -0.5360   -7.6327 N   0  0  0  0  0  0  0  0  0  0  0  0
   -5.8006   -1.4808   -7.0129 N   0  0  0  0  0  0  0  0  0  0  0  0
   -7.1863   -1.8184   -7.4442 C   0  0  0  0  0  0  0  0  0  0  0  0
   -5.0345   -2.0047   -5.9442 C   0  0  0  0  0  0  0  0  0  0  0  0
   -1.9035   -3.1591   -3.7442 N   0  0  0  0  0  0  0  0  0  0  0  0
   -0.2373   -3.2257   -3.3917 C   0  0  0  0  0  0  0  0  0  0  0  0
    1.4660   -3.3287   -2.9993 C   0  0  0  0  0  0  0  0  0  0  0  0
    5.4106   -5.2288   -2.8960 C   0  0  0  0  0  0  0  0  0  0  0  0
    7.5988   -9.0008   -3.0616 H   0  0  0  0  0  0  0  0  0  0  0  0
    6.4984   -8.5994   -1.7121 H   0  0  0  0  0  0  0  0  0  0  0  0
    8.0832   -7.7434   -1.8993 H   0  0  0  0  0  0  0  0  0  0  0  0
    7.2235   -6.5471   -0.7477 H   0  0  0  0  0  0  0  0  0  0  0  0
    7.0919   -5.1133    2.3999 H   0  0  0  0  0  0  0  0  0  0  0  0
    7.6374   -6.0130    0.9737 H   0  0  0  0  0  0  0  0  0  0  0  0
    5.8985   -6.0517    1.4892 H   0  0  0  0  0  0  0  0  0  0  0  0
    5.0204   -2.6791   -0.6779 H   0  0  0  0  0  0  0  0  0  0  0  0
    3.6455   -0.6201   -2.3118 H   0  0  0  0  0  0  0  0  0  0  0  0
    4.3287   -0.5423   -3.9731 H   0  0  0  0  0  0  0  0  0  0  0  0
    6.2564   -0.9321   -1.5957 H   0  0  0  0  0  0  0  0  0  0  0  0
    5.9206    1.2750   -3.3258 H   0  0  0  0  0  0  0  0  0  0  0  0
    6.4073   -0.4453   -4.5242 H   0  0  0  0  0  0  0  0  0  0  0  0
    6.4144   -1.9741   -3.6708 H   0  0  0  0  0  0  0  0  0  0  0  0
    8.7148   -0.0115   -3.0713 H   0  0  0  0  0  0  0  0  0  0  0  0
    3.0804   -1.4731   -5.4090 H   0  0  0  0  0  0  0  0  0  0  0  0
    0.8185   -1.2025   -5.8354 H   0  0  0  0  0  0  0  0  0  0  0  0
   -1.4451   -0.7369   -5.9179 H   0  0  0  0  0  0  0  0  0  0  0  0
   -3.1929    0.1765   -7.4779 H   0  0  0  0  0  0  0  0  0  0  0  0
   -7.6097   -1.1142   -8.1857 H   0  0  0  0  0  0  0  0  0  0  0  0
   -7.8635   -1.8013   -6.5794 H   0  0  0  0  0  0  0  0  0  0  0  0
   -7.2457   -2.8194   -7.8991 H   0  0  0  0  0  0  0  0  0  0  0  0
   -5.4927   -2.8477   -5.4575 H   0  0  0  0  0  0  0  0  0  0  0  0
    1.8686   -3.9246   -2.0753 H   0  0  0  0  0  0  0  0  0  0  0  0
    5.6148   -5.6715   -3.8729 H   0  0  0  0  0  0  0  0  0  0  0  0
  1  2  1  0  0  0  0
  1 33  1  0  0  0  0
  1 34  1  0  0  0  0
  1 35  1  0  0  0  0
  2  3  1  0  0  0  0
  3  4  1  0  0  0  0
  3 32  2  0  0  0  0
  4  5  2  0  0  0  0
  4 36  1  0  0  0  0
  5  6  1  0  0  0  0
  5  8  1  0  0  0  0
  6  7  1  0  0  0  0
  7 37  1  0  0  0  0
  7 38  1  0  0  0  0
  7 39  1  0  0  0  0
  8  9  2  0  0  0  0
  8 40  1  0  0  0  0
  9 10  1  0  0  0  0
  9 32  1  0  0  0  0
 10 11  1  0  0  0  0
 10 16  1  0  0  0  0
 11 41  1  0  0  0  0
 11 42  1  0  0  0  0
 12 14  1  0  0  0  0
 12 13  1  0  0  0  0
 12 11  1  0  0  0  0
 12 43  1  1  0  0  0
 13 44  1  0  0  0  0
 14 15  1  0  0  0  0
 14 45  1  0  0  0  0
 14 46  1  0  0  0  0
 15 47  1  0  0  0  0
 16 17  1  0  0  0  0
 16 31  2  0  0  0  0
 17 18  2  0  0  0  0
 17 48  1  0  0  0  0
 18 19  1  0  0  0  0
 18 49  1  0  0  0  0
 19 20  1  0  0  0  0
 19 30  2  0  0  0  0
 20 21  2  0  0  0  0
 21 22  1  0  0  0  0
 21 50  1  0  0  0  0
 22 23  1  0  0  0  0
 22 29  2  0  0  0  0
 23 24  1  0  0  0  0
 23 28  2  0  0  0  0
 24 25  2  0  0  0  0
 24 51  1  0  0  0  0
 25 26  1  0  0  0  0
 26 27  1  0  0  0  0
 26 28  1  0  0  0  0
 27 52  1  0  0  0  0
 27 53  1  0  0  0  0
 27 54  1  0  0  0  0
 28 55  1  0  0  0  0
 29 30  1  0  0  0  0
 30 31  1  0  0  0  0
 31 56  1  0  0  0  0
 32 57  1  0  0  0  0
M  END
$$$$
