CHEMBL497049
 OpenBabel04072215383D

 64 68  0  0  0  0  0  0  0  0999 V2000
    1.0426   -0.5710    0.7462 C   0  0  0  0  0  0  0  0  0  0  0  0
    2.4712   -0.5373    0.7314 O   0  0  0  0  0  0  0  0  0  0  0  0
    3.0130   -1.0851   -0.3842 C   0  0  0  0  0  0  0  0  0  0  0  0
    2.3924   -1.5539   -1.3224 O   0  0  0  0  0  0  0  0  0  0  0  0
    4.5011   -1.0956   -0.3040 C   0  0  0  0  0  0  0  0  0  0  0  0
    5.2293   -0.5646    0.7854 C   0  0  0  0  0  0  0  0  0  0  0  0
    6.6324   -0.6830    0.8549 C   0  0  0  0  0  0  0  0  0  0  0  0
    7.2950   -1.3523   -0.1611 C   0  0  0  0  0  0  0  0  0  0  0  0
    6.5502   -1.8421   -1.2431 C   0  0  0  0  0  0  0  0  0  0  0  0
    5.1801   -1.7209   -1.3515 C   0  0  0  0  0  0  0  0  0  0  0  0
    7.3572   -2.5209   -2.1403 N   0  0  0  0  0  0  0  0  0  0  0  0
    8.6582   -2.5994   -1.6851 C   0  0  0  0  0  0  0  0  0  0  0  0
    9.5101   -3.3251   -2.1609 O   0  0  0  0  0  0  0  0  0  0  0  0
    8.7014   -1.7270   -0.4401 C   0  0  0  0  0  0  0  0  0  0  0  0
    9.8688   -1.4419    0.1842 C   0  0  0  0  0  0  0  0  0  0  0  0
   11.1471   -1.7020   -0.2847 N   0  0  0  0  0  0  0  0  0  0  0  0
   11.6897   -1.2955   -1.5266 C   0  0  0  0  0  0  0  0  0  0  0  0
   10.9918   -0.4670   -2.4192 C   0  0  0  0  0  0  0  0  0  0  0  0
   11.4137   -0.3045   -3.7403 C   0  0  0  0  0  0  0  0  0  0  0  0
   12.5673   -0.9492   -4.1966 C   0  0  0  0  0  0  0  0  0  0  0  0
   12.8918   -0.9710   -5.6739 C   0  0  0  0  0  0  0  0  0  0  0  0
   13.0267    0.3557   -6.3166 N   0  0  0  0  0  0  0  0  0  0  0  0
   14.2094    1.0545   -5.7897 C   0  0  0  0  0  0  0  0  0  0  0  0
   14.5384    2.3374   -6.5530 C   0  0  0  0  0  0  0  0  0  0  0  0
   14.7118    2.0530   -8.0366 C   0  0  0  0  0  0  0  0  0  0  0  0
   13.4423    1.4109   -8.5725 C   0  0  0  0  0  0  0  0  0  0  0  0
   13.0801    0.1566   -7.7770 C   0  0  0  0  0  0  0  0  0  0  0  0
   13.3305   -1.6888   -3.2831 C   0  0  0  0  0  0  0  0  0  0  0  0
   12.8917   -1.8633   -1.9645 C   0  0  0  0  0  0  0  0  0  0  0  0
    9.8774   -0.8434    1.5347 C   0  0  0  0  0  0  0  0  0  0  0  0
    9.8400   -1.6820    2.6581 C   0  0  0  0  0  0  0  0  0  0  0  0
    9.9209   -1.1430    3.9422 C   0  0  0  0  0  0  0  0  0  0  0  0
   10.0388    0.2360    4.1118 C   0  0  0  0  0  0  0  0  0  0  0  0
   10.0820    1.0763    2.9988 C   0  0  0  0  0  0  0  0  0  0  0  0
   10.0088    0.5391    1.7118 C   0  0  0  0  0  0  0  0  0  0  0  0
    0.6956    0.0448    1.5804 H   0  0  0  0  0  0  0  0  0  0  0  0
    0.6954   -1.5976    0.9022 H   0  0  0  0  0  0  0  0  0  0  0  0
    0.6259   -0.1608   -0.1799 H   0  0  0  0  0  0  0  0  0  0  0  0
    4.7080   -0.0693    1.6033 H   0  0  0  0  0  0  0  0  0  0  0  0
    7.1594   -0.2741    1.7105 H   0  0  0  0  0  0  0  0  0  0  0  0
    4.6490   -2.1336   -2.2029 H   0  0  0  0  0  0  0  0  0  0  0  0
    7.0424   -3.0458   -2.9422 H   0  0  0  0  0  0  0  0  0  0  0  0
   11.8505   -1.8840    0.4274 H   0  0  0  0  0  0  0  0  0  0  0  0
   10.0741    0.0240   -2.1157 H   0  0  0  0  0  0  0  0  0  0  0  0
   10.8117    0.2829   -4.4258 H   0  0  0  0  0  0  0  0  0  0  0  0
   12.0720   -1.5259   -6.1519 H   0  0  0  0  0  0  0  0  0  0  0  0
   13.7983   -1.5679   -5.8462 H   0  0  0  0  0  0  0  0  0  0  0  0
   15.0895    0.3981   -5.8101 H   0  0  0  0  0  0  0  0  0  0  0  0
   14.0337    1.3310   -4.7433 H   0  0  0  0  0  0  0  0  0  0  0  0
   15.4569    2.7789   -6.1512 H   0  0  0  0  0  0  0  0  0  0  0  0
   13.7377    3.0738   -6.4087 H   0  0  0  0  0  0  0  0  0  0  0  0
   15.5647    1.3793   -8.1902 H   0  0  0  0  0  0  0  0  0  0  0  0
   14.9280    2.9788   -8.5795 H   0  0  0  0  0  0  0  0  0  0  0  0
   13.5801    1.1475   -9.6277 H   0  0  0  0  0  0  0  0  0  0  0  0
   12.6174    2.1327   -8.5281 H   0  0  0  0  0  0  0  0  0  0  0  0
   13.7983   -0.6339   -8.0328 H   0  0  0  0  0  0  0  0  0  0  0  0
   12.0948   -0.1824   -8.1219 H   0  0  0  0  0  0  0  0  0  0  0  0
   14.2397   -2.1912   -3.6048 H   0  0  0  0  0  0  0  0  0  0  0  0
   13.4634   -2.5082   -1.3033 H   0  0  0  0  0  0  0  0  0  0  0  0
    9.7676   -2.7605    2.5333 H   0  0  0  0  0  0  0  0  0  0  0  0
    9.9047   -1.7998    4.8083 H   0  0  0  0  0  0  0  0  0  0  0  0
   10.1091    0.6545    5.1130 H   0  0  0  0  0  0  0  0  0  0  0  0
   10.1878    2.1500    3.1341 H   0  0  0  0  0  0  0  0  0  0  0  0
   10.0697    1.1986    0.8487 H   0  0  0  0  0  0  0  0  0  0  0  0
  1  2  1  0  0  0  0
  1 36  1  0  0  0  0
  1 37  1  0  0  0  0
  1 38  1  0  0  0  0
  2  3  1  0  0  0  0
  3  4  2  0  0  0  0
  3  5  1  0  0  0  0
  5  6  1  0  0  0  0
  5 10  2  0  0  0  0
  6  7  2  0  0  0  0
  6 39  1  0  0  0  0
  7  8  1  0  0  0  0
  7 40  1  0  0  0  0
  8  9  2  0  0  0  0
  8 14  1  0  0  0  0
  9 10  1  0  0  0  0
  9 11  1  0  0  0  0
 10 41  1  0  0  0  0
 11 12  1  0  0  0  0
 11 42  1  0  0  0  0
 12 13  2  0  0  0  0
 12 14  1  0  0  0  0
 14 15  2  0  0  0  0
 15 16  1  0  0  0  0
 15 30  1  0  0  0  0
 16 17  1  0  0  0  0
 16 43  1  0  0  0  0
 17 18  1  0  0  0  0
 17 29  2  0  0  0  0
 18 19  2  0  0  0  0
 18 44  1  0  0  0  0
 19 20  1  0  0  0  0
 19 45  1  0  0  0  0
 20 21  1  0  0  0  0
 20 28  2  0  0  0  0
 21 22  1  0  0  0  0
 21 46  1  0  0  0  0
 21 47  1  0  0  0  0
 22 23  1  0  0  0  0
 22 27  1  0  0  0  0
 23 24  1  0  0  0  0
 23 48  1  0  0  0  0
 23 49  1  0  0  0  0
 24 25  1  0  0  0  0
 24 50  1  0  0  0  0
 24 51  1  0  0  0  0
 25 26  1  0  0  0  0
 25 52  1  0  0  0  0
 25 53  1  0  0  0  0
 26 27  1  0  0  0  0
 26 54  1  0  0  0  0
 26 55  1  0  0  0  0
 27 56  1  0  0  0  0
 27 57  1  0  0  0  0
 28 29  1  0  0  0  0
 28 58  1  0  0  0  0
 29 59  1  0  0  0  0
 30 31  1  0  0  0  0
 30 35  2  0  0  0  0
 31 32  2  0  0  0  0
 31 60  1  0  0  0  0
 32 33  1  0  0  0  0
 32 61  1  0  0  0  0
 33 34  2  0  0  0  0
 33 62  1  0  0  0  0
 34 35  1  0  0  0  0
 34 63  1  0  0  0  0
 35 64  1  0  0  0  0
M  END
$$$$
