CHEMBL1982506
 OpenBabel04072215363D

 29 31  0  0  0  0  0  0  0  0999 V2000
    1.2169    0.3254    0.0632 C   0  0  0  0  0  0  0  0  0  0  0  0
    2.6006    0.0494   -0.1352 O   0  0  0  0  0  0  0  0  0  0  0  0
    3.1352    0.3985   -1.3514 C   0  0  0  0  0  0  0  0  0  0  0  0
    4.1635   -0.4539   -1.7711 C   0  0  0  0  0  0  0  0  0  0  0  0
    4.8183   -0.2600   -2.9931 C   0  0  0  0  0  0  0  0  0  0  0  0
    5.8159   -1.1519   -3.4405 C   0  0  0  0  0  0  0  0  0  0  0  0
    6.4746   -1.0591   -4.6193 N   0  0  0  0  0  0  0  0  0  0  0  0
    6.1069   -0.0053   -5.3614 C   0  0  0  0  0  0  0  0  0  0  0  0
    5.1635    0.9417   -5.0211 C   0  0  0  0  0  0  0  0  0  0  0  0
    4.4706    0.8423   -3.8083 C   0  0  0  0  0  0  0  0  0  0  0  0
    3.4641    1.7343   -3.3481 C   0  0  0  0  0  0  0  0  0  0  0  0
    2.7915    1.5132   -2.1340 C   0  0  0  0  0  0  0  0  0  0  0  0
    1.8185    2.3296   -1.6345 O   0  0  0  0  0  0  0  0  0  0  0  0
    1.4178    3.4784   -2.3581 C   0  0  0  0  0  0  0  0  0  0  0  0
    5.0990    1.8823   -6.1456 C   0  0  0  0  0  0  0  0  0  0  0  0
    4.3815    2.8617   -6.2100 O   0  0  0  0  0  0  0  0  0  0  0  0
    5.9788    1.4451   -7.0842 N   0  0  0  0  0  0  0  0  0  0  0  0
    6.6245    0.3115   -6.7021 C   0  0  0  0  0  0  0  0  0  0  0  0
    7.4420   -0.3143   -7.3480 O   0  0  0  0  0  0  0  0  0  0  0  0
    0.8972   -0.2051    0.9656 H   0  0  0  0  0  0  0  0  0  0  0  0
    0.6094   -0.0388   -0.7726 H   0  0  0  0  0  0  0  0  0  0  0  0
    1.0387    1.3856    0.2610 H   0  0  0  0  0  0  0  0  0  0  0  0
    4.4316   -1.2948   -1.1327 H   0  0  0  0  0  0  0  0  0  0  0  0
    6.1103   -2.0066   -2.8318 H   0  0  0  0  0  0  0  0  0  0  0  0
    3.2225    2.6000   -3.9589 H   0  0  0  0  0  0  0  0  0  0  0  0
    0.5250    3.8740   -1.8631 H   0  0  0  0  0  0  0  0  0  0  0  0
    1.1403    3.2363   -3.3876 H   0  0  0  0  0  0  0  0  0  0  0  0
    2.1958    4.2453   -2.3154 H   0  0  0  0  0  0  0  0  0  0  0  0
    6.1314    1.8946   -7.9762 H   0  0  0  0  0  0  0  0  0  0  0  0
  1  2  1  0  0  0  0
  1 20  1  0  0  0  0
  1 21  1  0  0  0  0
  1 22  1  0  0  0  0
  2  3  1  0  0  0  0
  3  4  1  0  0  0  0
  3 12  2  0  0  0  0
  4  5  2  0  0  0  0
  4 23  1  0  0  0  0
  5  6  1  0  0  0  0
  5 10  1  0  0  0  0
  6  7  2  0  0  0  0
  6 24  1  0  0  0  0
  7  8  1  0  0  0  0
  8  9  2  0  0  0  0
  8 18  1  0  0  0  0
  9 10  1  0  0  0  0
  9 15  1  0  0  0  0
 10 11  2  0  0  0  0
 11 12  1  0  0  0  0
 11 25  1  0  0  0  0
 12 13  1  0  0  0  0
 13 14  1  0  0  0  0
 14 26  1  0  0  0  0
 14 27  1  0  0  0  0
 14 28  1  0  0  0  0
 15 16  2  0  0  0  0
 15 17  1  0  0  0  0
 17 18  1  0  0  0  0
 17 29  1  0  0  0  0
 18 19  2  0  0  0  0
M  END
$$$$
