CHEMBL3950471
 OpenBabel04072215373D

 59 63  0  0  0  0  0  0  0  0999 V2000
    8.4977    0.6808    1.9305 C   0  0  0  0  0  0  0  0  0  0  0  0
    7.4025    0.3976    0.8910 C   0  0  0  0  0  0  0  0  0  0  0  0
    7.4413    1.4930   -0.1820 C   0  0  0  0  0  0  0  0  0  0  0  0
    7.4226   -0.9989    0.2663 C   0  0  0  0  0  0  0  0  0  0  0  0
    6.2185   -1.5932   -0.1483 C   0  0  0  0  0  0  0  0  0  0  0  0
    6.1841   -2.8765   -0.7495 C   0  0  0  0  0  0  0  0  0  0  0  0
    7.3543   -3.6162   -0.9627 C   0  0  0  0  0  0  0  0  0  0  0  0
    7.4275   -4.9173   -1.5675 N   0  0  0  0  0  0  0  0  0  0  0  0
    6.3769   -5.6871   -2.0472 C   0  0  0  0  0  0  0  0  0  0  0  0
    5.2037   -5.3232   -2.0072 O   0  0  0  0  0  0  0  0  0  0  0  0
    6.6698   -7.0696   -2.6556 C   0  0  0  0  0  0  0  0  0  0  0  0
    5.5184   -7.8041   -2.9855 C   0  0  0  0  0  0  0  0  0  0  0  0
    5.6088   -9.0700   -3.5424 C   0  0  0  0  0  0  0  0  0  0  0  0
    6.8598   -9.6253   -3.8093 C   0  0  0  0  0  0  0  0  0  0  0  0
    8.0780   -8.9443   -3.5579 C   0  0  0  0  0  0  0  0  0  0  0  0
    9.3136   -9.5679   -3.9199 N   0  0  0  0  0  0  0  0  0  0  0  0
   10.6021   -8.8897   -3.7228 C   0  0  0  0  0  0  0  0  0  0  0  0
   11.8894   -9.6631   -4.1525 C   0  0  0  0  0  0  0  0  0  0  0  0
   11.7738  -10.6863   -5.2621 C   0  0  0  0  0  0  0  0  0  0  0  0
   10.4912  -11.0934   -5.6046 C   0  0  0  0  0  0  0  0  0  0  0  0
   10.3728  -12.1010   -6.5573 C   0  0  0  0  0  0  0  0  0  0  0  0
   11.3990  -12.8071   -7.0726 N   0  0  0  0  0  0  0  0  0  0  0  0
   12.6320  -12.4581   -6.7274 C   0  0  0  0  0  0  0  0  0  0  0  0
   13.6609  -13.2406   -7.2442 C   0  0  0  0  0  0  0  0  0  0  0  0
   14.9997  -12.8970   -7.0832 C   0  0  0  0  0  0  0  0  0  0  0  0
   15.3044  -11.7431   -6.3760 C   0  0  0  0  0  0  0  0  0  0  0  0
   14.2895  -10.9957   -5.7618 C   0  0  0  0  0  0  0  0  0  0  0  0
   12.9128  -11.3423   -5.8883 C   0  0  0  0  0  0  0  0  0  0  0  0
    9.2182  -10.5717   -4.9988 C   0  0  0  0  0  0  0  0  0  0  0  0
    7.9448   -7.6606   -2.9349 C   0  0  0  0  0  0  0  0  0  0  0  0
    8.5540   -3.0162   -0.5499 C   0  0  0  0  0  0  0  0  0  0  0  0
    8.5920   -1.7339    0.0477 C   0  0  0  0  0  0  0  0  0  0  0  0
    8.3415    1.6665    2.3891 H   0  0  0  0  0  0  0  0  0  0  0  0
    9.4986    0.6921    1.4858 H   0  0  0  0  0  0  0  0  0  0  0  0
    8.4860   -0.0598    2.7363 H   0  0  0  0  0  0  0  0  0  0  0  0
    6.4505    0.4999    1.4304 H   0  0  0  0  0  0  0  0  0  0  0  0
    8.3714    1.4569   -0.7598 H   0  0  0  0  0  0  0  0  0  0  0  0
    7.3730    2.4877    0.2757 H   0  0  0  0  0  0  0  0  0  0  0  0
    6.6043    1.3965   -0.8811 H   0  0  0  0  0  0  0  0  0  0  0  0
    5.2777   -1.0598   -0.0082 H   0  0  0  0  0  0  0  0  0  0  0  0
    5.2095   -3.2612   -1.0350 H   0  0  0  0  0  0  0  0  0  0  0  0
    8.3538   -5.3072   -1.6304 H   0  0  0  0  0  0  0  0  0  0  0  0
    4.5231   -7.3952   -2.8068 H   0  0  0  0  0  0  0  0  0  0  0  0
    4.7038   -9.6288   -3.7758 H   0  0  0  0  0  0  0  0  0  0  0  0
    6.8417  -10.6275   -4.2279 H   0  0  0  0  0  0  0  0  0  0  0  0
   10.7122   -8.6743   -2.6502 H   0  0  0  0  0  0  0  0  0  0  0  0
   10.5869   -7.9271   -4.2443 H   0  0  0  0  0  0  0  0  0  0  0  0
   12.6409   -8.9135   -4.4337 H   0  0  0  0  0  0  0  0  0  0  0  0
   12.2820  -10.1907   -3.2743 H   0  0  0  0  0  0  0  0  0  0  0  0
    9.4008  -12.4053   -6.9399 H   0  0  0  0  0  0  0  0  0  0  0  0
   13.4022  -14.1390   -7.7990 H   0  0  0  0  0  0  0  0  0  0  0  0
   15.7730  -13.5200   -7.5267 H   0  0  0  0  0  0  0  0  0  0  0  0
   16.3518  -11.4329   -6.3159 H   0  0  0  0  0  0  0  0  0  0  0  0
   14.5856  -10.1066   -5.2114 H   0  0  0  0  0  0  0  0  0  0  0  0
    8.6129  -10.1743   -5.8234 H   0  0  0  0  0  0  0  0  0  0  0  0
    8.7237  -11.4609   -4.5818 H   0  0  0  0  0  0  0  0  0  0  0  0
    8.8424   -7.1090   -2.6870 H   0  0  0  0  0  0  0  0  0  0  0  0
    9.4979   -3.5384   -0.6872 H   0  0  0  0  0  0  0  0  0  0  0  0
    9.5601   -1.3292    0.3336 H   0  0  0  0  0  0  0  0  0  0  0  0
  1  2  1  0  0  0  0
  1 33  1  0  0  0  0
  1 34  1  0  0  0  0
  1 35  1  0  0  0  0
  2  3  1  0  0  0  0
  2  4  1  0  0  0  0
  2 36  1  0  0  0  0
  3 37  1  0  0  0  0
  3 38  1  0  0  0  0
  3 39  1  0  0  0  0
  4  5  1  0  0  0  0
  4 32  2  0  0  0  0
  5  6  2  0  0  0  0
  5 40  1  0  0  0  0
  6  7  1  0  0  0  0
  6 41  1  0  0  0  0
  7  8  1  0  0  0  0
  7 31  2  0  0  0  0
  8  9  1  0  0  0  0
  8 42  1  0  0  0  0
  9 10  2  0  0  0  0
  9 11  1  0  0  0  0
 11 12  1  0  0  0  0
 11 30  2  0  0  0  0
 12 13  2  0  0  0  0
 12 43  1  0  0  0  0
 13 14  1  0  0  0  0
 13 44  1  0  0  0  0
 14 15  2  0  0  0  0
 14 45  1  0  0  0  0
 15 16  1  0  0  0  0
 15 30  1  0  0  0  0
 16 17  1  0  0  0  0
 16 29  1  0  0  0  0
 17 18  1  0  0  0  0
 17 46  1  0  0  0  0
 17 47  1  0  0  0  0
 18 19  1  0  0  0  0
 18 48  1  0  0  0  0
 18 49  1  0  0  0  0
 19 20  1  0  0  0  0
 19 28  2  0  0  0  0
 20 21  2  0  0  0  0
 20 29  1  0  0  0  0
 21 22  1  0  0  0  0
 21 50  1  0  0  0  0
 22 23  2  0  0  0  0
 23 24  1  0  0  0  0
 23 28  1  0  0  0  0
 24 25  2  0  0  0  0
 24 51  1  0  0  0  0
 25 26  1  0  0  0  0
 25 52  1  0  0  0  0
 26 27  2  0  0  0  0
 26 53  1  0  0  0  0
 27 28  1  0  0  0  0
 27 54  1  0  0  0  0
 29 55  1  0  0  0  0
 29 56  1  0  0  0  0
 30 57  1  0  0  0  0
 31 32  1  0  0  0  0
 31 58  1  0  0  0  0
 32 59  1  0  0  0  0
M  END
$$$$
