CHEMBL3965710
 OpenBabel04072215373D

 61 64  0  0  1  0  0  0  0  0999 V2000
    4.1664   -0.8256    5.6364 C   0  0  0  0  0  0  0  0  0  0  0  0
    4.0018   -0.4725    4.2421 N   0  0  0  0  0  0  0  0  0  0  0  0
    4.7260    0.7557    3.8871 C   0  0  0  0  0  0  0  0  0  0  0  0
    4.5050    1.0087    2.3898 C   0  0  1  0  0  0  0  0  0  0  0  0
    3.1043    1.2494    2.1242 O   0  0  0  0  0  0  0  0  0  0  0  0
    5.3236    2.1799    1.8022 C   0  0  0  0  0  0  0  0  0  0  0  0
    6.7914    2.1789    2.1395 N   0  0  0  0  0  0  0  0  0  0  0  0
    7.5341    1.3141    1.2530 C   0  0  0  0  0  0  0  0  0  0  0  0
    6.8714    0.3543    0.4402 C   0  0  0  0  0  0  0  0  0  0  0  0
    7.5065   -0.6446   -0.2871 C   0  0  0  0  0  0  0  0  0  0  0  0
    6.8664   -1.6486   -0.9667 O   0  0  0  0  0  0  0  0  0  0  0  0
    5.4485   -1.7670   -0.7749 C   0  0  0  0  0  0  0  0  0  0  0  0
    8.8698   -0.6302   -0.3576 C   0  0  0  0  0  0  0  0  0  0  0  0
    9.5744    0.4423    0.2260 C   0  0  0  0  0  0  0  0  0  0  0  0
   10.9214    0.6460    0.0226 O   0  0  0  0  0  0  0  0  0  0  0  0
   11.4265    0.1151   -1.2065 C   0  0  0  0  0  0  0  0  0  0  0  0
    8.9195    1.3642    1.0695 C   0  0  0  0  0  0  0  0  0  0  0  0
    7.2043    3.1259    3.1480 C   0  0  0  0  0  0  0  0  0  0  0  0
    6.3736    4.2171    3.4234 C   0  0  0  0  0  0  0  0  0  0  0  0
    6.7577    5.2962    4.1951 C   0  0  0  0  0  0  0  0  0  0  0  0
    7.9339    5.3029    4.8565 C   0  0  0  0  0  0  0  0  0  0  0  0
    8.1494    6.4666    5.4662 N   0  0  0  0  0  0  0  0  0  0  0  0
    9.1281    6.4768    6.3570 C   0  0  0  0  0  0  0  0  0  0  0  0
    9.8522    5.3452    6.6611 C   0  0  0  0  0  0  0  0  0  0  0  0
   10.5703    5.4102    7.9295 C   0  0  0  0  0  0  0  0  0  0  0  0
   10.2363    4.8539    9.1913 C   0  0  0  0  0  0  0  0  0  0  0  0
   10.9750    5.3502   10.1930 N   0  0  0  0  0  0  0  0  0  0  0  0
   11.7790    6.2337    9.5787 N   0  0  0  0  0  0  0  0  0  0  0  0
   12.9278    6.7852   10.2577 C   0  0  0  0  0  0  0  0  0  0  0  0
   11.4561    6.4248    8.2646 C   0  0  0  0  0  0  0  0  0  0  0  0
    9.7152    4.1749    5.9315 N   0  0  0  0  0  0  0  0  0  0  0  0
    8.7428    4.1444    4.9355 C   0  0  0  0  0  0  0  0  0  0  0  0
    8.3822    3.0905    3.9642 C   0  0  0  0  0  0  0  0  0  0  0  0
    3.6041   -1.7409    5.8440 H   0  0  0  0  0  0  0  0  0  0  0  0
    3.7949   -0.0388    6.2997 H   0  0  0  0  0  0  0  0  0  0  0  0
    5.2175   -1.0279    5.8663 H   0  0  0  0  0  0  0  0  0  0  0  0
    3.0163   -0.3709    3.9941 H   0  0  0  0  0  0  0  0  0  0  0  0
    5.7918    0.6231    4.0994 H   0  0  0  0  0  0  0  0  0  0  0  0
    4.3417    1.5986    4.4720 H   0  0  0  0  0  0  0  0  0  0  0  0
    4.7280    0.0737    1.8765 H   0  0  0  0  0  0  0  0  0  0  0  0
    2.8251    2.0106    2.6603 H   0  0  0  0  0  0  0  0  0  0  0  0
    4.7732    3.0778    2.0623 H   0  0  0  0  0  0  0  0  0  0  0  0
    5.1866    2.2460    0.7115 H   0  0  0  0  0  0  0  0  0  0  0  0
    5.8008    0.3756    0.3239 H   0  0  0  0  0  0  0  0  0  0  0  0
    5.1096   -2.6949   -1.2463 H   0  0  0  0  0  0  0  0  0  0  0  0
    4.9220   -0.9388   -1.2634 H   0  0  0  0  0  0  0  0  0  0  0  0
    5.1833   -1.8262    0.2876 H   0  0  0  0  0  0  0  0  0  0  0  0
    9.3669   -1.3855   -0.9472 H   0  0  0  0  0  0  0  0  0  0  0  0
   12.3994    0.5748   -1.3982 H   0  0  0  0  0  0  0  0  0  0  0  0
   10.7765    0.3562   -2.0575 H   0  0  0  0  0  0  0  0  0  0  0  0
   11.5766   -0.9670   -1.1287 H   0  0  0  0  0  0  0  0  0  0  0  0
    9.5105    2.1547    1.5172 H   0  0  0  0  0  0  0  0  0  0  0  0
    5.3791    4.3640    3.0329 H   0  0  0  0  0  0  0  0  0  0  0  0
    6.0872    6.1444    4.2931 H   0  0  0  0  0  0  0  0  0  0  0  0
    9.2472    7.4148    6.8884 H   0  0  0  0  0  0  0  0  0  0  0  0
    9.4543    4.1441    9.4312 H   0  0  0  0  0  0  0  0  0  0  0  0
   12.9942    6.3764   11.2689 H   0  0  0  0  0  0  0  0  0  0  0  0
   12.8457    7.8742   10.2894 H   0  0  0  0  0  0  0  0  0  0  0  0
   13.8107    6.4879    9.6845 H   0  0  0  0  0  0  0  0  0  0  0  0
   11.8916    7.2339    7.6943 H   0  0  0  0  0  0  0  0  0  0  0  0
    9.0515    2.2253    3.9087 H   0  0  0  0  0  0  0  0  0  0  0  0
  1  2  1  0  0  0  0
  1 34  1  0  0  0  0
  1 35  1  0  0  0  0
  1 36  1  0  0  0  0
  2  3  1  0  0  0  0
  2 37  1  0  0  0  0
  3  4  1  0  0  0  0
  3 38  1  0  0  0  0
  3 39  1  0  0  0  0
  4  5  1  0  0  0  0
  4  6  1  0  0  0  0
  4 40  1  6  0  0  0
  5 41  1  0  0  0  0
  6  7  1  0  0  0  0
  6 42  1  0  0  0  0
  6 43  1  0  0  0  0
  7  8  1  0  0  0  0
  7 18  1  0  0  0  0
  8  9  1  0  0  0  0
  8 17  2  0  0  0  0
  9 10  2  0  0  0  0
  9 44  1  0  0  0  0
 10 11  1  0  0  0  0
 10 13  1  0  0  0  0
 11 12  1  0  0  0  0
 12 45  1  0  0  0  0
 12 46  1  0  0  0  0
 12 47  1  0  0  0  0
 13 14  2  0  0  0  0
 13 48  1  0  0  0  0
 14 15  1  0  0  0  0
 14 17  1  0  0  0  0
 15 16  1  0  0  0  0
 16 49  1  0  0  0  0
 16 50  1  0  0  0  0
 16 51  1  0  0  0  0
 17 52  1  0  0  0  0
 18 19  1  0  0  0  0
 18 33  2  0  0  0  0
 19 20  2  0  0  0  0
 19 53  1  0  0  0  0
 20 21  1  0  0  0  0
 20 54  1  0  0  0  0
 21 22  1  0  0  0  0
 21 32  2  0  0  0  0
 22 23  2  0  0  0  0
 23 24  1  0  0  0  0
 23 55  1  0  0  0  0
 24 25  1  0  0  0  0
 24 31  2  0  0  0  0
 25 26  1  0  0  0  0
 25 30  2  0  0  0  0
 26 27  2  0  0  0  0
 26 56  1  0  0  0  0
 27 28  1  0  0  0  0
 28 29  1  0  0  0  0
 28 30  1  0  0  0  0
 29 57  1  0  0  0  0
 29 58  1  0  0  0  0
 29 59  1  0  0  0  0
 30 60  1  0  0  0  0
 31 32  1  0  0  0  0
 32 33  1  0  0  0  0
 33 61  1  0  0  0  0
M  END
$$$$
