CHEMBL3938388
 OpenBabel04072215373D

 57 62  0  0  0  0  0  0  0  0999 V2000
    3.5628   -5.0348   -2.2500 C   0  0  0  0  0  0  0  0  0  0  0  0
    2.2844   -4.2627   -2.3889 C   0  0  0  0  0  0  0  0  0  0  0  0
    2.1853   -3.1435   -3.2196 C   0  0  0  0  0  0  0  0  0  0  0  0
    0.9847   -2.4308   -3.3050 C   0  0  0  0  0  0  0  0  0  0  0  0
   -0.1354   -2.8311   -2.5667 C   0  0  0  0  0  0  0  0  0  0  0  0
   -0.0547   -3.9510   -1.7373 C   0  0  0  0  0  0  0  0  0  0  0  0
   -1.1495   -4.3842   -0.8260 C   0  0  0  0  0  0  0  0  0  0  0  0
   -0.8006   -4.9070    0.2292 O   0  0  0  0  0  0  0  0  0  0  0  0
   -2.4608   -4.2151   -1.2580 N   0  0  0  0  0  0  0  0  0  0  0  0
   -3.6172   -4.5841   -0.4965 C   0  0  0  0  0  0  0  0  0  0  0  0
   -3.5497   -4.8983    0.8658 C   0  0  0  0  0  0  0  0  0  0  0  0
   -4.6674   -5.3354    1.5773 C   0  0  0  0  0  0  0  0  0  0  0  0
   -5.8926   -5.4502    0.9368 C   0  0  0  0  0  0  0  0  0  0  0  0
   -5.9984   -5.1241   -0.4191 C   0  0  0  0  0  0  0  0  0  0  0  0
   -7.2207   -5.2007   -1.0696 O   0  0  0  0  0  0  0  0  0  0  0  0
   -7.9491   -6.3720   -0.9136 C   0  0  0  0  0  0  0  0  0  0  0  0
   -9.3371   -6.2873   -0.7417 C   0  0  0  0  0  0  0  0  0  0  0  0
  -10.1198   -7.4522   -0.5219 C   0  0  0  0  0  0  0  0  0  0  0  0
   -9.5046   -8.7157   -0.6707 C   0  0  0  0  0  0  0  0  0  0  0  0
   -9.7850  -10.1091   -0.5702 C   0  0  0  0  0  0  0  0  0  0  0  0
  -10.1223  -11.0008    0.5832 C   0  0  0  0  0  0  0  0  0  0  0  0
   -9.8783  -10.8317    1.9312 C   0  0  0  0  0  0  0  0  0  0  0  0
   -9.9839  -12.1252    2.5508 C   0  0  0  0  0  0  0  0  0  0  0  0
   -9.7733  -12.6246    3.8539 C   0  0  0  0  0  0  0  0  0  0  0  0
  -10.0271  -13.9784    4.1238 C   0  0  0  0  0  0  0  0  0  0  0  0
  -10.4456  -14.8414    3.1132 C   0  0  0  0  0  0  0  0  0  0  0  0
  -10.5861  -14.3907    1.8009 C   0  0  0  0  0  0  0  0  0  0  0  0
  -10.3519  -13.0326    1.5570 C   0  0  0  0  0  0  0  0  0  0  0  0
  -10.3792  -12.3347    0.3778 N   0  0  0  0  0  0  0  0  0  0  0  0
   -9.0621  -10.7610   -1.4966 N   0  0  0  0  0  0  0  0  0  0  0  0
   -7.9724   -9.9938   -1.5373 N   0  0  0  0  0  0  0  0  0  0  0  0
   -8.1764   -8.7259   -1.0846 C   0  0  0  0  0  0  0  0  0  0  0  0
   -7.3346   -7.6150   -1.0641 C   0  0  0  0  0  0  0  0  0  0  0  0
   -4.8712   -4.6651   -1.1295 C   0  0  0  0  0  0  0  0  0  0  0  0
    1.1593   -4.6554   -1.6539 C   0  0  0  0  0  0  0  0  0  0  0  0
    4.3610   -4.6113   -2.8678 H   0  0  0  0  0  0  0  0  0  0  0  0
    3.4096   -6.0734   -2.5611 H   0  0  0  0  0  0  0  0  0  0  0  0
    3.9010   -5.0215   -1.2083 H   0  0  0  0  0  0  0  0  0  0  0  0
    3.0480   -2.8082   -3.7920 H   0  0  0  0  0  0  0  0  0  0  0  0
    0.9351   -1.5456   -3.9366 H   0  0  0  0  0  0  0  0  0  0  0  0
   -1.0369   -2.2256   -2.6090 H   0  0  0  0  0  0  0  0  0  0  0  0
   -2.6121   -3.9401   -2.2214 H   0  0  0  0  0  0  0  0  0  0  0  0
   -2.6247   -4.7994    1.4279 H   0  0  0  0  0  0  0  0  0  0  0  0
   -4.5698   -5.5837    2.6295 H   0  0  0  0  0  0  0  0  0  0  0  0
   -6.7566   -5.7940    1.4983 H   0  0  0  0  0  0  0  0  0  0  0  0
   -9.8219   -5.3121   -0.7841 H   0  0  0  0  0  0  0  0  0  0  0  0
  -11.1988   -7.3620   -0.4033 H   0  0  0  0  0  0  0  0  0  0  0  0
   -9.5269   -9.9278    2.4111 H   0  0  0  0  0  0  0  0  0  0  0  0
   -9.4298  -11.9703    4.6492 H   0  0  0  0  0  0  0  0  0  0  0  0
   -9.9018  -14.3595    5.1346 H   0  0  0  0  0  0  0  0  0  0  0  0
  -10.6608  -15.8833    3.3457 H   0  0  0  0  0  0  0  0  0  0  0  0
  -10.8818  -15.0675    1.0054 H   0  0  0  0  0  0  0  0  0  0  0  0
  -10.4404  -12.7433   -0.5442 H   0  0  0  0  0  0  0  0  0  0  0  0
   -7.1336  -10.3700   -1.9684 H   0  0  0  0  0  0  0  0  0  0  0  0
   -6.2716   -7.7154   -1.2442 H   0  0  0  0  0  0  0  0  0  0  0  0
   -4.9831   -4.4100   -2.1850 H   0  0  0  0  0  0  0  0  0  0  0  0
    1.2360   -5.5108   -0.9833 H   0  0  0  0  0  0  0  0  0  0  0  0
  1  2  1  0  0  0  0
  1 36  1  0  0  0  0
  1 37  1  0  0  0  0
  1 38  1  0  0  0  0
  2  3  1  0  0  0  0
  2 35  2  0  0  0  0
  3  4  2  0  0  0  0
  3 39  1  0  0  0  0
  4  5  1  0  0  0  0
  4 40  1  0  0  0  0
  5  6  2  0  0  0  0
  5 41  1  0  0  0  0
  6  7  1  0  0  0  0
  6 35  1  0  0  0  0
  7  8  2  0  0  0  0
  7  9  1  0  0  0  0
  9 10  1  0  0  0  0
  9 42  1  0  0  0  0
 10 11  1  0  0  0  0
 10 34  2  0  0  0  0
 11 12  2  0  0  0  0
 11 43  1  0  0  0  0
 12 13  1  0  0  0  0
 12 44  1  0  0  0  0
 13 14  2  0  0  0  0
 13 45  1  0  0  0  0
 14 15  1  0  0  0  0
 14 34  1  0  0  0  0
 15 16  1  0  0  0  0
 16 17  1  0  0  0  0
 16 33  2  0  0  0  0
 17 18  2  0  0  0  0
 17 46  1  0  0  0  0
 18 19  1  0  0  0  0
 18 47  1  0  0  0  0
 19 20  1  0  0  0  0
 19 32  2  0  0  0  0
 20 21  1  0  0  0  0
 20 30  2  0  0  0  0
 21 22  2  0  0  0  0
 21 29  1  0  0  0  0
 22 23  1  0  0  0  0
 22 48  1  0  0  0  0
 23 24  1  0  0  0  0
 23 28  2  0  0  0  0
 24 25  2  0  0  0  0
 24 49  1  0  0  0  0
 25 26  1  0  0  0  0
 25 50  1  0  0  0  0
 26 27  2  0  0  0  0
 26 51  1  0  0  0  0
 27 28  1  0  0  0  0
 27 52  1  0  0  0  0
 28 29  1  0  0  0  0
 29 53  1  0  0  0  0
 30 31  1  0  0  0  0
 31 32  1  0  0  0  0
 31 54  1  0  0  0  0
 32 33  1  0  0  0  0
 33 55  1  0  0  0  0
 34 56  1  0  0  0  0
 35 57  1  0  0  0  0
M  END
$$$$
