CHEMBL3970603
 OpenBabel04072215373D

 50 53  0  0  0  0  0  0  0  0999 V2000
    0.0982   -0.7157   -3.0579 C   0  0  0  0  0  0  0  0  0  0  0  0
    1.4522   -0.3385   -3.2972 O   0  0  0  0  0  0  0  0  0  0  0  0
    2.3364   -0.8828   -2.4171 C   0  0  0  0  0  0  0  0  0  0  0  0
    1.9887   -1.6163   -1.4865 O   0  0  0  0  0  0  0  0  0  0  0  0
    3.6909   -0.5080   -2.7438 C   0  0  0  0  0  0  0  0  0  0  0  0
    4.1859    0.3367   -3.7214 C   0  0  0  0  0  0  0  0  0  0  0  0
    5.6142    0.4224   -3.7152 C   0  0  0  0  0  0  0  0  0  0  0  0
    6.3717    1.1709   -4.5604 N   0  0  0  0  0  0  0  0  0  0  0  0
    7.7058    1.0936   -4.3772 C   0  0  0  0  0  0  0  0  0  0  0  0
    8.3334    0.3117   -3.4257 C   0  0  0  0  0  0  0  0  0  0  0  0
    7.5601   -0.4879   -2.5801 C   0  0  0  0  0  0  0  0  0  0  0  0
    8.0749   -1.3470   -1.6205 O   0  0  0  0  0  0  0  0  0  0  0  0
    9.2564   -2.0067   -1.8856 C   0  0  0  0  0  0  0  0  0  0  0  0
    9.6532   -2.2973   -3.1856 C   0  0  0  0  0  0  0  0  0  0  0  0
   10.9615   -2.6645   -3.4209 C   0  0  0  0  0  0  0  0  0  0  0  0
   11.7780   -3.0078   -2.3457 C   0  0  0  0  0  0  0  0  0  0  0  0
   11.3365   -2.9235   -1.0175 C   0  0  0  0  0  0  0  0  0  0  0  0
   12.1245   -3.3846    0.0872 N   0  0  0  0  0  0  0  0  0  0  0  0
   13.5048   -3.5913    0.0268 C   0  0  0  0  0  0  0  0  0  0  0  0
   14.1604   -3.3695   -0.9917 O   0  0  0  0  0  0  0  0  0  0  0  0
   14.0955   -4.0496    1.1898 N   0  0  0  0  0  0  0  0  0  0  0  0
   15.5126   -4.2625    1.1175 C   0  0  0  0  0  0  0  0  0  0  0  0
   16.3496   -3.1880    0.7857 C   0  0  0  0  0  0  0  0  0  0  0  0
   17.7037   -3.3840    0.4789 C   0  0  0  0  0  0  0  0  0  0  0  0
   18.5842   -2.2139    0.1535 C   0  0  0  0  0  0  0  0  0  0  0  0
   18.2280   -4.6789    0.5166 C   0  0  0  0  0  0  0  0  0  0  0  0
   17.4447   -5.7291    1.0047 C   0  0  0  0  0  0  0  0  0  0  0  0
   16.0888   -5.5240    1.2793 C   0  0  0  0  0  0  0  0  0  0  0  0
   15.3294   -6.5801    1.6087 F   0  0  0  0  0  0  0  0  0  0  0  0
   10.0730   -2.3547   -0.7942 C   0  0  0  0  0  0  0  0  0  0  0  0
    6.1711   -0.3916   -2.7246 C   0  0  0  0  0  0  0  0  0  0  0  0
    4.9570   -1.1910   -1.8194 S   0  0  0  0  0  0  0  0  0  0  0  0
   -0.5165   -0.3022   -3.8611 H   0  0  0  0  0  0  0  0  0  0  0  0
   -0.2517   -0.3064   -2.1047 H   0  0  0  0  0  0  0  0  0  0  0  0
   -0.0117   -1.8064   -3.0718 H   0  0  0  0  0  0  0  0  0  0  0  0
    3.5634    0.8746   -4.4247 H   0  0  0  0  0  0  0  0  0  0  0  0
    8.3010    1.7048   -5.0508 H   0  0  0  0  0  0  0  0  0  0  0  0
    9.4176    0.3084   -3.3840 H   0  0  0  0  0  0  0  0  0  0  0  0
    8.9830   -2.1487   -4.0286 H   0  0  0  0  0  0  0  0  0  0  0  0
   11.3463   -2.6762   -4.4348 H   0  0  0  0  0  0  0  0  0  0  0  0
   12.7660   -3.3810   -2.6069 H   0  0  0  0  0  0  0  0  0  0  0  0
   11.6737   -3.4547    0.9852 H   0  0  0  0  0  0  0  0  0  0  0  0
   13.5724   -4.7369    1.7152 H   0  0  0  0  0  0  0  0  0  0  0  0
   15.9298   -2.1857    0.7433 H   0  0  0  0  0  0  0  0  0  0  0  0
   18.0422   -1.2684    0.2649 H   0  0  0  0  0  0  0  0  0  0  0  0
   18.9664   -2.2714   -0.8696 H   0  0  0  0  0  0  0  0  0  0  0  0
   19.4249   -2.1888    0.8551 H   0  0  0  0  0  0  0  0  0  0  0  0
   19.2481   -4.8685    0.1861 H   0  0  0  0  0  0  0  0  0  0  0  0
   17.8905   -6.7083    1.1557 H   0  0  0  0  0  0  0  0  0  0  0  0
    9.7286   -2.1223    0.2074 H   0  0  0  0  0  0  0  0  0  0  0  0
  1  2  1  0  0  0  0
  1 33  1  0  0  0  0
  1 34  1  0  0  0  0
  1 35  1  0  0  0  0
  2  3  1  0  0  0  0
  3  4  2  0  0  0  0
  3  5  1  0  0  0  0
  5  6  2  0  0  0  0
  5 32  1  0  0  0  0
  6  7  1  0  0  0  0
  6 36  1  0  0  0  0
  7  8  1  0  0  0  0
  7 31  2  0  0  0  0
  8  9  2  0  0  0  0
  9 10  1  0  0  0  0
  9 37  1  0  0  0  0
 10 11  2  0  0  0  0
 10 38  1  0  0  0  0
 11 12  1  0  0  0  0
 11 31  1  0  0  0  0
 12 13  1  0  0  0  0
 13 14  1  0  0  0  0
 13 30  2  0  0  0  0
 14 15  2  0  0  0  0
 14 39  1  0  0  0  0
 15 16  1  0  0  0  0
 15 40  1  0  0  0  0
 16 17  2  0  0  0  0
 16 41  1  0  0  0  0
 17 18  1  0  0  0  0
 17 30  1  0  0  0  0
 18 19  1  0  0  0  0
 18 42  1  0  0  0  0
 19 20  2  0  0  0  0
 19 21  1  0  0  0  0
 21 22  1  0  0  0  0
 21 43  1  0  0  0  0
 22 23  1  0  0  0  0
 22 28  2  0  0  0  0
 23 24  2  0  0  0  0
 23 44  1  0  0  0  0
 24 25  1  0  0  0  0
 24 26  1  0  0  0  0
 25 45  1  0  0  0  0
 25 46  1  0  0  0  0
 25 47  1  0  0  0  0
 26 27  2  0  0  0  0
 26 48  1  0  0  0  0
 27 28  1  0  0  0  0
 27 49  1  0  0  0  0
 28 29  1  0  0  0  0
 30 50  1  0  0  0  0
 31 32  1  0  0  0  0
M  END
$$$$
