CHEMBL3644551
 OpenBabel04072215373D

 52 55  0  0  0  0  0  0  0  0999 V2000
    2.6782   -6.1254   -1.3741 C   0  0  0  0  0  0  0  0  0  0  0  0
    1.2539   -6.4654   -1.0387 C   0  0  0  0  0  0  0  0  0  0  0  0
    0.8596   -7.8062   -0.9890 C   0  0  0  0  0  0  0  0  0  0  0  0
   -0.4527   -8.1346   -0.6816 C   0  0  0  0  0  0  0  0  0  0  0  0
   -1.3871   -7.1294   -0.4390 C   0  0  0  0  0  0  0  0  0  0  0  0
   -1.0314   -5.7761   -0.5073 C   0  0  0  0  0  0  0  0  0  0  0  0
   -1.9754   -4.7289   -0.3249 N   0  0  0  0  0  0  0  0  0  0  0  0
   -3.3557   -4.8927   -0.2687 C   0  0  0  0  0  0  0  0  0  0  0  0
   -3.9385   -5.9685   -0.3450 O   0  0  0  0  0  0  0  0  0  0  0  0
   -4.0318   -3.6831   -0.1685 N   0  0  0  0  0  0  0  0  0  0  0  0
   -5.4524   -3.6681   -0.1047 C   0  0  0  0  0  0  0  0  0  0  0  0
   -6.1291   -4.5222    0.7698 C   0  0  0  0  0  0  0  0  0  0  0  0
   -7.5302   -4.5585    0.8117 C   0  0  0  0  0  0  0  0  0  0  0  0
   -8.3139   -3.7421   -0.0103 C   0  0  0  0  0  0  0  0  0  0  0  0
   -9.6951   -3.7860    0.0141 N   0  0  0  0  0  0  0  0  0  0  0  0
  -10.4473   -4.9797    0.4088 C   0  0  0  0  0  0  0  0  0  0  0  0
  -11.2011   -4.7070    1.7130 C   0  0  0  0  0  0  0  0  0  0  0  0
  -11.9603   -3.4012    1.6580 C   0  0  0  0  0  0  0  0  0  0  0  0
  -12.9684   -3.1299    2.5849 C   0  0  0  0  0  0  0  0  0  0  0  0
  -13.6168   -1.9079    2.5185 C   0  0  0  0  0  0  0  0  0  0  0  0
  -13.3353   -0.9547    1.6096 N   0  0  0  0  0  0  0  0  0  0  0  0
  -12.3384   -1.2336    0.7306 C   0  0  0  0  0  0  0  0  0  0  0  0
  -11.6159   -2.4203    0.7198 C   0  0  0  0  0  0  0  0  0  0  0  0
  -10.5182   -2.6138   -0.3050 C   0  0  0  0  0  0  0  0  0  0  0  0
   -7.6132   -2.8802   -0.8736 C   0  0  0  0  0  0  0  0  0  0  0  0
   -6.2013   -2.8263   -0.9368 C   0  0  0  0  0  0  0  0  0  0  0  0
   -5.5533   -1.9399   -1.9627 C   0  0  0  0  0  0  0  0  0  0  0  0
    0.3045   -5.4532   -0.7847 C   0  0  0  0  0  0  0  0  0  0  0  0
    3.2650   -7.0335   -1.5709 H   0  0  0  0  0  0  0  0  0  0  0  0
    3.1524   -5.6021   -0.5391 H   0  0  0  0  0  0  0  0  0  0  0  0
    2.7219   -5.5071   -2.2725 H   0  0  0  0  0  0  0  0  0  0  0  0
    1.5696   -8.6056   -1.1879 H   0  0  0  0  0  0  0  0  0  0  0  0
   -0.7648   -9.1746   -0.6324 H   0  0  0  0  0  0  0  0  0  0  0  0
   -2.3886   -7.4490   -0.1856 H   0  0  0  0  0  0  0  0  0  0  0  0
   -1.6140   -3.7897   -0.2723 H   0  0  0  0  0  0  0  0  0  0  0  0
   -3.5978   -2.9172   -0.6568 H   0  0  0  0  0  0  0  0  0  0  0  0
   -5.5744   -5.1831    1.4342 H   0  0  0  0  0  0  0  0  0  0  0  0
   -7.9895   -5.2358    1.5246 H   0  0  0  0  0  0  0  0  0  0  0  0
   -9.8253   -5.8762    0.5062 H   0  0  0  0  0  0  0  0  0  0  0  0
  -11.1688   -5.2107   -0.3869 H   0  0  0  0  0  0  0  0  0  0  0  0
  -10.4925   -4.6592    2.5494 H   0  0  0  0  0  0  0  0  0  0  0  0
  -11.8948   -5.5343    1.9021 H   0  0  0  0  0  0  0  0  0  0  0  0
  -13.2448   -3.8519    3.3493 H   0  0  0  0  0  0  0  0  0  0  0  0
  -14.4034   -1.6533    3.2255 H   0  0  0  0  0  0  0  0  0  0  0  0
  -12.1345   -0.4355    0.0215 H   0  0  0  0  0  0  0  0  0  0  0  0
   -9.9213   -1.6956   -0.3263 H   0  0  0  0  0  0  0  0  0  0  0  0
  -10.9720   -2.7544   -1.2926 H   0  0  0  0  0  0  0  0  0  0  0  0
   -8.1753   -2.2644   -1.5721 H   0  0  0  0  0  0  0  0  0  0  0  0
   -6.2966   -1.4755   -2.6221 H   0  0  0  0  0  0  0  0  0  0  0  0
   -4.8842   -2.5264   -2.6007 H   0  0  0  0  0  0  0  0  0  0  0  0
   -4.9887   -1.1411   -1.4738 H   0  0  0  0  0  0  0  0  0  0  0  0
    0.6210   -4.4142   -0.8353 H   0  0  0  0  0  0  0  0  0  0  0  0
  1  2  1  0  0  0  0
  1 29  1  0  0  0  0
  1 30  1  0  0  0  0
  1 31  1  0  0  0  0
  2  3  1  0  0  0  0
  2 28  2  0  0  0  0
  3  4  2  0  0  0  0
  3 32  1  0  0  0  0
  4  5  1  0  0  0  0
  4 33  1  0  0  0  0
  5  6  2  0  0  0  0
  5 34  1  0  0  0  0
  6  7  1  0  0  0  0
  6 28  1  0  0  0  0
  7  8  1  0  0  0  0
  7 35  1  0  0  0  0
  8  9  2  0  0  0  0
  8 10  1  0  0  0  0
 10 11  1  0  0  0  0
 10 36  1  0  0  0  0
 11 12  1  0  0  0  0
 11 26  2  0  0  0  0
 12 13  2  0  0  0  0
 12 37  1  0  0  0  0
 13 14  1  0  0  0  0
 13 38  1  0  0  0  0
 14 15  1  0  0  0  0
 14 25  2  0  0  0  0
 15 16  1  0  0  0  0
 15 24  1  0  0  0  0
 16 17  1  0  0  0  0
 16 39  1  0  0  0  0
 16 40  1  0  0  0  0
 17 18  1  0  0  0  0
 17 41  1  0  0  0  0
 17 42  1  0  0  0  0
 18 19  1  0  0  0  0
 18 23  2  0  0  0  0
 19 20  2  0  0  0  0
 19 43  1  0  0  0  0
 20 21  1  0  0  0  0
 20 44  1  0  0  0  0
 21 22  2  0  0  0  0
 22 23  1  0  0  0  0
 22 45  1  0  0  0  0
 23 24  1  0  0  0  0
 24 46  1  0  0  0  0
 24 47  1  0  0  0  0
 25 26  1  0  0  0  0
 25 48  1  0  0  0  0
 26 27  1  0  0  0  0
 27 49  1  0  0  0  0
 27 50  1  0  0  0  0
 27 51  1  0  0  0  0
 28 52  1  0  0  0  0
M  END
$$$$
