CHEMBL526836
 OpenBabel04072215383D

 50 54  0  0  0  0  0  0  0  0999 V2000
    2.1564   -1.0574   -0.9708 C   0  0  0  0  0  0  0  0  0  0  0  0
    0.9770   -0.2456   -0.6777 N   0  0  0  0  0  0  0  0  0  0  0  0
   -0.1923   -0.7426   -1.4443 C   0  0  0  0  0  0  0  0  0  0  0  0
   -1.5050    0.0042   -1.1024 C   0  0  0  0  0  0  0  0  0  0  0  0
   -1.7385   -0.1043    0.3439 N   0  0  0  0  0  0  0  0  0  0  0  0
   -3.0179   -0.0482    0.8759 C   0  0  0  0  0  0  0  0  0  0  0  0
   -3.2605   -0.6497    2.1266 C   0  0  0  0  0  0  0  0  0  0  0  0
   -4.5220   -0.6843    2.7313 C   0  0  0  0  0  0  0  0  0  0  0  0
   -5.5544   -0.0906    2.0173 C   0  0  0  0  0  0  0  0  0  0  0  0
   -6.8818    0.0824    2.2948 N   0  0  0  0  0  0  0  0  0  0  0  0
   -7.4788    0.7031    1.2215 C   0  0  0  0  0  0  0  0  0  0  0  0
   -8.8864    0.9409    1.2435 C   0  0  0  0  0  0  0  0  0  0  0  0
   -9.5746    1.0054    0.0760 C   0  0  0  0  0  0  0  0  0  0  0  0
   -9.0122    0.8114   -1.1891 N   0  0  0  0  0  0  0  0  0  0  0  0
  -11.0359    1.2842    0.1163 C   0  0  0  0  0  0  0  0  0  0  0  0
  -11.8456    1.2870   -1.0333 C   0  0  0  0  0  0  0  0  0  0  0  0
  -13.2155    1.5672   -0.9550 C   0  0  0  0  0  0  0  0  0  0  0  0
  -13.8017    1.8439    0.2768 C   0  0  0  0  0  0  0  0  0  0  0  0
  -13.0154    1.8274    1.4198 C   0  0  0  0  0  0  0  0  0  0  0  0
  -13.5836    2.0721    2.6106 F   0  0  0  0  0  0  0  0  0  0  0  0
  -11.6502    1.5443    1.3468 C   0  0  0  0  0  0  0  0  0  0  0  0
  -10.9020    1.4834    2.5245 N   0  0  0  0  0  0  0  0  0  0  0  0
   -9.5841    1.1406    2.5586 C   0  0  0  0  0  0  0  0  0  0  0  0
   -9.0058    0.9925    3.6359 O   0  0  0  0  0  0  0  0  0  0  0  0
   -6.5812    0.9547    0.2800 N   0  0  0  0  0  0  0  0  0  0  0  0
   -5.3840    0.4901    0.7699 C   0  0  0  0  0  0  0  0  0  0  0  0
   -4.1044    0.5214    0.1931 C   0  0  0  0  0  0  0  0  0  0  0  0
   -0.6310    0.4536    1.1415 C   0  0  0  0  0  0  0  0  0  0  0  0
    0.6748   -0.2877    0.7740 C   0  0  0  0  0  0  0  0  0  0  0  0
    2.3984   -1.0096   -2.0379 H   0  0  0  0  0  0  0  0  0  0  0  0
    2.0161   -2.1096   -0.6965 H   0  0  0  0  0  0  0  0  0  0  0  0
    3.0283   -0.6746   -0.4296 H   0  0  0  0  0  0  0  0  0  0  0  0
   -0.3438   -1.8125   -1.2422 H   0  0  0  0  0  0  0  0  0  0  0  0
   -0.0004   -0.6347   -2.5180 H   0  0  0  0  0  0  0  0  0  0  0  0
   -2.3167   -0.4615   -1.6735 H   0  0  0  0  0  0  0  0  0  0  0  0
   -1.4346    1.0576   -1.4027 H   0  0  0  0  0  0  0  0  0  0  0  0
   -2.4415   -1.1507    2.6396 H   0  0  0  0  0  0  0  0  0  0  0  0
   -4.6775   -1.1661    3.6892 H   0  0  0  0  0  0  0  0  0  0  0  0
   -7.3529   -0.1699    3.1551 H   0  0  0  0  0  0  0  0  0  0  0  0
   -7.9835    0.7907   -1.1244 H   0  0  0  0  0  0  0  0  0  0  0  0
   -9.2789    1.5414   -1.8434 H   0  0  0  0  0  0  0  0  0  0  0  0
  -11.4255    1.0526   -2.0089 H   0  0  0  0  0  0  0  0  0  0  0  0
  -13.8223    1.5598   -1.8575 H   0  0  0  0  0  0  0  0  0  0  0  0
  -14.8626    2.0571    0.3544 H   0  0  0  0  0  0  0  0  0  0  0  0
  -11.3640    1.6333    3.4146 H   0  0  0  0  0  0  0  0  0  0  0  0
   -3.9858    1.0013   -0.7702 H   0  0  0  0  0  0  0  0  0  0  0  0
   -0.7947    0.3553    2.2203 H   0  0  0  0  0  0  0  0  0  0  0  0
   -0.5274    1.5262    0.9294 H   0  0  0  0  0  0  0  0  0  0  0  0
    0.5846   -1.3299    1.1103 H   0  0  0  0  0  0  0  0  0  0  0  0
    1.5008    0.1684    1.3323 H   0  0  0  0  0  0  0  0  0  0  0  0
  1  2  1  0  0  0  0
  1 30  1  0  0  0  0
  1 31  1  0  0  0  0
  1 32  1  0  0  0  0
  2  3  1  0  0  0  0
  2 29  1  0  0  0  0
  3  4  1  0  0  0  0
  3 33  1  0  0  0  0
  3 34  1  0  0  0  0
  4  5  1  0  0  0  0
  4 35  1  0  0  0  0
  4 36  1  0  0  0  0
  5  6  1  0  0  0  0
  5 28  1  0  0  0  0
  6  7  1  0  0  0  0
  6 27  2  0  0  0  0
  7  8  2  0  0  0  0
  7 37  1  0  0  0  0
  8  9  1  0  0  0  0
  8 38  1  0  0  0  0
  9 10  1  0  0  0  0
  9 26  2  0  0  0  0
 10 11  1  0  0  0  0
 10 39  1  0  0  0  0
 11 12  1  0  0  0  0
 11 25  2  0  0  0  0
 12 13  2  0  0  0  0
 12 23  1  0  0  0  0
 13 14  1  0  0  0  0
 13 15  1  0  0  0  0
 14 40  1  0  0  0  0
 14 41  1  0  0  0  0
 15 16  1  0  0  0  0
 15 21  2  0  0  0  0
 16 17  2  0  0  0  0
 16 42  1  0  0  0  0
 17 18  1  0  0  0  0
 17 43  1  0  0  0  0
 18 19  2  0  0  0  0
 18 44  1  0  0  0  0
 19 20  1  0  0  0  0
 19 21  1  0  0  0  0
 21 22  1  0  0  0  0
 22 23  1  0  0  0  0
 22 45  1  0  0  0  0
 23 24  2  0  0  0  0
 25 26  1  0  0  0  0
 26 27  1  0  0  0  0
 27 46  1  0  0  0  0
 28 29  1  0  0  0  0
 28 47  1  0  0  0  0
 28 48  1  0  0  0  0
 29 49  1  0  0  0  0
 29 50  1  0  0  0  0
M  END
$$$$
