CHEMBL3287219
 OpenBabel04072215363D

 52 54  0  0  0  0  0  0  0  0999 V2000
    2.6220   -0.3602    2.1087 C   0  0  0  0  0  0  0  0  0  0  0  0
    3.7708   -0.0811    1.3953 O   0  0  0  0  0  0  0  0  0  0  0  0
    4.0515    1.0982    0.7810 C   0  0  0  0  0  0  0  0  0  0  0  0
    3.2314    2.2280    0.9109 C   0  0  0  0  0  0  0  0  0  0  0  0
    3.5436    3.4057    0.2374 C   0  0  0  0  0  0  0  0  0  0  0  0
    4.6772    3.4918   -0.5949 C   0  0  0  0  0  0  0  0  0  0  0  0
    4.8757    4.6720   -1.3694 N   0  0  0  0  0  0  0  0  0  0  0  0
    4.4301    5.9722   -1.0041 C   0  0  0  0  0  0  0  0  0  0  0  0
    4.3058    6.3475    0.3073 N   0  0  0  0  0  0  0  0  0  0  0  0
    3.9217    7.6180    0.6580 C   0  0  0  0  0  0  0  0  0  0  0  0
    3.8504    7.9998    2.1013 C   0  0  0  0  0  0  0  0  0  0  0  0
    3.6317    8.5431   -0.3063 N   0  0  0  0  0  0  0  0  0  0  0  0
    3.7445    8.1731   -1.6065 C   0  0  0  0  0  0  0  0  0  0  0  0
    3.4968    8.8850   -2.7619 C   0  0  0  0  0  0  0  0  0  0  0  0
    3.0220   10.2991   -2.9025 C   0  0  0  0  0  0  0  0  0  0  0  0
    1.5182   10.3691   -2.9850 C   0  0  0  0  0  0  0  0  0  0  0  0
    0.7274    9.9484   -1.9009 C   0  0  0  0  0  0  0  0  0  0  0  0
   -0.6654   10.0318   -1.9660 C   0  0  0  0  0  0  0  0  0  0  0  0
   -1.2849   10.5347   -3.1121 C   0  0  0  0  0  0  0  0  0  0  0  0
   -0.5108   10.9544   -4.1973 C   0  0  0  0  0  0  0  0  0  0  0  0
    0.8866   10.8748   -4.1367 C   0  0  0  0  0  0  0  0  0  0  0  0
    3.7739    8.0061   -3.8057 C   0  0  0  0  0  0  0  0  0  0  0  0
    4.1745    6.8110   -3.3151 N   0  0  0  0  0  0  0  0  0  0  0  0
    4.1452    6.9276   -1.9742 C   0  0  0  0  0  0  0  0  0  0  0  0
    5.5361    2.3545   -0.7063 C   0  0  0  0  0  0  0  0  0  0  0  0
    6.7080    2.3093   -1.4067 O   0  0  0  0  0  0  0  0  0  0  0  0
    7.3752    3.3094   -2.0846 C   0  0  0  0  0  0  0  0  0  0  0  0
    5.1993    1.1815   -0.0123 C   0  0  0  0  0  0  0  0  0  0  0  0
    1.6067    0.0150   -2.6627 Cl  0  0  0  0  0  0  0  0  0  0  0  0
    2.6755   -1.3981    2.4957 H   0  0  0  0  0  0  0  0  0  0  0  0
    1.7325   -0.2761    1.4468 H   0  0  0  0  0  0  0  0  0  0  0  0
    2.5214    0.3334    2.9699 H   0  0  0  0  0  0  0  0  0  0  0  0
    2.3352    2.2038    1.5159 H   0  0  0  0  0  0  0  0  0  0  0  0
    2.8599    4.2377    0.3347 H   0  0  0  0  0  0  0  0  0  0  0  0
    5.2316    4.5535   -2.3217 H   0  0  0  0  0  0  0  0  0  0  0  0
    4.1441    7.1451    2.7475 H   0  0  0  0  0  0  0  0  0  0  0  0
    2.8183    8.3112    2.3593 H   0  0  0  0  0  0  0  0  0  0  0  0
    4.5472    8.8430    2.2942 H   0  0  0  0  0  0  0  0  0  0  0  0
    3.4949   10.7308   -3.8116 H   0  0  0  0  0  0  0  0  0  0  0  0
    3.3706   10.9012   -2.0389 H   0  0  0  0  0  0  0  0  0  0  0  0
    1.1909    9.5627   -1.0032 H   0  0  0  0  0  0  0  0  0  0  0  0
   -1.2649    9.7090   -1.1244 H   0  0  0  0  0  0  0  0  0  0  0  0
   -2.3644   10.6007   -3.1582 H   0  0  0  0  0  0  0  0  0  0  0  0
   -0.9936   11.3445   -5.0843 H   0  0  0  0  0  0  0  0  0  0  0  0
    1.4688   11.2070   -4.9865 H   0  0  0  0  0  0  0  0  0  0  0  0
    3.6855    8.2250   -4.8614 H   0  0  0  0  0  0  0  0  0  0  0  0
    4.4346    5.9724   -3.8795 H   0  0  0  0  0  0  0  0  0  0  0  0
    8.4262    2.9933   -2.2416 H   0  0  0  0  0  0  0  0  0  0  0  0
    7.4072    4.2459   -1.4869 H   0  0  0  0  0  0  0  0  0  0  0  0
    6.9308    3.4620   -3.0897 H   0  0  0  0  0  0  0  0  0  0  0  0
    5.8428    0.3134   -0.0979 H   0  0  0  0  0  0  0  0  0  0  0  0
    1.2497    1.0835   -1.8738 H   0  0  0  0  0  0  0  0  0  0  0  0
  1  2  1  0  0  0  0
  1 30  1  0  0  0  0
  1 31  1  0  0  0  0
  1 32  1  0  0  0  0
  2  3  1  0  0  0  0
  3  4  1  0  0  0  0
  3 28  2  0  0  0  0
  4  5  2  0  0  0  0
  4 33  1  0  0  0  0
  5  6  1  0  0  0  0
  5 34  1  0  0  0  0
  6  7  1  0  0  0  0
  6 25  2  0  0  0  0
  7  8  1  0  0  0  0
  7 35  1  0  0  0  0
  8  9  1  0  0  0  0
  8 24  2  0  0  0  0
  9 10  2  0  0  0  0
 10 11  1  0  0  0  0
 10 12  1  0  0  0  0
 11 36  1  0  0  0  0
 11 37  1  0  0  0  0
 11 38  1  0  0  0  0
 12 13  2  0  0  0  0
 13 14  1  0  0  0  0
 13 24  1  0  0  0  0
 14 15  1  0  0  0  0
 14 22  2  0  0  0  0
 15 16  1  0  0  0  0
 15 39  1  0  0  0  0
 15 40  1  0  0  0  0
 16 17  1  0  0  0  0
 16 21  2  0  0  0  0
 17 18  2  0  0  0  0
 17 41  1  0  0  0  0
 18 19  1  0  0  0  0
 18 42  1  0  0  0  0
 19 20  2  0  0  0  0
 19 43  1  0  0  0  0
 20 21  1  0  0  0  0
 20 44  1  0  0  0  0
 21 45  1  0  0  0  0
 22 23  1  0  0  0  0
 22 46  1  0  0  0  0
 23 24  1  0  0  0  0
 23 47  1  0  0  0  0
 25 26  1  0  0  0  0
 25 28  1  0  0  0  0
 26 27  1  0  0  0  0
 27 48  1  0  0  0  0
 27 49  1  0  0  0  0
 27 50  1  0  0  0  0
 28 51  1  0  0  0  0
 29 52  1  0  0  0  0
M  END
$$$$
