CHEMBL245377
 OpenBabel04072215363D

 67 72  0  0  0  0  0  0  0  0999 V2000
    1.9289    2.9741    5.5273 C   0  0  0  0  0  0  0  0  0  0  0  0
    1.4779    1.9331    4.6100 N   0  0  0  0  0  0  0  0  0  0  0  0
    0.7769    0.8544    5.3265 C   0  0  0  0  0  0  0  0  0  0  0  0
    0.3472   -0.2638    4.3472 C   0  0  0  0  0  0  0  0  0  0  0  0
   -0.5298    0.1716    3.2300 N   0  0  0  0  0  0  0  0  0  0  0  0
   -1.9059    0.4835    3.6715 C   0  0  0  0  0  0  0  0  0  0  0  0
   -2.5999   -0.7398    4.2839 C   0  0  0  0  0  0  0  0  0  0  0  0
   -2.5531   -0.9441    5.5017 O   0  0  0  0  0  0  0  0  0  0  0  0
   -3.2193   -1.5722    3.3655 N   0  0  0  0  0  0  0  0  0  0  0  0
   -3.8675   -2.7632    3.7786 C   0  0  0  0  0  0  0  0  0  0  0  0
   -3.4815   -3.9884    3.2160 C   0  0  0  0  0  0  0  0  0  0  0  0
   -4.1021   -5.1972    3.6018 C   0  0  0  0  0  0  0  0  0  0  0  0
   -5.1474   -5.2051    4.5291 C   0  0  0  0  0  0  0  0  0  0  0  0
   -5.5268   -3.9888    5.0492 C   0  0  0  0  0  0  0  0  0  0  0  0
   -4.9072   -2.7584    4.6951 C   0  0  0  0  0  0  0  0  0  0  0  0
   -5.5809   -1.5452    5.3525 C   0  0  0  0  0  0  0  0  0  0  0  0
   -6.6180   -2.2785    6.1286 C   0  0  0  0  0  0  0  0  0  0  0  0
   -6.5678   -3.6654    5.9597 C   0  0  0  0  0  0  0  0  0  0  0  0
   -7.4710   -4.3341    6.6614 N   0  0  0  0  0  0  0  0  0  0  0  0
   -8.1075   -3.3268    7.3164 N   0  0  0  0  0  0  0  0  0  0  0  0
   -7.6367   -2.0664    7.0161 C   0  0  0  0  0  0  0  0  0  0  0  0
   -8.1375   -0.7802    7.5607 C   0  0  0  0  0  0  0  0  0  0  0  0
   -9.1360   -0.7061    8.5062 C   0  0  0  0  0  0  0  0  0  0  0  0
   -9.4923    0.9115    8.9398 S   0  0  0  0  0  0  0  0  0  0  0  0
   -8.3342    1.5186    7.8445 C   0  0  0  0  0  0  0  0  0  0  0  0
   -8.1006    2.9071    7.6468 C   0  0  0  0  0  0  0  0  0  0  0  0
   -7.9091    4.1867    7.4857 C   0  0  0  0  0  0  0  0  0  0  0  0
   -7.6858    5.6785    7.2980 C   0  0  0  0  0  0  0  0  0  0  0  0
   -8.5675    6.1542    6.2824 O   0  0  0  0  0  0  0  0  0  0  0  0
   -8.4561    7.4916    6.0086 C   0  0  0  0  0  0  0  0  0  0  0  0
   -7.2848    8.2357    6.1565 C   0  0  0  0  0  0  0  0  0  0  0  0
   -7.2778    9.6010    5.8714 C   0  0  0  0  0  0  0  0  0  0  0  0
   -8.4374   10.2248    5.4177 C   0  0  0  0  0  0  0  0  0  0  0  0
   -9.5987    9.4791    5.2283 C   0  0  0  0  0  0  0  0  0  0  0  0
   -9.6082    8.1124    5.5188 C   0  0  0  0  0  0  0  0  0  0  0  0
   -7.6671    0.5116    7.1850 C   0  0  0  0  0  0  0  0  0  0  0  0
    0.1048    1.3535    2.5910 C   0  0  0  0  0  0  0  0  0  0  0  0
    0.6067    2.4680    3.5512 C   0  0  0  0  0  0  0  0  0  0  0  0
    2.5984    2.5515    6.2852 H   0  0  0  0  0  0  0  0  0  0  0  0
    1.0972    3.4687    6.0403 H   0  0  0  0  0  0  0  0  0  0  0  0
    2.5077    3.7340    4.9907 H   0  0  0  0  0  0  0  0  0  0  0  0
   -0.0971    1.2446    5.8631 H   0  0  0  0  0  0  0  0  0  0  0  0
    1.4475    0.4154    6.0755 H   0  0  0  0  0  0  0  0  0  0  0  0
   -0.0970   -1.0919    4.9078 H   0  0  0  0  0  0  0  0  0  0  0  0
    1.2563   -0.6916    3.9002 H   0  0  0  0  0  0  0  0  0  0  0  0
   -2.5062    0.8012    2.8094 H   0  0  0  0  0  0  0  0  0  0  0  0
   -1.9470    1.2980    4.4048 H   0  0  0  0  0  0  0  0  0  0  0  0
   -2.7900   -1.5752    2.4447 H   0  0  0  0  0  0  0  0  0  0  0  0
   -2.6584   -4.0355    2.5100 H   0  0  0  0  0  0  0  0  0  0  0  0
   -3.7589   -6.1378    3.1812 H   0  0  0  0  0  0  0  0  0  0  0  0
   -5.6466   -6.1240    4.8244 H   0  0  0  0  0  0  0  0  0  0  0  0
   -6.0220   -0.8914    4.5940 H   0  0  0  0  0  0  0  0  0  0  0  0
   -4.9098   -1.0063    6.0189 H   0  0  0  0  0  0  0  0  0  0  0  0
   -8.8552   -3.5722    7.9543 H   0  0  0  0  0  0  0  0  0  0  0  0
   -9.6828   -1.5079    8.9810 H   0  0  0  0  0  0  0  0  0  0  0  0
   -6.6378    5.7928    7.0018 H   0  0  0  0  0  0  0  0  0  0  0  0
   -7.8752    6.1944    8.2463 H   0  0  0  0  0  0  0  0  0  0  0  0
   -6.3523    7.7842    6.4742 H   0  0  0  0  0  0  0  0  0  0  0  0
   -6.3631   10.1736    6.0003 H   0  0  0  0  0  0  0  0  0  0  0  0
   -8.4304   11.2906    5.2024 H   0  0  0  0  0  0  0  0  0  0  0  0
  -10.4998    9.9615    4.8573 H   0  0  0  0  0  0  0  0  0  0  0  0
  -10.5161    7.5354    5.3758 H   0  0  0  0  0  0  0  0  0  0  0  0
   -6.8914    0.7063    6.4563 H   0  0  0  0  0  0  0  0  0  0  0  0
   -0.5711    1.7914    1.8468 H   0  0  0  0  0  0  0  0  0  0  0  0
    0.9686    0.9879    2.0201 H   0  0  0  0  0  0  0  0  0  0  0  0
   -0.2537    2.9930    3.9857 H   0  0  0  0  0  0  0  0  0  0  0  0
    1.1670    3.2018    2.9575 H   0  0  0  0  0  0  0  0  0  0  0  0
  1  2  1  0  0  0  0
  1 39  1  0  0  0  0
  1 40  1  0  0  0  0
  1 41  1  0  0  0  0
  2  3  1  0  0  0  0
  2 38  1  0  0  0  0
  3  4  1  0  0  0  0
  3 42  1  0  0  0  0
  3 43  1  0  0  0  0
  4  5  1  0  0  0  0
  4 44  1  0  0  0  0
  4 45  1  0  0  0  0
  5  6  1  0  0  0  0
  5 37  1  0  0  0  0
  6  7  1  0  0  0  0
  6 46  1  0  0  0  0
  6 47  1  0  0  0  0
  7  8  2  0  0  0  0
  7  9  1  0  0  0  0
  9 10  1  0  0  0  0
  9 48  1  0  0  0  0
 10 11  1  0  0  0  0
 10 15  2  0  0  0  0
 11 12  2  0  0  0  0
 11 49  1  0  0  0  0
 12 13  1  0  0  0  0
 12 50  1  0  0  0  0
 13 14  2  0  0  0  0
 13 51  1  0  0  0  0
 14 15  1  0  0  0  0
 14 18  1  0  0  0  0
 15 16  1  0  0  0  0
 16 17  1  0  0  0  0
 16 52  1  0  0  0  0
 16 53  1  0  0  0  0
 17 18  1  0  0  0  0
 17 21  2  0  0  0  0
 18 19  2  0  0  0  0
 19 20  1  0  0  0  0
 20 21  1  0  0  0  0
 20 54  1  0  0  0  0
 21 22  1  0  0  0  0
 22 23  2  0  0  0  0
 22 36  1  0  0  0  0
 23 24  1  0  0  0  0
 23 55  1  0  0  0  0
 24 25  1  0  0  0  0
 25 26  1  0  0  0  0
 25 36  2  0  0  0  0
 26 27  3  0  0  0  0
 27 28  1  0  0  0  0
 28 29  1  0  0  0  0
 28 56  1  0  0  0  0
 28 57  1  0  0  0  0
 29 30  1  0  0  0  0
 30 31  1  0  0  0  0
 30 35  2  0  0  0  0
 31 32  2  0  0  0  0
 31 58  1  0  0  0  0
 32 33  1  0  0  0  0
 32 59  1  0  0  0  0
 33 34  2  0  0  0  0
 33 60  1  0  0  0  0
 34 35  1  0  0  0  0
 34 61  1  0  0  0  0
 35 62  1  0  0  0  0
 36 63  1  0  0  0  0
 37 38  1  0  0  0  0
 37 64  1  0  0  0  0
 37 65  1  0  0  0  0
 38 66  1  0  0  0  0
 38 67  1  0  0  0  0
M  END
$$$$
