CHEMBL4576626
 OpenBabel04072215383D

 52 55  0  0  0  0  0  0  0  0999 V2000
    3.7953   -1.5076    0.1217 C   0  0  0  0  0  0  0  0  0  0  0  0
    3.8418   -0.4253   -0.8021 O   0  0  0  0  0  0  0  0  0  0  0  0
    4.3087    0.7640   -0.3139 C   0  0  0  0  0  0  0  0  0  0  0  0
    4.6862    1.0003    1.0069 C   0  0  0  0  0  0  0  0  0  0  0  0
    5.1709    2.2522    1.3889 C   0  0  0  0  0  0  0  0  0  0  0  0
    5.2663    3.2911    0.4534 C   0  0  0  0  0  0  0  0  0  0  0  0
    5.7579    4.5664    0.8405 N   0  0  0  0  0  0  0  0  0  0  0  0
    6.2519    4.9224    2.0726 C   0  0  0  0  0  0  0  0  0  0  0  0
    6.6334    6.2370    2.0108 C   0  0  0  0  0  0  0  0  0  0  0  0
    7.2143    7.0017    3.0142 N   0  0  0  0  0  0  0  0  0  0  0  0
    7.5005    6.5158    4.2796 C   0  0  0  0  0  0  0  0  0  0  0  0
    7.3008    5.3702    4.6744 O   0  0  0  0  0  0  0  0  0  0  0  0
    8.1132    7.4712    5.2436 C   0  0  0  0  0  0  0  0  0  0  0  0
    7.8929    8.8541    5.2010 C   0  0  0  0  0  0  0  0  0  0  0  0
    8.4123    9.6763    6.2136 C   0  0  0  0  0  0  0  0  0  0  0  0
    9.1511    9.1137    7.2565 C   0  0  0  0  0  0  0  0  0  0  0  0
    9.6078    9.8873    8.3533 N   0  0  0  0  0  0  0  0  0  0  0  0
    8.5775   10.0900    9.6794 S   0  0  0  0  0  0  0  0  0  0  0  0
    9.2571   11.0107   10.5619 O   0  0  0  0  0  0  0  0  0  0  0  0
    7.2426   10.3769    9.1978 O   0  0  0  0  0  0  0  0  0  0  0  0
    8.5565    8.4993   10.4884 C   0  0  0  0  0  0  0  0  0  0  0  0
    9.5146    8.2196   11.4684 C   0  0  0  0  0  0  0  0  0  0  0  0
    9.4419    7.0251   12.1897 C   0  0  0  0  0  0  0  0  0  0  0  0
    8.4133    6.1182   11.9337 C   0  0  0  0  0  0  0  0  0  0  0  0
    8.3132    4.6653   12.8500 Cl  0  0  0  0  0  0  0  0  0  0  0  0
    7.4567    6.3929   10.9554 C   0  0  0  0  0  0  0  0  0  0  0  0
    7.5194    7.5904   10.2347 C   0  0  0  0  0  0  0  0  0  0  0  0
    9.3893    7.7444    7.2879 C   0  0  0  0  0  0  0  0  0  0  0  0
    8.8712    6.9258    6.2893 C   0  0  0  0  0  0  0  0  0  0  0  0
    6.2973    6.6209    0.6988 C   0  0  0  0  0  0  0  0  0  0  0  0
    5.7901    5.6173   -0.0223 N   0  0  0  0  0  0  0  0  0  0  0  0
    4.8736    3.0617   -0.8704 C   0  0  0  0  0  0  0  0  0  0  0  0
    4.4025    1.7997   -1.2475 C   0  0  0  0  0  0  0  0  0  0  0  0
    3.4680   -2.3999   -0.4186 H   0  0  0  0  0  0  0  0  0  0  0  0
    3.0679   -1.3102    0.9167 H   0  0  0  0  0  0  0  0  0  0  0  0
    4.7866   -1.7178    0.5386 H   0  0  0  0  0  0  0  0  0  0  0  0
    4.6197    0.2334    1.7713 H   0  0  0  0  0  0  0  0  0  0  0  0
    5.4570    2.3764    2.4288 H   0  0  0  0  0  0  0  0  0  0  0  0
    6.3129    4.2146    2.8830 H   0  0  0  0  0  0  0  0  0  0  0  0
    7.4852    7.9389    2.7573 H   0  0  0  0  0  0  0  0  0  0  0  0
    7.2740    9.3050    4.4307 H   0  0  0  0  0  0  0  0  0  0  0  0
    8.1955   10.7423    6.1957 H   0  0  0  0  0  0  0  0  0  0  0  0
   10.1362   10.7382    8.1619 H   0  0  0  0  0  0  0  0  0  0  0  0
   10.3041    8.9339   11.6931 H   0  0  0  0  0  0  0  0  0  0  0  0
   10.1780    6.8170   12.9630 H   0  0  0  0  0  0  0  0  0  0  0  0
    6.6515    5.6854   10.7653 H   0  0  0  0  0  0  0  0  0  0  0  0
    6.7538    7.8078    9.4920 H   0  0  0  0  0  0  0  0  0  0  0  0
    9.9623    7.3028    8.0986 H   0  0  0  0  0  0  0  0  0  0  0  0
    9.0406    5.8516    6.3463 H   0  0  0  0  0  0  0  0  0  0  0  0
    6.3999    7.5895    0.2285 H   0  0  0  0  0  0  0  0  0  0  0  0
    4.9385    3.8478   -1.6200 H   0  0  0  0  0  0  0  0  0  0  0  0
    4.1108    1.6231   -2.2801 H   0  0  0  0  0  0  0  0  0  0  0  0
  1  2  1  0  0  0  0
  1 34  1  0  0  0  0
  1 35  1  0  0  0  0
  1 36  1  0  0  0  0
  2  3  1  0  0  0  0
  3  4  1  0  0  0  0
  3 33  2  0  0  0  0
  4  5  2  0  0  0  0
  4 37  1  0  0  0  0
  5  6  1  0  0  0  0
  5 38  1  0  0  0  0
  6  7  1  0  0  0  0
  6 32  2  0  0  0  0
  7  8  1  0  0  0  0
  7 31  1  0  0  0  0
  8  9  2  0  0  0  0
  8 39  1  0  0  0  0
  9 10  1  0  0  0  0
  9 30  1  0  0  0  0
 10 11  1  0  0  0  0
 10 40  1  0  0  0  0
 11 12  2  0  0  0  0
 11 13  1  0  0  0  0
 13 14  1  0  0  0  0
 13 29  2  0  0  0  0
 14 15  2  0  0  0  0
 14 41  1  0  0  0  0
 15 16  1  0  0  0  0
 15 42  1  0  0  0  0
 16 17  1  0  0  0  0
 16 28  2  0  0  0  0
 17 18  1  0  0  0  0
 17 43  1  0  0  0  0
 18 19  2  0  0  0  0
 18 20  2  0  0  0  0
 18 21  1  0  0  0  0
 21 22  1  0  0  0  0
 21 27  2  0  0  0  0
 22 23  2  0  0  0  0
 22 44  1  0  0  0  0
 23 24  1  0  0  0  0
 23 45  1  0  0  0  0
 24 25  1  0  0  0  0
 24 26  2  0  0  0  0
 26 27  1  0  0  0  0
 26 46  1  0  0  0  0
 27 47  1  0  0  0  0
 28 29  1  0  0  0  0
 28 48  1  0  0  0  0
 29 49  1  0  0  0  0
 30 31  2  0  0  0  0
 30 50  1  0  0  0  0
 32 33  1  0  0  0  0
 32 51  1  0  0  0  0
 33 52  1  0  0  0  0
M  END
$$$$
