CHEMBL407532
 OpenBabel04072215383D

 31 33  0  0  0  0  0  0  0  0999 V2000
    0.9794   -0.0481   -0.2596 N   0  0  0  0  0  0  0  0  0  0  0  0
    2.3728   -0.0171   -0.0773 C   0  0  0  0  0  0  0  0  0  0  0  0
    3.0280   -1.1667   -0.2886 N   0  0  0  0  0  0  0  0  0  0  0  0
    4.3602   -1.0970   -0.1765 C   0  0  0  0  0  0  0  0  0  0  0  0
    5.0861   -0.0064    0.1136 N   0  0  0  0  0  0  0  0  0  0  0  0
    4.3993    1.1342    0.3093 C   0  0  0  0  0  0  0  0  0  0  0  0
    3.0041    1.1938    0.2223 C   0  0  0  0  0  0  0  0  0  0  0  0
    2.2043    2.3346    0.4900 N   0  0  0  0  0  0  0  0  0  0  0  0
    2.5551    3.4837    0.0085 C   0  0  0  0  0  0  0  0  0  0  0  0
    1.6971    4.6637    0.2904 C   0  0  0  0  0  0  0  0  0  0  0  0
    2.2451    5.9492    0.3587 C   0  0  0  0  0  0  0  0  0  0  0  0
    1.4239    7.0444    0.6120 C   0  0  0  0  0  0  0  0  0  0  0  0
    0.0564    6.8543    0.8064 C   0  0  0  0  0  0  0  0  0  0  0  0
   -0.4876    5.5709    0.7449 C   0  0  0  0  0  0  0  0  0  0  0  0
   -2.1767    5.3504    0.9813 Cl  0  0  0  0  0  0  0  0  0  0  0  0
    0.3257    4.4713    0.4876 C   0  0  0  0  0  0  0  0  0  0  0  0
    3.7820    3.6820   -0.8557 C   0  0  0  0  0  0  0  0  0  0  0  0
    5.0397    3.5035   -0.0215 C   0  0  0  0  0  0  0  0  0  0  0  0
    5.2014    2.2197    0.6509 N   0  0  0  0  0  0  0  0  0  0  0  0
    0.6680   -1.0115   -0.2756 H   0  0  0  0  0  0  0  0  0  0  0  0
    0.5299    0.5425    0.4348 H   0  0  0  0  0  0  0  0  0  0  0  0
    4.9107   -2.0170   -0.3408 H   0  0  0  0  0  0  0  0  0  0  0  0
    3.3098    6.1204    0.2297 H   0  0  0  0  0  0  0  0  0  0  0  0
    1.8521    8.0422    0.6598 H   0  0  0  0  0  0  0  0  0  0  0  0
   -0.5800    7.7115    1.0053 H   0  0  0  0  0  0  0  0  0  0  0  0
   -0.1044    3.4741    0.4273 H   0  0  0  0  0  0  0  0  0  0  0  0
    3.7851    4.6777   -1.3108 H   0  0  0  0  0  0  0  0  0  0  0  0
    3.7437    2.9830   -1.6980 H   0  0  0  0  0  0  0  0  0  0  0  0
    5.0831    4.2849    0.7485 H   0  0  0  0  0  0  0  0  0  0  0  0
    5.9049    3.6664   -0.6734 H   0  0  0  0  0  0  0  0  0  0  0  0
    6.1598    1.8795    0.6316 H   0  0  0  0  0  0  0  0  0  0  0  0
  1  2  1  0  0  0  0
  1 20  1  0  0  0  0
  1 21  1  0  0  0  0
  2  3  1  0  0  0  0
  2  7  2  0  0  0  0
  3  4  2  0  0  0  0
  4  5  1  0  0  0  0
  4 22  1  0  0  0  0
  5  6  2  0  0  0  0
  6  7  1  0  0  0  0
  6 19  1  0  0  0  0
  7  8  1  0  0  0  0
  8  9  2  0  0  0  0
  9 10  1  0  0  0  0
  9 17  1  0  0  0  0
 10 11  1  0  0  0  0
 10 16  2  0  0  0  0
 11 12  2  0  0  0  0
 11 23  1  0  0  0  0
 12 13  1  0  0  0  0
 12 24  1  0  0  0  0
 13 14  2  0  0  0  0
 13 25  1  0  0  0  0
 14 15  1  0  0  0  0
 14 16  1  0  0  0  0
 16 26  1  0  0  0  0
 17 18  1  0  0  0  0
 17 27  1  0  0  0  0
 17 28  1  0  0  0  0
 18 19  1  0  0  0  0
 18 29  1  0  0  0  0
 18 30  1  0  0  0  0
 19 31  1  0  0  0  0
M  END
$$$$
