CHEMBL474543
 OpenBabel04072215383D

 41 45  0  0  0  0  0  0  0  0999 V2000
   -6.7172    2.5804    1.2103 Cl  0  0  0  0  0  0  0  0  0  0  0  0
   -5.4983    1.3929    0.9463 C   0  0  0  0  0  0  0  0  0  0  0  0
   -5.8547    0.0680    0.7458 C   0  0  0  0  0  0  0  0  0  0  0  0
   -4.8582   -0.8839    0.5147 C   0  0  0  0  0  0  0  0  0  0  0  0
   -3.4915   -0.5145    0.4719 C   0  0  0  0  0  0  0  0  0  0  0  0
   -2.4239   -1.4213    0.2251 C   0  0  0  0  0  0  0  0  0  0  0  0
   -2.6717   -2.8052   -0.0197 N   0  0  0  0  0  0  0  0  0  0  0  0
   -1.7520   -3.8712    0.1093 C   0  0  0  0  0  0  0  0  0  0  0  0
   -0.9022   -3.9729    1.2186 C   0  0  0  0  0  0  0  0  0  0  0  0
    0.0838   -4.9694    1.2999 C   0  0  0  0  0  0  0  0  0  0  0  0
    0.2509   -5.9100    0.2747 C   0  0  0  0  0  0  0  0  0  0  0  0
    1.3517   -6.9094    0.3500 C   0  0  0  0  0  0  0  0  0  0  0  0
    2.1946   -7.0507    1.3590 N   0  0  0  0  0  0  0  0  0  0  0  0
    3.1593   -8.0160    1.0694 C   0  0  0  0  0  0  0  0  0  0  0  0
    4.2329   -8.4206    1.8938 C   0  0  0  0  0  0  0  0  0  0  0  0
    5.1473   -9.3842    1.4360 C   0  0  0  0  0  0  0  0  0  0  0  0
    4.9982   -9.9533    0.1753 C   0  0  0  0  0  0  0  0  0  0  0  0
    3.9333   -9.5868   -0.6489 C   0  0  0  0  0  0  0  0  0  0  0  0
    3.0297   -8.6177   -0.1805 C   0  0  0  0  0  0  0  0  0  0  0  0
    1.6522   -7.9802   -0.9709 S   0  0  0  0  0  0  0  0  0  0  0  0
   -0.6381   -5.8267   -0.8154 C   0  0  0  0  0  0  0  0  0  0  0  0
   -1.6207   -4.8254   -0.8997 C   0  0  0  0  0  0  0  0  0  0  0  0
   -1.1166   -0.9281    0.2361 C   0  0  0  0  0  0  0  0  0  0  0  0
   -0.9048    0.4100    0.4930 C   0  0  0  0  0  0  0  0  0  0  0  0
   -1.8936    1.2928    0.7202 N   0  0  0  0  0  0  0  0  0  0  0  0
   -3.1553    0.8432    0.7053 C   0  0  0  0  0  0  0  0  0  0  0  0
   -4.1597    1.7703    0.9330 C   0  0  0  0  0  0  0  0  0  0  0  0
   -6.8992   -0.2324    0.7723 H   0  0  0  0  0  0  0  0  0  0  0  0
   -5.1544   -1.9213    0.3815 H   0  0  0  0  0  0  0  0  0  0  0  0
   -3.3443   -2.9392   -0.7676 H   0  0  0  0  0  0  0  0  0  0  0  0
   -1.0005   -3.2595    2.0344 H   0  0  0  0  0  0  0  0  0  0  0  0
    0.7346   -4.9879    2.1730 H   0  0  0  0  0  0  0  0  0  0  0  0
    4.3562   -7.9787    2.8784 H   0  0  0  0  0  0  0  0  0  0  0  0
    5.9785   -9.6854    2.0671 H   0  0  0  0  0  0  0  0  0  0  0  0
    5.7167  -10.6909   -0.1769 H   0  0  0  0  0  0  0  0  0  0  0  0
    3.8116  -10.0321   -1.6317 H   0  0  0  0  0  0  0  0  0  0  0  0
   -0.5771   -6.5282   -1.6438 H   0  0  0  0  0  0  0  0  0  0  0  0
   -2.2528   -4.7915   -1.7833 H   0  0  0  0  0  0  0  0  0  0  0  0
   -0.2640   -1.5643    0.0270 H   0  0  0  0  0  0  0  0  0  0  0  0
    0.1003    0.8208    0.5195 H   0  0  0  0  0  0  0  0  0  0  0  0
   -3.8846    2.8081    1.1045 H   0  0  0  0  0  0  0  0  0  0  0  0
  1  2  1  0  0  0  0
  2  3  1  0  0  0  0
  2 27  2  0  0  0  0
  3  4  2  0  0  0  0
  3 28  1  0  0  0  0
  4  5  1  0  0  0  0
  4 29  1  0  0  0  0
  5  6  1  0  0  0  0
  5 26  2  0  0  0  0
  6  7  1  0  0  0  0
  6 23  2  0  0  0  0
  7  8  1  0  0  0  0
  7 30  1  0  0  0  0
  8  9  1  0  0  0  0
  8 22  2  0  0  0  0
  9 10  2  0  0  0  0
  9 31  1  0  0  0  0
 10 11  1  0  0  0  0
 10 32  1  0  0  0  0
 11 12  1  0  0  0  0
 11 21  2  0  0  0  0
 12 13  2  0  0  0  0
 12 20  1  0  0  0  0
 13 14  1  0  0  0  0
 14 15  1  0  0  0  0
 14 19  2  0  0  0  0
 15 16  2  0  0  0  0
 15 33  1  0  0  0  0
 16 17  1  0  0  0  0
 16 34  1  0  0  0  0
 17 18  2  0  0  0  0
 17 35  1  0  0  0  0
 18 19  1  0  0  0  0
 18 36  1  0  0  0  0
 19 20  1  0  0  0  0
 21 22  1  0  0  0  0
 21 37  1  0  0  0  0
 22 38  1  0  0  0  0
 23 24  1  0  0  0  0
 23 39  1  0  0  0  0
 24 25  2  0  0  0  0
 24 40  1  0  0  0  0
 25 26  1  0  0  0  0
 26 27  1  0  0  0  0
 27 41  1  0  0  0  0
M  END
$$$$
