CHEMBL247866
 OpenBabel04072215363D

 63 67  0  0  0  0  0  0  0  0999 V2000
    1.1253    0.2635   -1.6695 C   0  0  0  0  0  0  0  0  0  0  0  0
    2.6416    0.4643   -1.7834 C   0  0  0  0  0  0  0  0  0  0  0  0
    2.9297    1.2450   -3.0700 C   0  0  0  0  0  0  0  0  0  0  0  0
    3.0748    1.2119   -0.5996 N   0  0  0  0  0  0  0  0  0  0  0  0
    4.4245    1.5428   -0.4991 C   0  0  0  0  0  0  0  0  0  0  0  0
    5.3599    0.7360   -1.0522 N   0  0  0  0  0  0  0  0  0  0  0  0
    6.6535    1.1003   -0.9933 C   0  0  0  0  0  0  0  0  0  0  0  0
    7.1698    2.2038   -0.4485 N   0  0  0  0  0  0  0  0  0  0  0  0
    6.2164    2.9725    0.0966 C   0  0  0  0  0  0  0  0  0  0  0  0
    6.4961    4.1562    0.7010 O   0  0  0  0  0  0  0  0  0  0  0  0
    5.3215    4.6829    1.1509 C   0  0  0  0  0  0  0  0  0  0  0  0
    5.4433    5.9628    1.8511 C   0  0  0  0  0  0  0  0  0  0  0  0
    4.4268    6.9246    1.7672 C   0  0  0  0  0  0  0  0  0  0  0  0
    4.3799    7.9963    2.6610 C   0  0  0  0  0  0  0  0  0  0  0  0
    5.3793    8.1438    3.6224 C   0  0  0  0  0  0  0  0  0  0  0  0
    5.3623    9.0692    4.6316 O   0  0  0  0  0  0  0  0  0  0  0  0
    4.0486    9.4807    5.0395 C   0  0  0  0  0  0  0  0  0  0  0  0
    4.1172   10.0614    6.4650 C   0  0  0  0  0  0  0  0  0  0  0  0
    2.7998   10.4519    7.0103 N   0  0  0  0  0  0  0  0  0  0  0  0
    2.1647   11.5526    6.2676 C   0  0  0  0  0  0  0  0  0  0  0  0
    2.7482   12.8113    6.8726 C   0  0  0  0  0  0  0  0  0  0  0  0
    2.7803   12.4718    8.3486 C   0  0  0  0  0  0  0  0  0  0  0  0
    2.9328   10.9516    8.3935 C   0  0  0  0  0  0  0  0  0  0  0  0
    6.4811    7.2913    3.6010 C   0  0  0  0  0  0  0  0  0  0  0  0
    6.5119    6.2013    2.7263 C   0  0  0  0  0  0  0  0  0  0  0  0
    4.2644    3.8140    0.8719 C   0  0  0  0  0  0  0  0  0  0  0  0
    2.8823    4.0279    1.3062 C   0  0  0  0  0  0  0  0  0  0  0  0
    1.8124    3.7504    0.4489 C   0  0  0  0  0  0  0  0  0  0  0  0
    0.4900    3.9392    0.8594 C   0  0  0  0  0  0  0  0  0  0  0  0
    0.2180    4.4822    2.1112 C   0  0  0  0  0  0  0  0  0  0  0  0
    1.2682    4.7930    2.9680 C   0  0  0  0  0  0  0  0  0  0  0  0
    2.5854    4.5251    2.5850 C   0  0  0  0  0  0  0  0  0  0  0  0
    4.8518    2.7210    0.1406 C   0  0  0  0  0  0  0  0  0  0  0  0
    0.7316   -0.2670   -2.5440 H   0  0  0  0  0  0  0  0  0  0  0  0
    0.6023    1.2244   -1.5956 H   0  0  0  0  0  0  0  0  0  0  0  0
    0.8717   -0.3173   -0.7773 H   0  0  0  0  0  0  0  0  0  0  0  0
    3.1231   -0.5194   -1.8210 H   0  0  0  0  0  0  0  0  0  0  0  0
    2.5298    2.2660   -3.0164 H   0  0  0  0  0  0  0  0  0  0  0  0
    2.4873    0.7517   -3.9369 H   0  0  0  0  0  0  0  0  0  0  0  0
    4.0074    1.3291   -3.2616 H   0  0  0  0  0  0  0  0  0  0  0  0
    2.8073    0.7418    0.2636 H   0  0  0  0  0  0  0  0  0  0  0  0
    7.3615    0.4143   -1.4496 H   0  0  0  0  0  0  0  0  0  0  0  0
    3.6097    6.8027    1.0573 H   0  0  0  0  0  0  0  0  0  0  0  0
    3.5284    8.6706    2.6101 H   0  0  0  0  0  0  0  0  0  0  0  0
    3.3529    8.6329    5.0473 H   0  0  0  0  0  0  0  0  0  0  0  0
    3.7047   10.2393    4.3322 H   0  0  0  0  0  0  0  0  0  0  0  0
    4.8377   10.8890    6.4916 H   0  0  0  0  0  0  0  0  0  0  0  0
    4.5455    9.2796    7.1100 H   0  0  0  0  0  0  0  0  0  0  0  0
    1.0836   11.5177    6.4542 H   0  0  0  0  0  0  0  0  0  0  0  0
    2.2903   11.5143    5.1833 H   0  0  0  0  0  0  0  0  0  0  0  0
    2.1483   13.6993    6.6602 H   0  0  0  0  0  0  0  0  0  0  0  0
    3.7648   12.9885    6.5013 H   0  0  0  0  0  0  0  0  0  0  0  0
    1.8316   12.7649    8.8154 H   0  0  0  0  0  0  0  0  0  0  0  0
    3.5904   12.9908    8.8684 H   0  0  0  0  0  0  0  0  0  0  0  0
    2.1307   10.5225    9.0088 H   0  0  0  0  0  0  0  0  0  0  0  0
    3.8773   10.6628    8.8695 H   0  0  0  0  0  0  0  0  0  0  0  0
    7.2882    7.4377    4.3118 H   0  0  0  0  0  0  0  0  0  0  0  0
    7.3444    5.5046    2.7818 H   0  0  0  0  0  0  0  0  0  0  0  0
    1.9884    3.3845   -0.5581 H   0  0  0  0  0  0  0  0  0  0  0  0
   -0.3245    3.6716    0.1916 H   0  0  0  0  0  0  0  0  0  0  0  0
   -0.8085    4.6650    2.4160 H   0  0  0  0  0  0  0  0  0  0  0  0
    1.0672    5.2453    3.9368 H   0  0  0  0  0  0  0  0  0  0  0  0
    3.3779    4.7481    3.2977 H   0  0  0  0  0  0  0  0  0  0  0  0
  1  2  1  0  0  0  0
  1 34  1  0  0  0  0
  1 35  1  0  0  0  0
  1 36  1  0  0  0  0
  2  3  1  0  0  0  0
  2  4  1  0  0  0  0
  2 37  1  0  0  0  0
  3 38  1  0  0  0  0
  3 39  1  0  0  0  0
  3 40  1  0  0  0  0
  4  5  1  0  0  0  0
  4 41  1  0  0  0  0
  5  6  1  0  0  0  0
  5 33  2  0  0  0  0
  6  7  2  0  0  0  0
  7  8  1  0  0  0  0
  7 42  1  0  0  0  0
  8  9  2  0  0  0  0
  9 10  1  0  0  0  0
  9 33  1  0  0  0  0
 10 11  1  0  0  0  0
 11 12  1  0  0  0  0
 11 26  2  0  0  0  0
 12 13  1  0  0  0  0
 12 25  2  0  0  0  0
 13 14  2  0  0  0  0
 13 43  1  0  0  0  0
 14 15  1  0  0  0  0
 14 44  1  0  0  0  0
 15 16  1  0  0  0  0
 15 24  2  0  0  0  0
 16 17  1  0  0  0  0
 17 18  1  0  0  0  0
 17 45  1  0  0  0  0
 17 46  1  0  0  0  0
 18 19  1  0  0  0  0
 18 47  1  0  0  0  0
 18 48  1  0  0  0  0
 19 20  1  0  0  0  0
 19 23  1  0  0  0  0
 20 21  1  0  0  0  0
 20 49  1  0  0  0  0
 20 50  1  0  0  0  0
 21 22  1  0  0  0  0
 21 51  1  0  0  0  0
 21 52  1  0  0  0  0
 22 23  1  0  0  0  0
 22 53  1  0  0  0  0
 22 54  1  0  0  0  0
 23 55  1  0  0  0  0
 23 56  1  0  0  0  0
 24 25  1  0  0  0  0
 24 57  1  0  0  0  0
 25 58  1  0  0  0  0
 26 27  1  0  0  0  0
 26 33  1  0  0  0  0
 27 28  1  0  0  0  0
 27 32  2  0  0  0  0
 28 29  2  0  0  0  0
 28 59  1  0  0  0  0
 29 30  1  0  0  0  0
 29 60  1  0  0  0  0
 30 31  2  0  0  0  0
 30 61  1  0  0  0  0
 31 32  1  0  0  0  0
 31 62  1  0  0  0  0
 32 63  1  0  0  0  0
M  END
$$$$
