CHEMBL1076196
 OpenBabel04072215353D

 80 85  0  0  0  0  0  0  0  0999 V2000
   -8.8514    8.2643   -2.4715 C   0  0  0  0  0  0  0  0  0  0  0  0
   -8.0600    7.6045   -1.3811 C   0  0  0  0  0  0  0  0  0  0  0  0
   -7.3203    8.3756   -0.4804 C   0  0  0  0  0  0  0  0  0  0  0  0
   -6.5689    7.7581    0.5143 C   0  0  0  0  0  0  0  0  0  0  0  0
   -6.5581    6.3656    0.6263 C   0  0  0  0  0  0  0  0  0  0  0  0
   -7.3111    5.5722   -0.2417 C   0  0  0  0  0  0  0  0  0  0  0  0
   -7.3717    4.1589   -0.1601 N   0  0  0  0  0  0  0  0  0  0  0  0
   -6.7675    3.3609    0.7989 C   0  0  0  0  0  0  0  0  0  0  0  0
   -6.1137    3.7549    1.7607 O   0  0  0  0  0  0  0  0  0  0  0  0
   -6.9214    1.8819    0.6487 C   0  0  0  0  0  0  0  0  0  0  0  0
   -6.7357    1.0856    1.7790 C   0  0  0  0  0  0  0  0  0  0  0  0
   -6.6482   -0.3007    1.6511 C   0  0  0  0  0  0  0  0  0  0  0  0
   -6.7836   -0.9204    0.3981 C   0  0  0  0  0  0  0  0  0  0  0  0
   -6.4422   -2.3808    0.2931 C   0  0  0  0  0  0  0  0  0  0  0  0
   -7.1743   -0.1381   -0.7147 C   0  0  0  0  0  0  0  0  0  0  0  0
   -7.4944   -0.7390   -1.9729 N   0  0  0  0  0  0  0  0  0  0  0  0
   -8.3776   -0.1465   -2.8412 C   0  0  0  0  0  0  0  0  0  0  0  0
   -9.3034    0.7431   -2.5230 N   0  0  0  0  0  0  0  0  0  0  0  0
   -9.7574    1.2616   -3.6977 C   0  0  0  0  0  0  0  0  0  0  0  0
  -10.7137    2.2698   -3.9025 C   0  0  0  0  0  0  0  0  0  0  0  0
  -11.0078    2.6730   -5.2091 C   0  0  0  0  0  0  0  0  0  0  0  0
  -10.3687    2.0735   -6.2926 C   0  0  0  0  0  0  0  0  0  0  0  0
   -9.4214    1.0596   -6.1070 C   0  0  0  0  0  0  0  0  0  0  0  0
   -9.1227    0.6752   -4.7895 C   0  0  0  0  0  0  0  0  0  0  0  0
   -8.2892   -0.2921   -4.2312 N   0  0  0  0  0  0  0  0  0  0  0  0
   -7.4448   -1.1789   -4.9608 C   0  0  0  0  0  0  0  0  0  0  0  0
   -7.1742   -2.4436   -4.4676 C   0  0  0  0  0  0  0  0  0  0  0  0
   -6.2806   -3.2234   -5.1767 C   0  0  0  0  0  0  0  0  0  0  0  0
   -6.0628   -4.5458   -4.7530 N   0  0  0  0  0  0  0  0  0  0  0  0
   -4.7898   -5.1341   -5.1967 C   0  0  0  0  0  0  0  0  0  0  0  0
   -3.6871   -4.8870   -4.1320 C   0  0  0  0  0  0  0  0  0  0  0  0
   -4.0588   -5.3403   -2.7692 N   0  0  0  0  0  0  0  0  0  0  0  0
   -4.2653   -6.8036   -2.7041 C   0  0  0  0  0  0  0  0  0  0  0  0
   -4.6455   -7.2601   -1.2769 C   0  0  0  0  0  0  0  0  0  0  0  0
   -3.6837   -6.8821   -0.2261 N   0  0  0  0  0  0  0  0  0  0  0  0
   -2.4888   -7.7215   -0.2646 C   0  0  0  0  0  0  0  0  0  0  0  0
   -3.3538   -5.4482   -0.3569 C   0  0  0  0  0  0  0  0  0  0  0  0
   -3.0062   -4.9750   -1.7919 C   0  0  0  0  0  0  0  0  0  0  0  0
   -5.7324   -2.7867   -6.3201 N   0  0  0  0  0  0  0  0  0  0  0  0
   -6.1024   -1.5762   -6.7535 C   0  0  0  0  0  0  0  0  0  0  0  0
   -6.9465   -0.7474   -6.1360 N   0  0  0  0  0  0  0  0  0  0  0  0
   -7.1456    1.2633   -0.5842 C   0  0  0  0  0  0  0  0  0  0  0  0
   -8.0519    6.2040   -1.2541 C   0  0  0  0  0  0  0  0  0  0  0  0
   -8.7485    9.3548   -2.4373 H   0  0  0  0  0  0  0  0  0  0  0  0
   -9.9145    8.0267   -2.3672 H   0  0  0  0  0  0  0  0  0  0  0  0
   -8.4976    7.9286   -3.4513 H   0  0  0  0  0  0  0  0  0  0  0  0
   -7.3214    9.4613   -0.5465 H   0  0  0  0  0  0  0  0  0  0  0  0
   -5.9866    8.3563    1.2102 H   0  0  0  0  0  0  0  0  0  0  0  0
   -5.9466    5.9346    1.4114 H   0  0  0  0  0  0  0  0  0  0  0  0
   -7.9674    3.7064   -0.8412 H   0  0  0  0  0  0  0  0  0  0  0  0
   -6.5973    1.5425    2.7560 H   0  0  0  0  0  0  0  0  0  0  0  0
   -6.4286   -0.8904    2.5401 H   0  0  0  0  0  0  0  0  0  0  0  0
   -6.0198   -2.7554    1.2340 H   0  0  0  0  0  0  0  0  0  0  0  0
   -5.6670   -2.5215   -0.4691 H   0  0  0  0  0  0  0  0  0  0  0  0
   -7.3172   -2.9854    0.0504 H   0  0  0  0  0  0  0  0  0  0  0  0
   -7.6605   -1.7284   -1.8270 H   0  0  0  0  0  0  0  0  0  0  0  0
  -11.2085    2.7285   -3.0533 H   0  0  0  0  0  0  0  0  0  0  0  0
  -11.7425    3.4565   -5.3782 H   0  0  0  0  0  0  0  0  0  0  0  0
  -10.6127    2.3954   -7.3033 H   0  0  0  0  0  0  0  0  0  0  0  0
   -8.9420    0.5931   -6.9626 H   0  0  0  0  0  0  0  0  0  0  0  0
   -7.6637   -2.8483   -3.5951 H   0  0  0  0  0  0  0  0  0  0  0  0
   -6.1058   -4.6196   -3.7362 H   0  0  0  0  0  0  0  0  0  0  0  0
   -4.4554   -4.7762   -6.1761 H   0  0  0  0  0  0  0  0  0  0  0  0
   -4.9457   -6.2106   -5.3231 H   0  0  0  0  0  0  0  0  0  0  0  0
   -3.5056   -3.8045   -4.0917 H   0  0  0  0  0  0  0  0  0  0  0  0
   -2.7542   -5.3596   -4.4621 H   0  0  0  0  0  0  0  0  0  0  0  0
   -3.3650   -7.3361   -3.0420 H   0  0  0  0  0  0  0  0  0  0  0  0
   -5.0849   -7.1038   -3.3623 H   0  0  0  0  0  0  0  0  0  0  0  0
   -4.8124   -8.3444   -1.2706 H   0  0  0  0  0  0  0  0  0  0  0  0
   -5.6161   -6.8133   -1.0222 H   0  0  0  0  0  0  0  0  0  0  0  0
   -2.7611   -8.7778   -0.1535 H   0  0  0  0  0  0  0  0  0  0  0  0
   -1.8305   -7.4832    0.5780 H   0  0  0  0  0  0  0  0  0  0  0  0
   -1.9130   -7.6152   -1.1891 H   0  0  0  0  0  0  0  0  0  0  0  0
   -2.5389   -5.1840    0.3291 H   0  0  0  0  0  0  0  0  0  0  0  0
   -4.2246   -4.8761   -0.0104 H   0  0  0  0  0  0  0  0  0  0  0  0
   -2.0380   -5.4000   -2.0900 H   0  0  0  0  0  0  0  0  0  0  0  0
   -2.8868   -3.8851   -1.7697 H   0  0  0  0  0  0  0  0  0  0  0  0
   -5.6769   -1.2400   -7.6925 H   0  0  0  0  0  0  0  0  0  0  0  0
   -7.2738    1.8671   -1.4761 H   0  0  0  0  0  0  0  0  0  0  0  0
   -8.6330    5.6097   -1.9552 H   0  0  0  0  0  0  0  0  0  0  0  0
  1  2  1  0  0  0  0
  1 44  1  0  0  0  0
  1 45  1  0  0  0  0
  1 46  1  0  0  0  0
  2  3  1  0  0  0  0
  2 43  2  0  0  0  0
  3  4  2  0  0  0  0
  3 47  1  0  0  0  0
  4  5  1  0  0  0  0
  4 48  1  0  0  0  0
  5  6  2  0  0  0  0
  5 49  1  0  0  0  0
  6  7  1  0  0  0  0
  6 43  1  0  0  0  0
  7  8  1  0  0  0  0
  7 50  1  0  0  0  0
  8  9  2  0  0  0  0
  8 10  1  0  0  0  0
 10 11  1  0  0  0  0
 10 42  2  0  0  0  0
 11 12  2  0  0  0  0
 11 51  1  0  0  0  0
 12 13  1  0  0  0  0
 12 52  1  0  0  0  0
 13 14  1  0  0  0  0
 13 15  2  0  0  0  0
 14 53  1  0  0  0  0
 14 54  1  0  0  0  0
 14 55  1  0  0  0  0
 15 16  1  0  0  0  0
 15 42  1  0  0  0  0
 16 17  1  0  0  0  0
 16 56  1  0  0  0  0
 17 18  2  0  0  0  0
 17 25  1  0  0  0  0
 18 19  1  0  0  0  0
 19 20  1  0  0  0  0
 19 24  2  0  0  0  0
 20 21  2  0  0  0  0
 20 57  1  0  0  0  0
 21 22  1  0  0  0  0
 21 58  1  0  0  0  0
 22 23  2  0  0  0  0
 22 59  1  0  0  0  0
 23 24  1  0  0  0  0
 23 60  1  0  0  0  0
 24 25  1  0  0  0  0
 25 26  1  0  0  0  0
 26 27  1  0  0  0  0
 26 41  2  0  0  0  0
 27 28  2  0  0  0  0
 27 61  1  0  0  0  0
 28 29  1  0  0  0  0
 28 39  1  0  0  0  0
 29 30  1  0  0  0  0
 29 62  1  0  0  0  0
 30 31  1  0  0  0  0
 30 63  1  0  0  0  0
 30 64  1  0  0  0  0
 31 32  1  0  0  0  0
 31 65  1  0  0  0  0
 31 66  1  0  0  0  0
 32 33  1  0  0  0  0
 32 38  1  0  0  0  0
 33 34  1  0  0  0  0
 33 67  1  0  0  0  0
 33 68  1  0  0  0  0
 34 35  1  0  0  0  0
 34 69  1  0  0  0  0
 34 70  1  0  0  0  0
 35 36  1  0  0  0  0
 35 37  1  0  0  0  0
 36 71  1  0  0  0  0
 36 72  1  0  0  0  0
 36 73  1  0  0  0  0
 37 38  1  0  0  0  0
 37 74  1  0  0  0  0
 37 75  1  0  0  0  0
 38 76  1  0  0  0  0
 38 77  1  0  0  0  0
 39 40  2  0  0  0  0
 40 41  1  0  0  0  0
 40 78  1  0  0  0  0
 42 79  1  0  0  0  0
 43 80  1  0  0  0  0
M  END
$$$$
