CHEMBL603082
 OpenBabel04072215383D

 62 65  0  0  1  0  0  0  0  0999 V2000
    2.8918    1.2446   -0.1666 O   0  0  0  0  0  0  0  0  0  0  0  0
    2.4242    0.1315    0.0189 C   0  0  0  0  0  0  0  0  0  0  0  0
    0.9375   -0.1213   -0.1264 C   0  0  0  0  0  0  0  0  0  0  0  0
    0.1788    1.1996   -0.3458 C   0  0  3  0  0  0  0  0  0  0  0  0
   -1.2518    0.8738   -0.6454 N   0  0  0  0  0  0  0  0  0  0  0  0
   -1.7204    0.7384   -1.9547 C   0  0  0  0  0  0  0  0  0  0  0  0
   -0.8957    0.6394   -3.0818 C   0  0  0  0  0  0  0  0  0  0  0  0
   -1.4384    0.4781   -4.3625 C   0  0  0  0  0  0  0  0  0  0  0  0
   -2.8106    0.3656   -4.5193 C   0  0  0  0  0  0  0  0  0  0  0  0
   -3.3283    0.2105   -5.7449 F   0  0  0  0  0  0  0  0  0  0  0  0
   -3.6516    0.3985   -3.4186 C   0  0  0  0  0  0  0  0  0  0  0  0
   -3.1048    0.5743   -2.1439 C   0  0  0  0  0  0  0  0  0  0  0  0
    0.3283    2.1397    0.8889 C   0  0  0  0  0  0  0  0  0  0  0  0
    0.9643    1.5588    1.9299 F   0  0  0  0  0  0  0  0  0  0  0  0
    0.9828    3.2797    0.5735 F   0  0  0  0  0  0  0  0  0  0  0  0
   -0.8985    2.5139    1.3452 F   0  0  0  0  0  0  0  0  0  0  0  0
    3.1361   -1.0098    0.3388 N   0  0  0  0  0  0  0  0  0  0  0  0
    4.5207   -1.0705    0.6068 C   0  0  0  0  0  0  0  0  0  0  0  0
    5.3012    0.0501    0.9187 C   0  0  0  0  0  0  0  0  0  0  0  0
    6.6892   -0.0662    1.0875 C   0  0  0  0  0  0  0  0  0  0  0  0
    7.3058   -1.3090    0.9470 C   0  0  0  0  0  0  0  0  0  0  0  0
    8.6792   -1.3638    1.0545 O   0  0  0  0  0  0  0  0  0  0  0  0
    9.3601   -2.0826    0.0686 C   0  0  0  0  0  0  0  0  0  0  0  0
   10.6598   -2.4539    0.3510 C   0  0  0  0  0  0  0  0  0  0  0  0
   11.3006   -3.1912   -0.6242 C   0  0  0  0  0  0  0  0  0  0  0  0
   12.6374   -3.5788   -0.4085 N   0  0  0  0  0  0  0  0  0  0  0  0
   13.3751   -4.3407   -1.2854 C   0  0  0  0  0  0  0  0  0  0  0  0
   12.9566   -4.8278   -2.3333 O   0  0  0  0  0  0  0  0  0  0  0  0
   14.6914   -4.5502   -0.9176 N   0  0  0  0  0  0  0  0  0  0  0  0
   15.4347   -4.0538    0.2239 C   0  0  0  0  0  0  0  0  0  0  0  0
   16.8855   -4.1356   -0.2252 C   0  0  0  0  0  0  0  0  0  0  0  0
   16.9155   -5.3592   -1.1319 C   0  0  0  0  0  0  0  0  0  0  0  0
   15.5224   -5.4117   -1.7435 C   0  0  0  0  0  0  0  0  0  0  0  0
   10.6855   -3.5318   -1.7636 N   0  0  0  0  0  0  0  0  0  0  0  0
    9.4350   -3.1069   -1.9459 C   0  0  0  0  0  0  0  0  0  0  0  0
    8.7397   -2.3576   -1.0924 N   0  0  0  0  0  0  0  0  0  0  0  0
    6.5089   -2.4382    0.7525 C   0  0  0  0  0  0  0  0  0  0  0  0
    7.0525   -3.6647    0.7303 F   0  0  0  0  0  0  0  0  0  0  0  0
    5.1314   -2.3251    0.5662 C   0  0  0  0  0  0  0  0  0  0  0  0
    0.5679   -0.6313    0.7691 H   0  0  0  0  0  0  0  0  0  0  0  0
    0.7897   -0.7971   -0.9793 H   0  0  0  0  0  0  0  0  0  0  0  0
    0.6085    1.7525   -1.1889 H   0  0  0  0  0  0  0  0  0  0  0  0
   -1.8936    1.4485   -0.0885 H   0  0  0  0  0  0  0  0  0  0  0  0
    0.1848    0.7011   -3.0052 H   0  0  0  0  0  0  0  0  0  0  0  0
   -0.7917    0.4393   -5.2337 H   0  0  0  0  0  0  0  0  0  0  0  0
   -4.7210    0.2772   -3.5546 H   0  0  0  0  0  0  0  0  0  0  0  0
   -3.7764    0.5757   -1.2876 H   0  0  0  0  0  0  0  0  0  0  0  0
    2.6565   -1.8977    0.2365 H   0  0  0  0  0  0  0  0  0  0  0  0
    4.8524    1.0323    1.0441 H   0  0  0  0  0  0  0  0  0  0  0  0
    7.2772    0.8205    1.3083 H   0  0  0  0  0  0  0  0  0  0  0  0
   11.1260   -2.1817    1.2861 H   0  0  0  0  0  0  0  0  0  0  0  0
   13.0665   -3.3113    0.4579 H   0  0  0  0  0  0  0  0  0  0  0  0
   15.2398   -4.7306    1.0630 H   0  0  0  0  0  0  0  0  0  0  0  0
   15.1405   -3.0385    0.5001 H   0  0  0  0  0  0  0  0  0  0  0  0
   17.5842   -4.2141    0.6124 H   0  0  0  0  0  0  0  0  0  0  0  0
   17.1474   -3.2427   -0.8058 H   0  0  0  0  0  0  0  0  0  0  0  0
   17.1044   -6.2643   -0.5442 H   0  0  0  0  0  0  0  0  0  0  0  0
   17.6949   -5.2905   -1.8978 H   0  0  0  0  0  0  0  0  0  0  0  0
   15.1150   -6.4288   -1.7197 H   0  0  0  0  0  0  0  0  0  0  0  0
   15.5098   -5.0541   -2.7785 H   0  0  0  0  0  0  0  0  0  0  0  0
    8.9456   -3.4045   -2.8658 H   0  0  0  0  0  0  0  0  0  0  0  0
    4.5699   -3.2304    0.3662 H   0  0  0  0  0  0  0  0  0  0  0  0
  1  2  2  0  0  0  0
  2  3  1  0  0  0  0
  2 17  1  0  0  0  0
  3  4  1  0  0  0  0
  3 40  1  0  0  0  0
  3 41  1  0  0  0  0
  4  5  1  0  0  0  0
  4 13  1  0  0  0  0
  4 42  1  0  0  0  0
  5  6  1  0  0  0  0
  5 43  1  0  0  0  0
  6  7  1  0  0  0  0
  6 12  2  0  0  0  0
  7  8  2  0  0  0  0
  7 44  1  0  0  0  0
  8  9  1  0  0  0  0
  8 45  1  0  0  0  0
  9 10  1  0  0  0  0
  9 11  2  0  0  0  0
 11 12  1  0  0  0  0
 11 46  1  0  0  0  0
 12 47  1  0  0  0  0
 13 14  1  0  0  0  0
 13 15  1  0  0  0  0
 13 16  1  0  0  0  0
 17 18  1  0  0  0  0
 17 48  1  0  0  0  0
 18 19  1  0  0  0  0
 18 39  2  0  0  0  0
 19 20  2  0  0  0  0
 19 49  1  0  0  0  0
 20 21  1  0  0  0  0
 20 50  1  0  0  0  0
 21 22  1  0  0  0  0
 21 37  2  0  0  0  0
 22 23  1  0  0  0  0
 23 24  1  0  0  0  0
 23 36  2  0  0  0  0
 24 25  2  0  0  0  0
 24 51  1  0  0  0  0
 25 26  1  0  0  0  0
 25 34  1  0  0  0  0
 26 27  1  0  0  0  0
 26 52  1  0  0  0  0
 27 28  2  0  0  0  0
 27 29  1  0  0  0  0
 29 30  1  0  0  0  0
 29 33  1  0  0  0  0
 30 31  1  0  0  0  0
 30 53  1  0  0  0  0
 30 54  1  0  0  0  0
 31 32  1  0  0  0  0
 31 55  1  0  0  0  0
 31 56  1  0  0  0  0
 32 33  1  0  0  0  0
 32 57  1  0  0  0  0
 32 58  1  0  0  0  0
 33 59  1  0  0  0  0
 33 60  1  0  0  0  0
 34 35  2  0  0  0  0
 35 36  1  0  0  0  0
 35 61  1  0  0  0  0
 37 38  1  0  0  0  0
 37 39  1  0  0  0  0
 39 62  1  0  0  0  0
M  END
$$$$
