CHEMBL392743
 OpenBabel04072215373D

 50 53  0  0  0  0  0  0  0  0999 V2000
    6.5719    1.7427   -0.6075 C   0  0  0  0  0  0  0  0  0  0  0  0
    5.3409    0.9693   -0.4141 N   0  0  0  0  0  0  0  0  0  0  0  0
    4.5718    0.9440   -1.6584 C   0  0  0  0  0  0  0  0  0  0  0  0
    5.6849   -0.3867    0.0554 C   0  0  0  0  0  0  0  0  0  0  0  0
    4.4709   -1.2738    0.3881 C   0  0  0  0  0  0  0  0  0  0  0  0
    4.8917   -2.6261    0.9129 C   0  0  0  0  0  0  0  0  0  0  0  0
    5.6084   -2.7198    2.1087 C   0  0  0  0  0  0  0  0  0  0  0  0
    5.9938   -3.9625    2.6030 C   0  0  0  0  0  0  0  0  0  0  0  0
    5.6535   -5.1442    1.9347 C   0  0  0  0  0  0  0  0  0  0  0  0
    6.0013   -6.4055    2.4405 N   0  0  0  0  0  0  0  0  0  0  0  0
    6.1554   -6.7402    3.7868 C   0  0  0  0  0  0  0  0  0  0  0  0
    6.9453   -7.7744    4.0808 N   0  0  0  0  0  0  0  0  0  0  0  0
    7.0183   -8.1232    5.3850 C   0  0  0  0  0  0  0  0  0  0  0  0
    6.3493   -7.4758    6.4022 C   0  0  0  0  0  0  0  0  0  0  0  0
    6.4300   -8.1352    7.9890 Cl  0  0  0  0  0  0  0  0  0  0  0  0
    5.6010   -6.3745    6.0166 C   0  0  0  0  0  0  0  0  0  0  0  0
    4.8219   -5.5077    6.9143 C   0  0  0  0  0  0  0  0  0  0  0  0
    3.5095   -5.0776    6.5962 C   0  0  0  0  0  0  0  0  0  0  0  0
    2.7370   -4.3368    7.4900 C   0  0  0  0  0  0  0  0  0  0  0  0
    3.1955   -4.0710    8.7795 C   0  0  0  0  0  0  0  0  0  0  0  0
    4.5163   -4.4278    9.0633 C   0  0  0  0  0  0  0  0  0  0  0  0
    5.2364   -4.3252   10.2312 N   0  0  0  0  0  0  0  0  0  0  0  0
    6.5720   -4.4207    9.9516 C   0  0  0  0  0  0  0  0  0  0  0  0
    6.6828   -4.9081    8.6706 C   0  0  0  0  0  0  0  0  0  0  0  0
    5.3646   -5.0229    8.1265 C   0  0  0  0  0  0  0  0  0  0  0  0
    5.4858   -6.0353    4.7121 N   0  0  0  0  0  0  0  0  0  0  0  0
    4.9543   -5.0490    0.7282 C   0  0  0  0  0  0  0  0  0  0  0  0
    4.5667   -3.8021    0.2251 C   0  0  0  0  0  0  0  0  0  0  0  0
    6.3394    2.7694   -0.9098 H   0  0  0  0  0  0  0  0  0  0  0  0
    7.2232    1.2966   -1.3683 H   0  0  0  0  0  0  0  0  0  0  0  0
    7.1357    1.8135    0.3298 H   0  0  0  0  0  0  0  0  0  0  0  0
    4.3994    1.9614   -2.0269 H   0  0  0  0  0  0  0  0  0  0  0  0
    3.5779    0.5145   -1.4971 H   0  0  0  0  0  0  0  0  0  0  0  0
    5.0777    0.3737   -2.4455 H   0  0  0  0  0  0  0  0  0  0  0  0
    6.2876   -0.2769    0.9669 H   0  0  0  0  0  0  0  0  0  0  0  0
    6.3231   -0.8999   -0.6770 H   0  0  0  0  0  0  0  0  0  0  0  0
    3.8499   -1.4205   -0.5023 H   0  0  0  0  0  0  0  0  0  0  0  0
    3.8354   -0.7879    1.1392 H   0  0  0  0  0  0  0  0  0  0  0  0
    5.8667   -1.8294    2.6765 H   0  0  0  0  0  0  0  0  0  0  0  0
    6.5554   -3.9956    3.5330 H   0  0  0  0  0  0  0  0  0  0  0  0
    6.6603   -6.9265    1.8791 H   0  0  0  0  0  0  0  0  0  0  0  0
    7.6502   -8.9838    5.5877 H   0  0  0  0  0  0  0  0  0  0  0  0
    3.0919   -5.3122    5.6163 H   0  0  0  0  0  0  0  0  0  0  0  0
    1.7490   -3.9855    7.1905 H   0  0  0  0  0  0  0  0  0  0  0  0
    2.5770   -3.5519    9.5036 H   0  0  0  0  0  0  0  0  0  0  0  0
    4.8369   -4.1371   11.1403 H   0  0  0  0  0  0  0  0  0  0  0  0
    7.3184   -4.1705   10.6923 H   0  0  0  0  0  0  0  0  0  0  0  0
    7.6111   -5.1335    8.1624 H   0  0  0  0  0  0  0  0  0  0  0  0
    4.6627   -5.9509    0.1960 H   0  0  0  0  0  0  0  0  0  0  0  0
    3.9955   -3.7605   -0.6995 H   0  0  0  0  0  0  0  0  0  0  0  0
  1  2  1  0  0  0  0
  1 29  1  0  0  0  0
  1 30  1  0  0  0  0
  1 31  1  0  0  0  0
  2  3  1  0  0  0  0
  2  4  1  0  0  0  0
  3 32  1  0  0  0  0
  3 33  1  0  0  0  0
  3 34  1  0  0  0  0
  4  5  1  0  0  0  0
  4 35  1  0  0  0  0
  4 36  1  0  0  0  0
  5  6  1  0  0  0  0
  5 37  1  0  0  0  0
  5 38  1  0  0  0  0
  6  7  1  0  0  0  0
  6 28  2  0  0  0  0
  7  8  2  0  0  0  0
  7 39  1  0  0  0  0
  8  9  1  0  0  0  0
  8 40  1  0  0  0  0
  9 10  1  0  0  0  0
  9 27  2  0  0  0  0
 10 11  1  0  0  0  0
 10 41  1  0  0  0  0
 11 12  1  0  0  0  0
 11 26  2  0  0  0  0
 12 13  2  0  0  0  0
 13 14  1  0  0  0  0
 13 42  1  0  0  0  0
 14 15  1  0  0  0  0
 14 16  2  0  0  0  0
 16 17  1  0  0  0  0
 16 26  1  0  0  0  0
 17 18  1  0  0  0  0
 17 25  2  0  0  0  0
 18 19  2  0  0  0  0
 18 43  1  0  0  0  0
 19 20  1  0  0  0  0
 19 44  1  0  0  0  0
 20 21  2  0  0  0  0
 20 45  1  0  0  0  0
 21 22  1  0  0  0  0
 21 25  1  0  0  0  0
 22 23  1  0  0  0  0
 22 46  1  0  0  0  0
 23 24  2  0  0  0  0
 23 47  1  0  0  0  0
 24 25  1  0  0  0  0
 24 48  1  0  0  0  0
 27 28  1  0  0  0  0
 27 49  1  0  0  0  0
 28 50  1  0  0  0  0
M  END
$$$$
