CHEMBL3984035
 OpenBabel04072215373D

 67 71  0  0  0  0  0  0  0  0999 V2000
    1.9565    2.6019   -5.2180 C   0  0  0  0  0  0  0  0  0  0  0  0
    2.0086    2.7637   -3.8148 O   0  0  0  0  0  0  0  0  0  0  0  0
    3.0325    2.1982   -3.1074 C   0  0  0  0  0  0  0  0  0  0  0  0
    2.7648    2.2189   -1.7345 C   0  0  0  0  0  0  0  0  0  0  0  0
    3.6421    1.6436   -0.8348 C   0  0  0  0  0  0  0  0  0  0  0  0
    3.4580    1.5741    0.5190 O   0  0  0  0  0  0  0  0  0  0  0  0
    2.1104    1.6987    0.9659 C   0  0  0  0  0  0  0  0  0  0  0  0
    4.8356    1.1092   -1.3174 C   0  0  0  0  0  0  0  0  0  0  0  0
    5.1816    1.1135   -2.6939 C   0  0  0  0  0  0  0  0  0  0  0  0
    6.4310    0.5454   -3.0947 N   0  0  0  0  0  0  0  0  0  0  0  0
    6.6981   -0.7956   -2.4002 C   0  0  0  0  0  0  0  0  0  0  0  0
    7.8090   -0.6576   -1.4488 C   0  0  0  0  0  0  0  0  0  0  0  0
    8.7522   -0.1773   -0.6874 C   0  0  0  0  0  0  0  0  0  0  0  0
    9.8516    0.3827    0.2003 C   0  0  0  0  0  0  0  0  0  0  0  0
   10.9210   -0.5465    0.2830 O   0  0  0  0  0  0  0  0  0  0  0  0
    9.2759    0.6513    1.6021 C   0  0  0  0  0  0  0  0  0  0  0  0
    8.2125    1.7564    1.5709 C   0  0  0  0  0  0  0  0  0  0  0  0
    8.7159    2.9886    0.9611 N   0  0  0  0  0  0  0  0  0  0  0  0
    9.2109    2.7469   -0.3978 C   0  0  0  0  0  0  0  0  0  0  0  0
   10.3352    1.7052   -0.4072 C   0  0  0  0  0  0  0  0  0  0  0  0
    7.2483    0.7642   -4.2558 C   0  0  0  0  0  0  0  0  0  0  0  0
    7.4357   -0.3280   -5.0694 C   0  0  0  0  0  0  0  0  0  0  0  0
    8.6867   -0.5084   -5.5969 C   0  0  0  0  0  0  0  0  0  0  0  0
    9.6354    0.4757   -5.5848 C   0  0  0  0  0  0  0  0  0  0  0  0
   10.8261   -0.0694   -5.7917 N   0  0  0  0  0  0  0  0  0  0  0  0
   11.7981    0.7326   -6.2170 C   0  0  0  0  0  0  0  0  0  0  0  0
   11.5514    2.0123   -6.6470 C   0  0  0  0  0  0  0  0  0  0  0  0
   12.4200    2.2865   -7.8638 C   0  0  0  0  0  0  0  0  0  0  0  0
   12.9224    1.2007   -8.6833 C   0  0  0  0  0  0  0  0  0  0  0  0
   13.8603    1.5403   -9.5527 N   0  0  0  0  0  0  0  0  0  0  0  0
   13.9559    2.8624   -9.4016 N   0  0  0  0  0  0  0  0  0  0  0  0
   14.9008    3.5132  -10.2915 C   0  0  0  0  0  0  0  0  0  0  0  0
   13.1262    3.3626   -8.3923 C   0  0  0  0  0  0  0  0  0  0  0  0
   10.3891    2.6416   -6.1658 N   0  0  0  0  0  0  0  0  0  0  0  0
    9.3628    1.8319   -5.4379 C   0  0  0  0  0  0  0  0  0  0  0  0
    8.1222    1.9050   -4.5464 C   0  0  0  0  0  0  0  0  0  0  0  0
    4.2378    1.6532   -3.5915 C   0  0  0  0  0  0  0  0  0  0  0  0
    0.9437    2.8845   -5.5300 H   0  0  0  0  0  0  0  0  0  0  0  0
    2.1158    1.5644   -5.5228 H   0  0  0  0  0  0  0  0  0  0  0  0
    2.6581    3.2825   -5.7052 H   0  0  0  0  0  0  0  0  0  0  0  0
    1.8522    2.7036   -1.4033 H   0  0  0  0  0  0  0  0  0  0  0  0
    2.0999    1.5570    2.0506 H   0  0  0  0  0  0  0  0  0  0  0  0
    1.4800    0.9220    0.5186 H   0  0  0  0  0  0  0  0  0  0  0  0
    1.7075    2.6965    0.7648 H   0  0  0  0  0  0  0  0  0  0  0  0
    5.5114    0.6838   -0.5798 H   0  0  0  0  0  0  0  0  0  0  0  0
    6.9388   -1.6114   -3.0907 H   0  0  0  0  0  0  0  0  0  0  0  0
    5.8112   -1.1806   -1.8764 H   0  0  0  0  0  0  0  0  0  0  0  0
   10.5505   -1.3686    0.6462 H   0  0  0  0  0  0  0  0  0  0  0  0
   10.0850    0.9411    2.2816 H   0  0  0  0  0  0  0  0  0  0  0  0
    8.8416   -0.2636    2.0222 H   0  0  0  0  0  0  0  0  0  0  0  0
    7.8880    1.9762    2.5942 H   0  0  0  0  0  0  0  0  0  0  0  0
    7.3139    1.4206    1.0409 H   0  0  0  0  0  0  0  0  0  0  0  0
    9.4689    3.3687    1.5303 H   0  0  0  0  0  0  0  0  0  0  0  0
    9.5781    3.6902   -0.8160 H   0  0  0  0  0  0  0  0  0  0  0  0
    8.3794    2.4399   -1.0441 H   0  0  0  0  0  0  0  0  0  0  0  0
   11.1957    2.0823    0.1611 H   0  0  0  0  0  0  0  0  0  0  0  0
   10.6954    1.5529   -1.4321 H   0  0  0  0  0  0  0  0  0  0  0  0
    6.7513   -1.1706   -5.0893 H   0  0  0  0  0  0  0  0  0  0  0  0
    8.9544   -1.4826   -5.9788 H   0  0  0  0  0  0  0  0  0  0  0  0
   12.6949    0.1812   -6.4301 H   0  0  0  0  0  0  0  0  0  0  0  0
   12.6918    0.1420   -8.6224 H   0  0  0  0  0  0  0  0  0  0  0  0
   15.4528    2.7434  -10.8540 H   0  0  0  0  0  0  0  0  0  0  0  0
   15.6231    4.0943   -9.7184 H   0  0  0  0  0  0  0  0  0  0  0  0
   14.3471    4.1210  -11.0078 H   0  0  0  0  0  0  0  0  0  0  0  0
   13.1784    4.4159   -8.1451 H   0  0  0  0  0  0  0  0  0  0  0  0
    7.9088    2.8430   -4.0419 H   0  0  0  0  0  0  0  0  0  0  0  0
    4.4377    1.6203   -4.6566 H   0  0  0  0  0  0  0  0  0  0  0  0
  1  2  1  0  0  0  0
  1 38  1  0  0  0  0
  1 39  1  0  0  0  0
  1 40  1  0  0  0  0
  2  3  1  0  0  0  0
  3  4  1  0  0  0  0
  3 37  2  0  0  0  0
  4  5  2  0  0  0  0
  4 41  1  0  0  0  0
  5  6  1  0  0  0  0
  5  8  1  0  0  0  0
  6  7  1  0  0  0  0
  7 42  1  0  0  0  0
  7 43  1  0  0  0  0
  7 44  1  0  0  0  0
  8  9  2  0  0  0  0
  8 45  1  0  0  0  0
  9 10  1  0  0  0  0
  9 37  1  0  0  0  0
 10 11  1  0  0  0  0
 10 21  1  0  0  0  0
 11 12  1  0  0  0  0
 11 46  1  0  0  0  0
 11 47  1  0  0  0  0
 12 13  3  0  0  0  0
 13 14  1  0  0  0  0
 14 15  1  0  0  0  0
 14 16  1  0  0  0  0
 14 20  1  0  0  0  0
 15 48  1  0  0  0  0
 16 17  1  0  0  0  0
 16 49  1  0  0  0  0
 16 50  1  0  0  0  0
 17 18  1  0  0  0  0
 17 51  1  0  0  0  0
 17 52  1  0  0  0  0
 18 19  1  0  0  0  0
 18 53  1  0  0  0  0
 19 20  1  0  0  0  0
 19 54  1  0  0  0  0
 19 55  1  0  0  0  0
 20 56  1  0  0  0  0
 20 57  1  0  0  0  0
 21 22  1  0  0  0  0
 21 36  2  0  0  0  0
 22 23  2  0  0  0  0
 22 58  1  0  0  0  0
 23 24  1  0  0  0  0
 23 59  1  0  0  0  0
 24 25  1  0  0  0  0
 24 35  2  0  0  0  0
 25 26  2  0  0  0  0
 26 27  1  0  0  0  0
 26 60  1  0  0  0  0
 27 28  1  0  0  0  0
 27 34  2  0  0  0  0
 28 29  1  0  0  0  0
 28 33  2  0  0  0  0
 29 30  2  0  0  0  0
 29 61  1  0  0  0  0
 30 31  1  0  0  0  0
 31 32  1  0  0  0  0
 31 33  1  0  0  0  0
 32 62  1  0  0  0  0
 32 63  1  0  0  0  0
 32 64  1  0  0  0  0
 33 65  1  0  0  0  0
 34 35  1  0  0  0  0
 35 36  1  0  0  0  0
 36 66  1  0  0  0  0
 37 67  1  0  0  0  0
M  END
$$$$
