CHEMBL360032
 OpenBabel04072215363D

 47 50  0  0  0  0  0  0  0  0999 V2000
    0.7138    0.0773    1.7571 C   0  0  0  0  0  0  0  0  0  0  0  0
    2.1188    0.3044    1.6927 O   0  0  0  0  0  0  0  0  0  0  0  0
    2.8876   -0.3441    2.6234 C   0  0  0  0  0  0  0  0  0  0  0  0
    2.3989   -1.1688    3.6373 C   0  0  0  0  0  0  0  0  0  0  0  0
    3.2837   -1.7861    4.5173 C   0  0  0  0  0  0  0  0  0  0  0  0
    4.6581   -1.5997    4.3738 C   0  0  0  0  0  0  0  0  0  0  0  0
    5.1703   -0.8085    3.3401 C   0  0  0  0  0  0  0  0  0  0  0  0
    6.5638   -0.6627    3.1146 N   0  0  0  0  0  0  0  0  0  0  0  0
    7.5043   -1.6074    3.4935 C   0  0  0  0  0  0  0  0  0  0  0  0
    7.2363   -2.6990    3.9875 O   0  0  0  0  0  0  0  0  0  0  0  0
    8.8067   -1.1779    3.2601 N   0  0  0  0  0  0  0  0  0  0  0  0
    9.8861   -2.0464    3.5602 C   0  0  0  0  0  0  0  0  0  0  0  0
    9.8958   -3.3699    3.1105 C   0  0  0  0  0  0  0  0  0  0  0  0
   10.8895   -4.2639    3.5317 C   0  0  0  0  0  0  0  0  0  0  0  0
   11.8558   -3.8752    4.4675 C   0  0  0  0  0  0  0  0  0  0  0  0
   12.6846   -4.8528    5.2129 C   0  0  0  0  0  0  0  0  0  0  0  0
   14.0096   -4.5461    5.6099 C   0  0  0  0  0  0  0  0  0  0  0  0
   14.6672   -5.2421    6.6484 C   0  0  0  0  0  0  0  0  0  0  0  0
   13.9840   -6.2026    7.3812 C   0  0  0  0  0  0  0  0  0  0  0  0
   12.7049   -6.5132    6.9610 C   0  0  0  0  0  0  0  0  0  0  0  0
   12.1054   -5.9604    5.8257 C   0  0  0  0  0  0  0  0  0  0  0  0
   10.7772   -6.6138    5.6704 C   0  0  0  0  0  0  0  0  0  0  0  0
   10.4524   -6.9755    7.0276 N   0  0  0  0  0  0  0  0  0  0  0  0
   11.6106   -7.0556    7.7736 C   0  0  0  0  0  0  0  0  0  0  0  0
   11.6865   -7.3093    8.9712 O   0  0  0  0  0  0  0  0  0  0  0  0
   11.8700   -2.5163    4.8495 C   0  0  0  0  0  0  0  0  0  0  0  0
   10.9193   -1.5994    4.3756 C   0  0  0  0  0  0  0  0  0  0  0  0
    4.2719   -0.1499    2.4926 C   0  0  0  0  0  0  0  0  0  0  0  0
    0.2510    0.5786    0.9019 H   0  0  0  0  0  0  0  0  0  0  0  0
    0.2921    0.5117    2.6699 H   0  0  0  0  0  0  0  0  0  0  0  0
    0.4730   -0.9889    1.6806 H   0  0  0  0  0  0  0  0  0  0  0  0
    1.3391   -1.3569    3.7706 H   0  0  0  0  0  0  0  0  0  0  0  0
    2.9079   -2.4282    5.3098 H   0  0  0  0  0  0  0  0  0  0  0  0
    5.3128   -2.0926    5.0873 H   0  0  0  0  0  0  0  0  0  0  0  0
    6.8441   -0.0464    2.3640 H   0  0  0  0  0  0  0  0  0  0  0  0
    8.9487   -0.1975    3.4665 H   0  0  0  0  0  0  0  0  0  0  0  0
    9.0993   -3.7346    2.4652 H   0  0  0  0  0  0  0  0  0  0  0  0
   10.8343   -5.2913    3.1818 H   0  0  0  0  0  0  0  0  0  0  0  0
   14.5175   -3.6893    5.1715 H   0  0  0  0  0  0  0  0  0  0  0  0
   15.6630   -4.9356    6.9577 H   0  0  0  0  0  0  0  0  0  0  0  0
   14.3874   -6.6295    8.2942 H   0  0  0  0  0  0  0  0  0  0  0  0
   10.8992   -7.5608    5.1251 H   0  0  0  0  0  0  0  0  0  0  0  0
    9.9691   -6.0397    5.2228 H   0  0  0  0  0  0  0  0  0  0  0  0
    9.7186   -6.4431    7.4904 H   0  0  0  0  0  0  0  0  0  0  0  0
   12.5734   -2.1697    5.6055 H   0  0  0  0  0  0  0  0  0  0  0  0
   10.9387   -0.5818    4.7530 H   0  0  0  0  0  0  0  0  0  0  0  0
    4.6321    0.4876    1.6900 H   0  0  0  0  0  0  0  0  0  0  0  0
  1  2  1  0  0  0  0
  1 29  1  0  0  0  0
  1 30  1  0  0  0  0
  1 31  1  0  0  0  0
  2  3  1  0  0  0  0
  3  4  1  0  0  0  0
  3 28  2  0  0  0  0
  4  5  2  0  0  0  0
  4 32  1  0  0  0  0
  5  6  1  0  0  0  0
  5 33  1  0  0  0  0
  6  7  2  0  0  0  0
  6 34  1  0  0  0  0
  7  8  1  0  0  0  0
  7 28  1  0  0  0  0
  8  9  1  0  0  0  0
  8 35  1  0  0  0  0
  9 10  2  0  0  0  0
  9 11  1  0  0  0  0
 11 12  1  0  0  0  0
 11 36  1  0  0  0  0
 12 13  1  0  0  0  0
 12 27  2  0  0  0  0
 13 14  2  0  0  0  0
 13 37  1  0  0  0  0
 14 15  1  0  0  0  0
 14 38  1  0  0  0  0
 15 16  1  0  0  0  0
 15 26  2  0  0  0  0
 16 17  1  0  0  0  0
 16 21  2  0  0  0  0
 17 18  2  0  0  0  0
 17 39  1  0  0  0  0
 18 19  1  0  0  0  0
 18 40  1  0  0  0  0
 19 20  2  0  0  0  0
 19 41  1  0  0  0  0
 20 21  1  0  0  0  0
 20 24  1  0  0  0  0
 21 22  1  0  0  0  0
 22 23  1  0  0  0  0
 22 42  1  0  0  0  0
 22 43  1  0  0  0  0
 23 24  1  0  0  0  0
 23 44  1  0  0  0  0
 24 25  2  0  0  0  0
 26 27  1  0  0  0  0
 26 45  1  0  0  0  0
 27 46  1  0  0  0  0
 28 47  1  0  0  0  0
M  END
$$$$
