CHEMBL4788859
 OpenBabel04072215383D

 57 62  0  0  0  0  0  0  0  0999 V2000
    5.6944    0.0854   -3.1166 C   0  0  0  0  0  0  0  0  0  0  0  0
    4.8175    0.2038   -1.9068 C   0  0  0  0  0  0  0  0  0  0  0  0
    5.1348    1.0940   -0.8973 C   0  0  0  0  0  0  0  0  0  0  0  0
    4.1942    1.3262    0.1055 C   0  0  0  0  0  0  0  0  0  0  0  0
    4.3175    2.5478    0.9073 C   0  0  0  0  0  0  0  0  0  0  0  0
    4.2584    2.7626    2.2732 C   0  0  0  0  0  0  0  0  0  0  0  0
    3.8387    4.0380    2.5613 N   0  0  0  0  0  0  0  0  0  0  0  0
    3.6463    4.6063    1.3909 C   0  0  0  0  0  0  0  0  0  0  0  0
    2.9789    5.8006    1.0192 C   0  0  0  0  0  0  0  0  0  0  0  0
    2.9132    6.1742   -0.2818 C   0  0  0  0  0  0  0  0  0  0  0  0
    1.9690    7.2524   -0.5847 C   0  0  0  0  0  0  0  0  0  0  0  0
    2.3481    8.5790   -0.4854 C   0  0  0  0  0  0  0  0  0  0  0  0
    1.3826    9.5899   -0.5587 C   0  0  0  0  0  0  0  0  0  0  0  0
    0.0170    9.3095   -0.7388 C   0  0  0  0  0  0  0  0  0  0  0  0
   -0.9352   10.3074   -0.6958 N   0  0  0  0  0  0  0  0  0  0  0  0
   -0.6685   11.6748   -1.1650 C   0  0  0  0  0  0  0  0  0  0  0  0
   -1.1897   12.7053   -0.1385 C   0  0  0  0  0  0  0  0  0  0  0  0
   -2.6155   12.5231    0.2098 N   0  0  0  0  0  0  0  0  0  0  0  0
   -2.8088   11.1391    0.6946 C   0  0  0  0  0  0  0  0  0  0  0  0
   -2.3306   10.0532   -0.3031 C   0  0  0  0  0  0  0  0  0  0  0  0
   -0.3275    7.9592   -0.9045 C   0  0  0  0  0  0  0  0  0  0  0  0
    0.6307    6.9419   -0.8333 C   0  0  0  0  0  0  0  0  0  0  0  0
    3.6566    5.4344   -1.3005 C   0  0  0  0  0  0  0  0  0  0  0  0
    4.2029    4.2535   -0.9675 C   0  0  0  0  0  0  0  0  0  0  0  0
    4.1131    3.8057    0.3549 N   0  0  0  0  0  0  0  0  0  0  0  0
    3.0034    0.5466    0.1535 C   0  0  0  0  0  0  0  0  0  0  0  0
    2.0153    0.6281    1.1739 C   0  0  0  0  0  0  0  0  0  0  0  0
    0.8626   -0.1426    1.1160 C   0  0  0  0  0  0  0  0  0  0  0  0
   -0.0329   -0.0724    2.1092 F   0  0  0  0  0  0  0  0  0  0  0  0
    0.6324   -0.9763    0.0405 C   0  0  0  0  0  0  0  0  0  0  0  0
    1.5933   -1.0592   -0.9692 C   0  0  0  0  0  0  0  0  0  0  0  0
    2.7828   -0.3381   -0.9204 C   0  0  0  0  0  0  0  0  0  0  0  0
    3.6560   -0.4885   -1.9289 N   0  0  0  0  0  0  0  0  0  0  0  0
    6.6694    0.5565   -2.9562 H   0  0  0  0  0  0  0  0  0  0  0  0
    5.2107    0.5825   -3.9644 H   0  0  0  0  0  0  0  0  0  0  0  0
    5.8575   -0.9664   -3.3656 H   0  0  0  0  0  0  0  0  0  0  0  0
    6.0548    1.6695   -0.9391 H   0  0  0  0  0  0  0  0  0  0  0  0
    4.3451    2.0266    3.0629 H   0  0  0  0  0  0  0  0  0  0  0  0
    2.4168    6.3169    1.7895 H   0  0  0  0  0  0  0  0  0  0  0  0
    3.3864    8.8475   -0.2898 H   0  0  0  0  0  0  0  0  0  0  0  0
    1.7199   10.6076   -0.3883 H   0  0  0  0  0  0  0  0  0  0  0  0
   -1.1860   11.8169   -2.1219 H   0  0  0  0  0  0  0  0  0  0  0  0
    0.3888   11.8745   -1.3598 H   0  0  0  0  0  0  0  0  0  0  0  0
   -1.0605   13.7134   -0.5464 H   0  0  0  0  0  0  0  0  0  0  0  0
   -0.5872   12.6545    0.7773 H   0  0  0  0  0  0  0  0  0  0  0  0
   -3.1627   12.6331   -0.6436 H   0  0  0  0  0  0  0  0  0  0  0  0
   -3.8697   10.9878    0.9089 H   0  0  0  0  0  0  0  0  0  0  0  0
   -2.2730   11.0198    1.6458 H   0  0  0  0  0  0  0  0  0  0  0  0
   -2.9630   10.0655   -1.1994 H   0  0  0  0  0  0  0  0  0  0  0  0
   -2.4626    9.0823    0.1867 H   0  0  0  0  0  0  0  0  0  0  0  0
   -1.3595    7.6675   -1.0788 H   0  0  0  0  0  0  0  0  0  0  0  0
    0.3078    5.9050   -0.9205 H   0  0  0  0  0  0  0  0  0  0  0  0
    3.7128    5.8253   -2.3116 H   0  0  0  0  0  0  0  0  0  0  0  0
    4.7123    3.6309   -1.6896 H   0  0  0  0  0  0  0  0  0  0  0  0
    2.1294    1.2778    2.0351 H   0  0  0  0  0  0  0  0  0  0  0  0
   -0.2837   -1.5550   -0.0108 H   0  0  0  0  0  0  0  0  0  0  0  0
    1.4068   -1.7025   -1.8262 H   0  0  0  0  0  0  0  0  0  0  0  0
  1  2  1  0  0  0  0
  1 34  1  0  0  0  0
  1 35  1  0  0  0  0
  1 36  1  0  0  0  0
  2  3  1  0  0  0  0
  2 33  2  0  0  0  0
  3  4  2  0  0  0  0
  3 37  1  0  0  0  0
  4  5  1  0  0  0  0
  4 26  1  0  0  0  0
  5  6  2  0  0  0  0
  5 25  1  0  0  0  0
  6  7  1  0  0  0  0
  6 38  1  0  0  0  0
  7  8  2  0  0  0  0
  8  9  1  0  0  0  0
  8 25  1  0  0  0  0
  9 10  2  0  0  0  0
  9 39  1  0  0  0  0
 10 11  1  0  0  0  0
 10 23  1  0  0  0  0
 11 12  1  0  0  0  0
 11 22  2  0  0  0  0
 12 13  2  0  0  0  0
 12 40  1  0  0  0  0
 13 14  1  0  0  0  0
 13 41  1  0  0  0  0
 14 15  1  0  0  0  0
 14 21  2  0  0  0  0
 15 16  1  0  0  0  0
 15 20  1  0  0  0  0
 16 17  1  0  0  0  0
 16 42  1  0  0  0  0
 16 43  1  0  0  0  0
 17 18  1  0  0  0  0
 17 44  1  0  0  0  0
 17 45  1  0  0  0  0
 18 19  1  0  0  0  0
 18 46  1  0  0  0  0
 19 20  1  0  0  0  0
 19 47  1  0  0  0  0
 19 48  1  0  0  0  0
 20 49  1  0  0  0  0
 20 50  1  0  0  0  0
 21 22  1  0  0  0  0
 21 51  1  0  0  0  0
 22 52  1  0  0  0  0
 23 24  2  0  0  0  0
 23 53  1  0  0  0  0
 24 25  1  0  0  0  0
 24 54  1  0  0  0  0
 26 27  1  0  0  0  0
 26 32  2  0  0  0  0
 27 28  2  0  0  0  0
 27 55  1  0  0  0  0
 28 29  1  0  0  0  0
 28 30  1  0  0  0  0
 30 31  2  0  0  0  0
 30 56  1  0  0  0  0
 31 32  1  0  0  0  0
 31 57  1  0  0  0  0
 32 33  1  0  0  0  0
M  END
$$$$
