CHEMBL4534317
 OpenBabel04072215383D

 45 49  0  0  0  0  0  0  0  0999 V2000
    1.9152   -0.1523    1.0313 O   0  0  0  0  0  0  0  0  0  0  0  0
    2.0906    0.0473   -0.1604 C   0  0  0  0  0  0  0  0  0  0  0  0
    1.5569    1.0953   -0.8756 N   0  0  0  0  0  0  0  0  0  0  0  0
    0.7987    2.0975   -0.3284 C   0  0  0  0  0  0  0  0  0  0  0  0
    0.0002    2.8325   -1.0621 N   0  0  0  0  0  0  0  0  0  0  0  0
   -0.6709    3.7306   -0.2473 C   0  0  0  0  0  0  0  0  0  0  0  0
   -1.6855    4.6221   -0.6530 C   0  0  0  0  0  0  0  0  0  0  0  0
   -2.2631    5.4825    0.2864 C   0  0  0  0  0  0  0  0  0  0  0  0
   -1.8285    5.4679    1.6047 C   0  0  0  0  0  0  0  0  0  0  0  0
   -2.3840    6.3110    2.4848 F   0  0  0  0  0  0  0  0  0  0  0  0
   -0.8336    4.5995    2.0407 C   0  0  0  0  0  0  0  0  0  0  0  0
   -0.2797    3.7271    1.0947 C   0  0  0  0  0  0  0  0  0  0  0  0
    0.9163    2.5215    1.3168 S   0  0  0  0  0  0  0  0  0  0  0  0
    2.8803   -0.8850   -0.9521 C   0  0  0  0  0  0  0  0  0  0  0  0
    2.7746   -1.1231   -2.3062 C   0  0  0  0  0  0  0  0  0  0  0  0
    3.6072   -2.1731   -2.6040 N   0  0  0  0  0  0  0  0  0  0  0  0
    3.7722   -2.8071   -3.8626 C   0  0  0  0  0  0  0  0  0  0  0  0
    3.0773   -2.3491   -4.9902 C   0  0  0  0  0  0  0  0  0  0  0  0
    3.2639   -2.9684   -6.2241 C   0  0  0  0  0  0  0  0  0  0  0  0
    4.1287   -4.0559   -6.3369 C   0  0  0  0  0  0  0  0  0  0  0  0
    4.8113   -4.5255   -5.2145 C   0  0  0  0  0  0  0  0  0  0  0  0
    4.6406   -3.9020   -3.9785 C   0  0  0  0  0  0  0  0  0  0  0  0
    4.2975   -2.5808   -1.5186 N   0  0  0  0  0  0  0  0  0  0  0  0
    3.8826   -1.8014   -0.5087 C   0  0  0  0  0  0  0  0  0  0  0  0
    4.4658   -1.9606    0.8271 C   0  0  0  0  0  0  0  0  0  0  0  0
    4.6552   -0.8528    1.6693 C   0  0  0  0  0  0  0  0  0  0  0  0
    5.1901   -1.0111    2.9470 C   0  0  0  0  0  0  0  0  0  0  0  0
    5.5677   -2.2751    3.3737 C   0  0  0  0  0  0  0  0  0  0  0  0
    6.0941   -2.4247    4.5974 F   0  0  0  0  0  0  0  0  0  0  0  0
    5.4148   -3.3855    2.5529 C   0  0  0  0  0  0  0  0  0  0  0  0
    4.8633   -3.2290    1.2788 C   0  0  0  0  0  0  0  0  0  0  0  0
    1.5453    1.0748   -1.8814 H   0  0  0  0  0  0  0  0  0  0  0  0
   -2.0155    4.6266   -1.6867 H   0  0  0  0  0  0  0  0  0  0  0  0
   -3.0514    6.1684   -0.0086 H   0  0  0  0  0  0  0  0  0  0  0  0
   -0.5106    4.5970    3.0759 H   0  0  0  0  0  0  0  0  0  0  0  0
    2.1343   -0.6817   -3.0519 H   0  0  0  0  0  0  0  0  0  0  0  0
    2.3893   -1.5112   -4.9516 H   0  0  0  0  0  0  0  0  0  0  0  0
    2.7360   -2.5992   -7.1000 H   0  0  0  0  0  0  0  0  0  0  0  0
    4.2709   -4.5366   -7.2980 H   0  0  0  0  0  0  0  0  0  0  0  0
    5.4821   -5.3764   -5.3029 H   0  0  0  0  0  0  0  0  0  0  0  0
    5.1889   -4.2790   -3.1174 H   0  0  0  0  0  0  0  0  0  0  0  0
    4.3743    0.1480    1.3539 H   0  0  0  0  0  0  0  0  0  0  0  0
    5.3064   -0.1553    3.6027 H   0  0  0  0  0  0  0  0  0  0  0  0
    5.7208   -4.3643    2.9070 H   0  0  0  0  0  0  0  0  0  0  0  0
    4.7393   -4.1016    0.6400 H   0  0  0  0  0  0  0  0  0  0  0  0
  1  2  2  0  0  0  0
  2  3  1  0  0  0  0
  2 14  1  0  0  0  0
  3  4  1  0  0  0  0
  3 32  1  0  0  0  0
  4  5  2  0  0  0  0
  4 13  1  0  0  0  0
  5  6  1  0  0  0  0
  6  7  1  0  0  0  0
  6 12  2  0  0  0  0
  7  8  2  0  0  0  0
  7 33  1  0  0  0  0
  8  9  1  0  0  0  0
  8 34  1  0  0  0  0
  9 10  1  0  0  0  0
  9 11  2  0  0  0  0
 11 12  1  0  0  0  0
 11 35  1  0  0  0  0
 12 13  1  0  0  0  0
 14 15  2  0  0  0  0
 14 24  1  0  0  0  0
 15 16  1  0  0  0  0
 15 36  1  0  0  0  0
 16 17  1  0  0  0  0
 16 23  1  0  0  0  0
 17 18  1  0  0  0  0
 17 22  2  0  0  0  0
 18 19  2  0  0  0  0
 18 37  1  0  0  0  0
 19 20  1  0  0  0  0
 19 38  1  0  0  0  0
 20 21  2  0  0  0  0
 20 39  1  0  0  0  0
 21 22  1  0  0  0  0
 21 40  1  0  0  0  0
 22 41  1  0  0  0  0
 23 24  2  0  0  0  0
 24 25  1  0  0  0  0
 25 26  1  0  0  0  0
 25 31  2  0  0  0  0
 26 27  2  0  0  0  0
 26 42  1  0  0  0  0
 27 28  1  0  0  0  0
 27 43  1  0  0  0  0
 28 29  1  0  0  0  0
 28 30  2  0  0  0  0
 30 31  1  0  0  0  0
 30 44  1  0  0  0  0
 31 45  1  0  0  0  0
M  END
$$$$
