CHEMBL221875
 OpenBabel04072215363D

 44 47  0  0  0  0  0  0  0  0999 V2000
    1.3420    0.9968    0.5017 C   0  0  0  0  0  0  0  0  0  0  0  0
    0.6876   -0.2244    0.6293 C   0  0  0  0  0  0  0  0  0  0  0  0
   -0.6872   -0.3046    0.4018 C   0  0  0  0  0  0  0  0  0  0  0  0
   -1.4291    0.8317    0.0397 C   0  0  0  0  0  0  0  0  0  0  0  0
   -2.8771    0.7110   -0.1481 C   0  0  0  0  0  0  0  0  0  0  0  0
   -3.7823   -0.0298    0.5859 C   0  0  0  0  0  0  0  0  0  0  0  0
   -5.0985    0.0666    0.1998 N   0  0  0  0  0  0  0  0  0  0  0  0
   -5.2139    0.8301   -0.8671 C   0  0  0  0  0  0  0  0  0  0  0  0
   -6.3758    1.1284   -1.4874 N   0  0  0  0  0  0  0  0  0  0  0  0
   -7.6373    1.0454   -0.8853 C   0  0  0  0  0  0  0  0  0  0  0  0
   -7.8151    1.3593    0.4610 C   0  0  0  0  0  0  0  0  0  0  0  0
   -9.0935    1.4163    1.0229 C   0  0  0  0  0  0  0  0  0  0  0  0
   -9.2813    1.8821    2.4472 C   0  0  0  0  0  0  0  0  0  0  0  0
   -9.3828    3.3280    2.6699 N   0  0  0  0  0  0  0  0  0  0  0  0
  -10.4959    4.0006    2.0068 C   0  0  0  0  0  0  0  0  0  0  0  0
   -9.8844    4.7732    0.8548 C   0  0  0  0  0  0  0  0  0  0  0  0
   -8.5004    5.1388    1.3521 C   0  0  0  0  0  0  0  0  0  0  0  0
   -8.1666    4.1019    2.4176 C   0  0  0  0  0  0  0  0  0  0  0  0
  -10.1666    1.0561    0.2135 C   0  0  0  0  0  0  0  0  0  0  0  0
   -9.9131    0.7244   -1.1103 C   0  0  0  0  0  0  0  0  0  0  0  0
   -8.6856    0.7448   -1.6810 N   0  0  0  0  0  0  0  0  0  0  0  0
   -3.7147    1.4710   -1.4413 S   0  0  0  0  0  0  0  0  0  0  0  0
   -0.7568    2.0564   -0.0796 C   0  0  0  0  0  0  0  0  0  0  0  0
    0.6215    2.1368    0.1490 C   0  0  0  0  0  0  0  0  0  0  0  0
    2.4125    1.0602    0.6799 H   0  0  0  0  0  0  0  0  0  0  0  0
    1.2429   -1.1161    0.9068 H   0  0  0  0  0  0  0  0  0  0  0  0
   -1.1758   -1.2711    0.5063 H   0  0  0  0  0  0  0  0  0  0  0  0
   -3.5346   -0.6522    1.4371 H   0  0  0  0  0  0  0  0  0  0  0  0
   -6.4487    0.9561   -2.4806 H   0  0  0  0  0  0  0  0  0  0  0  0
   -6.9501    1.6034    1.0734 H   0  0  0  0  0  0  0  0  0  0  0  0
   -8.4657    1.4814    3.0609 H   0  0  0  0  0  0  0  0  0  0  0  0
  -10.1821    1.4015    2.8573 H   0  0  0  0  0  0  0  0  0  0  0  0
  -10.9389    4.7052    2.7205 H   0  0  0  0  0  0  0  0  0  0  0  0
  -11.3018    3.3345    1.6837 H   0  0  0  0  0  0  0  0  0  0  0  0
  -10.4707    5.6610    0.5967 H   0  0  0  0  0  0  0  0  0  0  0  0
   -9.8088    4.1481   -0.0413 H   0  0  0  0  0  0  0  0  0  0  0  0
   -8.5113    6.1421    1.7939 H   0  0  0  0  0  0  0  0  0  0  0  0
   -7.7728    5.1403    0.5336 H   0  0  0  0  0  0  0  0  0  0  0  0
   -7.8686    4.6117    3.3409 H   0  0  0  0  0  0  0  0  0  0  0  0
   -7.3036    3.5014    2.1182 H   0  0  0  0  0  0  0  0  0  0  0  0
  -11.1818    1.0438    0.5928 H   0  0  0  0  0  0  0  0  0  0  0  0
  -10.7233    0.4330   -1.7723 H   0  0  0  0  0  0  0  0  0  0  0  0
   -1.2962    2.9670   -0.3310 H   0  0  0  0  0  0  0  0  0  0  0  0
    1.1325    3.0921    0.0587 H   0  0  0  0  0  0  0  0  0  0  0  0
  1  2  1  0  0  0  0
  1 24  2  0  0  0  0
  1 25  1  0  0  0  0
  2  3  2  0  0  0  0
  2 26  1  0  0  0  0
  3  4  1  0  0  0  0
  3 27  1  0  0  0  0
  4  5  1  0  0  0  0
  4 23  2  0  0  0  0
  5  6  2  0  0  0  0
  5 22  1  0  0  0  0
  6  7  1  0  0  0  0
  6 28  1  0  0  0  0
  7  8  2  0  0  0  0
  8  9  1  0  0  0  0
  8 22  1  0  0  0  0
  9 10  1  0  0  0  0
  9 29  1  0  0  0  0
 10 11  1  0  0  0  0
 10 21  2  0  0  0  0
 11 12  2  0  0  0  0
 11 30  1  0  0  0  0
 12 13  1  0  0  0  0
 12 19  1  0  0  0  0
 13 14  1  0  0  0  0
 13 31  1  0  0  0  0
 13 32  1  0  0  0  0
 14 15  1  0  0  0  0
 14 18  1  0  0  0  0
 15 16  1  0  0  0  0
 15 33  1  0  0  0  0
 15 34  1  0  0  0  0
 16 17  1  0  0  0  0
 16 35  1  0  0  0  0
 16 36  1  0  0  0  0
 17 18  1  0  0  0  0
 17 37  1  0  0  0  0
 17 38  1  0  0  0  0
 18 39  1  0  0  0  0
 18 40  1  0  0  0  0
 19 20  2  0  0  0  0
 19 41  1  0  0  0  0
 20 21  1  0  0  0  0
 20 42  1  0  0  0  0
 23 24  1  0  0  0  0
 23 43  1  0  0  0  0
 24 44  1  0  0  0  0
M  END
$$$$
