CHEMBL1681933
 OpenBabel04072215363D

 45 46  0  0  0  0  0  0  0  0999 V2000
    4.5118    1.9174   -0.9635 C   0  0  0  0  0  0  0  0  0  0  0  0
    5.6964    1.9448   -0.0109 C   0  0  0  0  0  0  0  0  0  0  0  0
    6.7460    0.8863   -0.3238 C   0  0  0  0  0  0  0  0  0  0  0  0
    6.2376   -0.4684   -0.2627 N   0  0  0  0  0  0  0  0  0  0  0  0
    7.1236   -1.5048   -0.4543 C   0  0  0  0  0  0  0  0  0  0  0  0
    8.3278   -1.3316   -0.6194 O   0  0  0  0  0  0  0  0  0  0  0  0
    6.4781   -2.7198   -0.4967 N   0  0  0  0  0  0  0  0  0  0  0  0
    7.1974   -3.9212   -0.7110 C   0  0  0  0  0  0  0  0  0  0  0  0
    8.3359   -4.2173    0.0477 C   0  0  0  0  0  0  0  0  0  0  0  0
    9.0303   -5.4148   -0.1563 C   0  0  0  0  0  0  0  0  0  0  0  0
    8.5978   -6.3213   -1.1246 C   0  0  0  0  0  0  0  0  0  0  0  0
    9.3500   -7.4714   -1.2724 O   0  0  0  0  0  0  0  0  0  0  0  0
    8.6865   -8.6250   -1.6775 C   0  0  0  0  0  0  0  0  0  0  0  0
    7.4238   -8.8111   -1.2327 N   0  0  0  0  0  0  0  0  0  0  0  0
    6.7718   -9.8486   -1.7600 C   0  0  0  0  0  0  0  0  0  0  0  0
    7.2615  -10.7004   -2.6678 N   0  0  0  0  0  0  0  0  0  0  0  0
    8.5388  -10.5168   -3.0472 C   0  0  0  0  0  0  0  0  0  0  0  0
    9.0357  -11.4996   -3.8996 N   0  0  0  0  0  0  0  0  0  0  0  0
    9.3230   -9.4903   -2.5446 C   0  0  0  0  0  0  0  0  0  0  0  0
   10.7255   -9.2908   -2.9315 C   0  0  0  0  0  0  0  0  0  0  0  0
   11.1804   -9.6940   -4.0769 N   0  0  0  0  0  0  0  0  0  0  0  0
   12.5468   -9.3912   -4.1585 O   0  0  0  0  0  0  0  0  0  0  0  0
   13.0139   -9.7789   -5.4462 C   0  0  0  0  0  0  0  0  0  0  0  0
    7.4895   -6.0044   -1.9211 C   0  0  0  0  0  0  0  0  0  0  0  0
    6.7718   -4.8294   -1.6872 C   0  0  0  0  0  0  0  0  0  0  0  0
    5.3979   -4.4916   -2.6829 Cl  0  0  0  0  0  0  0  0  0  0  0  0
    3.8114    2.7205   -0.7125 H   0  0  0  0  0  0  0  0  0  0  0  0
    3.9698    0.9690   -0.8980 H   0  0  0  0  0  0  0  0  0  0  0  0
    4.8354    2.0604   -1.9993 H   0  0  0  0  0  0  0  0  0  0  0  0
    5.3364    1.8175    1.0159 H   0  0  0  0  0  0  0  0  0  0  0  0
    6.1706    2.9322   -0.0660 H   0  0  0  0  0  0  0  0  0  0  0  0
    7.5782    0.9728    0.3846 H   0  0  0  0  0  0  0  0  0  0  0  0
    7.1562    1.0387   -1.3300 H   0  0  0  0  0  0  0  0  0  0  0  0
    5.5218   -0.6711    0.4248 H   0  0  0  0  0  0  0  0  0  0  0  0
    5.5828   -2.6626   -0.9660 H   0  0  0  0  0  0  0  0  0  0  0  0
    8.6842   -3.5251    0.8112 H   0  0  0  0  0  0  0  0  0  0  0  0
    9.9079   -5.6339    0.4476 H   0  0  0  0  0  0  0  0  0  0  0  0
    5.7507  -10.0066   -1.4327 H   0  0  0  0  0  0  0  0  0  0  0  0
    8.2711  -12.0523   -4.2711 H   0  0  0  0  0  0  0  0  0  0  0  0
    9.6642  -11.1135   -4.6044 H   0  0  0  0  0  0  0  0  0  0  0  0
   11.3836   -8.7756   -2.2079 H   0  0  0  0  0  0  0  0  0  0  0  0
   14.0835   -9.5628   -5.5087 H   0  0  0  0  0  0  0  0  0  0  0  0
   12.4920   -9.2082   -6.2205 H   0  0  0  0  0  0  0  0  0  0  0  0
   12.8603  -10.8516   -5.6023 H   0  0  0  0  0  0  0  0  0  0  0  0
    7.1690   -6.6675   -2.7178 H   0  0  0  0  0  0  0  0  0  0  0  0
  1  2  1  0  0  0  0
  1 27  1  0  0  0  0
  1 28  1  0  0  0  0
  1 29  1  0  0  0  0
  2  3  1  0  0  0  0
  2 30  1  0  0  0  0
  2 31  1  0  0  0  0
  3  4  1  0  0  0  0
  3 32  1  0  0  0  0
  3 33  1  0  0  0  0
  4  5  1  0  0  0  0
  4 34  1  0  0  0  0
  5  6  2  0  0  0  0
  5  7  1  0  0  0  0
  7  8  1  0  0  0  0
  7 35  1  0  0  0  0
  8  9  1  0  0  0  0
  8 25  2  0  0  0  0
  9 10  2  0  0  0  0
  9 36  1  0  0  0  0
 10 11  1  0  0  0  0
 10 37  1  0  0  0  0
 11 12  1  0  0  0  0
 11 24  2  0  0  0  0
 12 13  1  0  0  0  0
 13 14  1  0  0  0  0
 13 19  2  0  0  0  0
 14 15  2  0  0  0  0
 15 16  1  0  0  0  0
 15 38  1  0  0  0  0
 16 17  2  0  0  0  0
 17 18  1  0  0  0  0
 17 19  1  0  0  0  0
 18 39  1  0  0  0  0
 18 40  1  0  0  0  0
 19 20  1  0  0  0  0
 20 21  2  0  0  0  0
 20 41  1  0  0  0  0
 21 22  1  0  0  0  0
 22 23  1  0  0  0  0
 23 42  1  0  0  0  0
 23 43  1  0  0  0  0
 23 44  1  0  0  0  0
 24 25  1  0  0  0  0
 24 45  1  0  0  0  0
 25 26  1  0  0  0  0
M  END
$$$$
