CHEMBL3671537
 OpenBabel04072215373D

 64 66  0  0  0  0  0  0  0  0999 V2000
    2.1590   -1.6133    1.1914 C   0  0  0  0  0  0  0  0  0  0  0  0
    2.8081   -0.7419    0.4076 C   0  0  0  0  0  0  0  0  0  0  0  0
    3.4847   -1.1890   -0.8406 C   0  0  0  0  0  0  0  0  0  0  0  0
    3.2155   -2.2522   -1.3776 O   0  0  0  0  0  0  0  0  0  0  0  0
    4.4386   -0.2779   -1.2700 N   0  0  0  0  0  0  0  0  0  0  0  0
    5.2084   -0.6013   -2.4028 C   0  0  0  0  0  0  0  0  0  0  0  0
    6.3242   -1.4240   -2.2331 C   0  0  0  0  0  0  0  0  0  0  0  0
    6.9809   -1.9771   -3.3568 C   0  0  0  0  0  0  0  0  0  0  0  0
    8.0336   -2.9013   -3.2857 C   0  0  0  0  0  0  0  0  0  0  0  0
    8.4249   -3.3953   -2.0204 N   0  0  0  0  0  0  0  0  0  0  0  0
    9.6980   -3.8311   -1.6080 C   0  0  0  0  0  0  0  0  0  0  0  0
   10.8675   -3.2981   -2.1610 C   0  0  0  0  0  0  0  0  0  0  0  0
   12.1070   -3.5234   -1.5591 C   0  0  0  0  0  0  0  0  0  0  0  0
   12.1875   -4.3152   -0.4158 C   0  0  0  0  0  0  0  0  0  0  0  0
   13.8349   -4.4675    0.4972 Br  0  0  0  0  0  0  0  0  0  0  0  0
   11.0547   -4.9441    0.0895 C   0  0  0  0  0  0  0  0  0  0  0  0
    9.8234   -4.6932   -0.5085 C   0  0  0  0  0  0  0  0  0  0  0  0
    8.7239   -5.2628    0.0111 F   0  0  0  0  0  0  0  0  0  0  0  0
    8.6748   -3.3485   -4.3795 N   0  0  0  0  0  0  0  0  0  0  0  0
    8.2184   -2.9134   -5.5577 C   0  0  0  0  0  0  0  0  0  0  0  0
    7.1975   -2.0711   -5.7464 N   0  0  0  0  0  0  0  0  0  0  0  0
    6.5897   -1.6143   -4.6503 C   0  0  0  0  0  0  0  0  0  0  0  0
    5.5229   -0.7335   -4.7919 C   0  0  0  0  0  0  0  0  0  0  0  0
    4.8314   -0.2141   -3.6936 C   0  0  0  0  0  0  0  0  0  0  0  0
    3.8361    0.6557   -4.0426 O   0  0  0  0  0  0  0  0  0  0  0  0
    3.5911    1.7552   -3.1790 C   0  0  0  0  0  0  0  0  0  0  0  0
    4.7686    2.6575   -2.8071 C   0  0  0  0  0  0  0  0  0  0  0  0
    5.0347    2.9369   -1.6390 O   0  0  0  0  0  0  0  0  0  0  0  0
    5.4508    3.1832   -3.8874 N   0  0  0  0  0  0  0  0  0  0  0  0
    6.5757    4.0781   -3.6865 C   0  0  0  0  0  0  0  0  0  0  0  0
    7.8199    3.3804   -3.1003 C   0  0  0  0  0  0  0  0  0  0  0  0
    8.3744    2.2728   -3.9140 N   0  0  0  0  0  0  0  0  0  0  0  0
    8.7588    2.6817   -5.2726 C   0  0  0  0  0  0  0  0  0  0  0  0
    9.9034    3.6854   -5.3846 C   0  0  0  0  0  0  0  0  0  0  0  0
    9.4515    1.6124   -3.1530 C   0  0  0  0  0  0  0  0  0  0  0  0
   10.0921    0.4225   -3.8570 C   0  0  0  0  0  0  0  0  0  0  0  0
    1.6207   -1.2772    2.0736 H   0  0  0  0  0  0  0  0  0  0  0  0
    2.1370   -2.6766    0.9686 H   0  0  0  0  0  0  0  0  0  0  0  0
    2.8045    0.3180    0.6294 H   0  0  0  0  0  0  0  0  0  0  0  0
    4.9272    0.1966   -0.5190 H   0  0  0  0  0  0  0  0  0  0  0  0
    6.6519   -1.6745   -1.2293 H   0  0  0  0  0  0  0  0  0  0  0  0
    7.6586   -3.8578   -1.5408 H   0  0  0  0  0  0  0  0  0  0  0  0
   10.8155   -2.6492   -3.0311 H   0  0  0  0  0  0  0  0  0  0  0  0
   12.9897   -3.0392   -1.9689 H   0  0  0  0  0  0  0  0  0  0  0  0
   11.1028   -5.5858    0.9628 H   0  0  0  0  0  0  0  0  0  0  0  0
    8.7199   -3.2847   -6.4447 H   0  0  0  0  0  0  0  0  0  0  0  0
    5.2216   -0.4455   -5.7966 H   0  0  0  0  0  0  0  0  0  0  0  0
    3.0661    1.4379   -2.2700 H   0  0  0  0  0  0  0  0  0  0  0  0
    2.8717    2.4032   -3.6996 H   0  0  0  0  0  0  0  0  0  0  0  0
    5.4040    2.6722   -4.7628 H   0  0  0  0  0  0  0  0  0  0  0  0
    6.2554    4.8677   -2.9970 H   0  0  0  0  0  0  0  0  0  0  0  0
    6.7951    4.5640   -4.6428 H   0  0  0  0  0  0  0  0  0  0  0  0
    7.5417    2.9764   -2.1192 H   0  0  0  0  0  0  0  0  0  0  0  0
    8.5852    4.1406   -2.9024 H   0  0  0  0  0  0  0  0  0  0  0  0
    7.8826    3.0888   -5.7887 H   0  0  0  0  0  0  0  0  0  0  0  0
    9.0083    1.7942   -5.8668 H   0  0  0  0  0  0  0  0  0  0  0  0
    9.8189    4.5055   -4.6668 H   0  0  0  0  0  0  0  0  0  0  0  0
    9.9030    4.1335   -6.3839 H   0  0  0  0  0  0  0  0  0  0  0  0
   10.8723    3.1990   -5.2365 H   0  0  0  0  0  0  0  0  0  0  0  0
    9.0264    1.2333   -2.2143 H   0  0  0  0  0  0  0  0  0  0  0  0
   10.2348    2.3283   -2.8790 H   0  0  0  0  0  0  0  0  0  0  0  0
    9.3400   -0.3034   -4.1649 H   0  0  0  0  0  0  0  0  0  0  0  0
   10.7881   -0.0815   -3.1746 H   0  0  0  0  0  0  0  0  0  0  0  0
   10.6620    0.7261   -4.7414 H   0  0  0  0  0  0  0  0  0  0  0  0
  1  2  2  0  0  0  0
  1 37  1  0  0  0  0
  1 38  1  0  0  0  0
  2  3  1  0  0  0  0
  2 39  1  0  0  0  0
  3  4  2  0  0  0  0
  3  5  1  0  0  0  0
  5  6  1  0  0  0  0
  5 40  1  0  0  0  0
  6  7  1  0  0  0  0
  6 24  2  0  0  0  0
  7  8  2  0  0  0  0
  7 41  1  0  0  0  0
  8  9  1  0  0  0  0
  8 22  1  0  0  0  0
  9 10  1  0  0  0  0
  9 19  2  0  0  0  0
 10 11  1  0  0  0  0
 10 42  1  0  0  0  0
 11 12  1  0  0  0  0
 11 17  2  0  0  0  0
 12 13  2  0  0  0  0
 12 43  1  0  0  0  0
 13 14  1  0  0  0  0
 13 44  1  0  0  0  0
 14 15  1  0  0  0  0
 14 16  2  0  0  0  0
 16 17  1  0  0  0  0
 16 45  1  0  0  0  0
 17 18  1  0  0  0  0
 19 20  1  0  0  0  0
 20 21  2  0  0  0  0
 20 46  1  0  0  0  0
 21 22  1  0  0  0  0
 22 23  2  0  0  0  0
 23 24  1  0  0  0  0
 23 47  1  0  0  0  0
 24 25  1  0  0  0  0
 25 26  1  0  0  0  0
 26 27  1  0  0  0  0
 26 48  1  0  0  0  0
 26 49  1  0  0  0  0
 27 28  2  0  0  0  0
 27 29  1  0  0  0  0
 29 30  1  0  0  0  0
 29 50  1  0  0  0  0
 30 31  1  0  0  0  0
 30 51  1  0  0  0  0
 30 52  1  0  0  0  0
 31 32  1  0  0  0  0
 31 53  1  0  0  0  0
 31 54  1  0  0  0  0
 32 33  1  0  0  0  0
 32 35  1  0  0  0  0
 33 34  1  0  0  0  0
 33 55  1  0  0  0  0
 33 56  1  0  0  0  0
 34 57  1  0  0  0  0
 34 58  1  0  0  0  0
 34 59  1  0  0  0  0
 35 36  1  0  0  0  0
 35 60  1  0  0  0  0
 35 61  1  0  0  0  0
 36 62  1  0  0  0  0
 36 63  1  0  0  0  0
 36 64  1  0  0  0  0
M  END
$$$$
