CHEMBL2063325
 OpenBabel04072215363D

 74 78  0  0  0  0  0  0  0  0999 V2000
   -3.8091    4.0933    1.9432 C   0  0  0  0  0  0  0  0  0  0  0  0
   -2.9968    3.1122    2.6567 N   0  0  0  0  0  0  0  0  0  0  0  0
   -3.7299    1.8517    2.8429 C   0  0  0  0  0  0  0  0  0  0  0  0
   -2.8568    0.8153    3.5848 C   0  0  0  0  0  0  0  0  0  0  0  0
   -1.6060    0.4584    2.8769 N   0  0  0  0  0  0  0  0  0  0  0  0
   -1.8066   -0.2527    1.5991 C   0  0  0  0  0  0  0  0  0  0  0  0
   -2.5446   -1.5768    1.7059 C   0  0  0  0  0  0  0  0  0  0  0  0
   -3.9442   -1.6206    1.6006 C   0  0  0  0  0  0  0  0  0  0  0  0
   -4.6401   -2.8172    1.7684 C   0  0  0  0  0  0  0  0  0  0  0  0
   -3.9344   -3.9992    2.0047 C   0  0  0  0  0  0  0  0  0  0  0  0
   -4.6996   -5.2467    2.2276 C   0  0  0  0  0  0  0  0  0  0  0  0
   -5.8012   -5.4218    1.7410 O   0  0  0  0  0  0  0  0  0  0  0  0
   -4.0672   -6.2323    3.0690 N   0  0  0  0  0  0  0  0  0  0  0  0
   -4.6596   -7.4491    3.3726 C   0  0  0  0  0  0  0  0  0  0  0  0
   -5.9793   -7.7963    3.2572 C   0  0  0  0  0  0  0  0  0  0  0  0
   -6.0778   -9.1408    3.7029 C   0  0  0  0  0  0  0  0  0  0  0  0
   -7.2916   -9.9583    3.7633 C   0  0  0  0  0  0  0  0  0  0  0  0
   -8.5190   -9.4440    3.3204 C   0  0  0  0  0  0  0  0  0  0  0  0
   -9.6811  -10.2157    3.3695 C   0  0  0  0  0  0  0  0  0  0  0  0
   -9.6421  -11.5218    3.8795 C   0  0  0  0  0  0  0  0  0  0  0  0
  -10.8930  -12.3478    3.9505 C   0  0  0  0  0  0  0  0  0  0  0  0
  -11.0884  -13.1296    2.7584 N   0  0  0  0  0  0  0  0  0  0  0  0
  -11.9120  -12.7278    1.7542 C   0  0  0  0  0  0  0  0  0  0  0  0
  -12.4947  -11.6533    1.7149 O   0  0  0  0  0  0  0  0  0  0  0  0
  -12.0535  -13.7351    0.8614 O   0  0  0  0  0  0  0  0  0  0  0  0
  -13.2414  -13.6658    0.0645 C   0  0  0  0  0  0  0  0  0  0  0  0
  -12.9601  -13.4798   -1.4046 C   0  0  0  0  0  0  0  0  0  0  0  0
  -13.3718  -14.4467   -2.3346 C   0  0  0  0  0  0  0  0  0  0  0  0
  -13.2212  -14.2248   -3.7048 C   0  0  0  0  0  0  0  0  0  0  0  0
  -12.6569  -13.0353   -4.1599 C   0  0  0  0  0  0  0  0  0  0  0  0
  -12.2323  -12.0726   -3.2456 C   0  0  0  0  0  0  0  0  0  0  0  0
  -12.3811  -12.2946   -1.8748 C   0  0  0  0  0  0  0  0  0  0  0  0
   -8.4151  -12.0424    4.3055 C   0  0  0  0  0  0  0  0  0  0  0  0
   -7.2527  -11.2684    4.2540 C   0  0  0  0  0  0  0  0  0  0  0  0
   -4.8702   -9.5927    4.0869 N   0  0  0  0  0  0  0  0  0  0  0  0
   -4.0412   -8.5570    3.8776 N   0  0  0  0  0  0  0  0  0  0  0  0
   -2.5353   -3.9886    2.0214 C   0  0  0  0  0  0  0  0  0  0  0  0
   -1.8469   -2.7790    1.8943 C   0  0  0  0  0  0  0  0  0  0  0  0
   -0.8772    1.7360    2.6416 C   0  0  0  0  0  0  0  0  0  0  0  0
   -1.7151    2.8632    1.9701 C   0  0  0  0  0  0  0  0  0  0  0  0
   -4.7506    4.2724    2.4753 H   0  0  0  0  0  0  0  0  0  0  0  0
   -4.0495    3.7725    0.9232 H   0  0  0  0  0  0  0  0  0  0  0  0
   -3.2898    5.0561    1.8916 H   0  0  0  0  0  0  0  0  0  0  0  0
   -4.0560    1.4546    1.8748 H   0  0  0  0  0  0  0  0  0  0  0  0
   -4.6350    2.0298    3.4352 H   0  0  0  0  0  0  0  0  0  0  0  0
   -3.4420   -0.0761    3.8314 H   0  0  0  0  0  0  0  0  0  0  0  0
   -2.5829    1.2378    4.5633 H   0  0  0  0  0  0  0  0  0  0  0  0
   -0.8164   -0.4722    1.1758 H   0  0  0  0  0  0  0  0  0  0  0  0
   -2.3111    0.3646    0.8475 H   0  0  0  0  0  0  0  0  0  0  0  0
   -4.5077   -0.7123    1.4005 H   0  0  0  0  0  0  0  0  0  0  0  0
   -5.7281   -2.8122    1.7239 H   0  0  0  0  0  0  0  0  0  0  0  0
   -3.1618   -6.0379    3.4746 H   0  0  0  0  0  0  0  0  0  0  0  0
   -6.7889   -7.1696    2.9143 H   0  0  0  0  0  0  0  0  0  0  0  0
   -8.6040   -8.4361    2.9242 H   0  0  0  0  0  0  0  0  0  0  0  0
  -10.6164   -9.7926    3.0057 H   0  0  0  0  0  0  0  0  0  0  0  0
  -11.7632  -11.7056    4.1322 H   0  0  0  0  0  0  0  0  0  0  0  0
  -10.8317  -13.0408    4.7972 H   0  0  0  0  0  0  0  0  0  0  0  0
  -10.7210  -14.0673    2.6953 H   0  0  0  0  0  0  0  0  0  0  0  0
  -13.9412  -12.8902    0.3983 H   0  0  0  0  0  0  0  0  0  0  0  0
  -13.7579  -14.6193    0.2232 H   0  0  0  0  0  0  0  0  0  0  0  0
  -13.8353  -15.3725   -2.0003 H   0  0  0  0  0  0  0  0  0  0  0  0
  -13.5581  -14.9739   -4.4169 H   0  0  0  0  0  0  0  0  0  0  0  0
  -12.5547  -12.8558   -5.2270 H   0  0  0  0  0  0  0  0  0  0  0  0
  -11.7996  -11.1410   -3.6008 H   0  0  0  0  0  0  0  0  0  0  0  0
  -12.0671  -11.5228   -1.1728 H   0  0  0  0  0  0  0  0  0  0  0  0
   -8.3573  -13.0582    4.6895 H   0  0  0  0  0  0  0  0  0  0  0  0
   -6.3163  -11.6993    4.6024 H   0  0  0  0  0  0  0  0  0  0  0  0
   -3.0551   -8.7059    4.0567 H   0  0  0  0  0  0  0  0  0  0  0  0
   -1.9586   -4.9046    2.1081 H   0  0  0  0  0  0  0  0  0  0  0  0
   -0.7584   -2.7778    1.9282 H   0  0  0  0  0  0  0  0  0  0  0  0
    0.0297    1.5510    2.0531 H   0  0  0  0  0  0  0  0  0  0  0  0
   -0.5237    2.1046    3.6146 H   0  0  0  0  0  0  0  0  0  0  0  0
   -1.8899    2.6020    0.9186 H   0  0  0  0  0  0  0  0  0  0  0  0
   -1.1188    3.7835    1.9771 H   0  0  0  0  0  0  0  0  0  0  0  0
  1  2  1  0  0  0  0
  1 41  1  0  0  0  0
  1 42  1  0  0  0  0
  1 43  1  0  0  0  0
  2  3  1  0  0  0  0
  2 40  1  0  0  0  0
  3  4  1  0  0  0  0
  3 44  1  0  0  0  0
  3 45  1  0  0  0  0
  4  5  1  0  0  0  0
  4 46  1  0  0  0  0
  4 47  1  0  0  0  0
  5  6  1  0  0  0  0
  5 39  1  0  0  0  0
  6  7  1  0  0  0  0
  6 48  1  0  0  0  0
  6 49  1  0  0  0  0
  7  8  1  0  0  0  0
  7 38  2  0  0  0  0
  8  9  2  0  0  0  0
  8 50  1  0  0  0  0
  9 10  1  0  0  0  0
  9 51  1  0  0  0  0
 10 11  1  0  0  0  0
 10 37  2  0  0  0  0
 11 12  2  0  0  0  0
 11 13  1  0  0  0  0
 13 14  1  0  0  0  0
 13 52  1  0  0  0  0
 14 15  2  0  0  0  0
 14 36  1  0  0  0  0
 15 16  1  0  0  0  0
 15 53  1  0  0  0  0
 16 17  1  0  0  0  0
 16 35  2  0  0  0  0
 17 18  1  0  0  0  0
 17 34  2  0  0  0  0
 18 19  2  0  0  0  0
 18 54  1  0  0  0  0
 19 20  1  0  0  0  0
 19 55  1  0  0  0  0
 20 21  1  0  0  0  0
 20 33  2  0  0  0  0
 21 22  1  0  0  0  0
 21 56  1  0  0  0  0
 21 57  1  0  0  0  0
 22 23  1  0  0  0  0
 22 58  1  0  0  0  0
 23 24  2  0  0  0  0
 23 25  1  0  0  0  0
 25 26  1  0  0  0  0
 26 27  1  0  0  0  0
 26 59  1  0  0  0  0
 26 60  1  0  0  0  0
 27 28  1  0  0  0  0
 27 32  2  0  0  0  0
 28 29  2  0  0  0  0
 28 61  1  0  0  0  0
 29 30  1  0  0  0  0
 29 62  1  0  0  0  0
 30 31  2  0  0  0  0
 30 63  1  0  0  0  0
 31 32  1  0  0  0  0
 31 64  1  0  0  0  0
 32 65  1  0  0  0  0
 33 34  1  0  0  0  0
 33 66  1  0  0  0  0
 34 67  1  0  0  0  0
 35 36  1  0  0  0  0
 36 68  1  0  0  0  0
 37 38  1  0  0  0  0
 37 69  1  0  0  0  0
 38 70  1  0  0  0  0
 39 40  1  0  0  0  0
 39 71  1  0  0  0  0
 39 72  1  0  0  0  0
 40 73  1  0  0  0  0
 40 74  1  0  0  0  0
M  END
$$$$
