CHEMBL1271533
 OpenBabel04072215363D

 55 59  0  0  0  0  0  0  0  0999 V2000
   -1.4173    0.9918   -3.3122 N   0  0  0  0  0  0  0  0  0  0  0  0
   -2.1379    0.2340   -2.3938 C   0  0  0  0  0  0  0  0  0  0  0  0
   -1.4824   -0.6296   -1.5290 C   0  0  0  0  0  0  0  0  0  0  0  0
   -2.2266   -1.3498   -0.5928 C   0  0  0  0  0  0  0  0  0  0  0  0
   -1.5729   -2.3015    0.2898 C   0  0  0  0  0  0  0  0  0  0  0  0
   -0.2504   -2.3207    0.7797 C   0  0  0  0  0  0  0  0  0  0  0  0
    0.0091   -3.3708    1.5563 N   0  0  0  0  0  0  0  0  0  0  0  0
   -1.1535   -4.0594    1.5841 N   0  0  0  0  0  0  0  0  0  0  0  0
   -1.4135   -5.2377    2.2749 C   0  0  0  0  0  0  0  0  0  0  0  0
   -2.6199   -5.8158    2.1979 C   0  0  0  0  0  0  0  0  0  0  0  0
   -2.9449   -7.0494    2.8996 C   0  0  0  0  0  0  0  0  0  0  0  0
   -3.4152   -7.0119    4.2138 C   0  0  0  0  0  0  0  0  0  0  0  0
   -3.7234   -8.1992    4.8850 C   0  0  0  0  0  0  0  0  0  0  0  0
   -3.5738   -9.4299    4.2386 C   0  0  0  0  0  0  0  0  0  0  0  0
   -3.8676  -10.6490    4.7899 O   0  0  0  0  0  0  0  0  0  0  0  0
   -4.8975  -10.6202    5.7858 C   0  0  0  0  0  0  0  0  0  0  0  0
   -5.6179  -11.9786    5.8112 C   0  0  0  0  0  0  0  0  0  0  0  0
   -6.7141  -12.0657    6.8005 N   0  0  0  0  0  0  0  0  0  0  0  0
   -7.3683  -13.3967    6.7472 C   0  0  0  0  0  0  0  0  0  0  0  0
   -8.2541  -13.6093    5.5023 C   0  0  0  0  0  0  0  0  0  0  0  0
   -9.2257  -12.5652    5.3485 O   0  0  0  0  0  0  0  0  0  0  0  0
   -8.5980  -11.2777    5.3258 C   0  0  0  0  0  0  0  0  0  0  0  0
   -7.7799  -11.0550    6.6065 C   0  0  0  0  0  0  0  0  0  0  0  0
   -3.0790   -9.4657    2.9342 C   0  0  0  0  0  0  0  0  0  0  0  0
   -2.7667   -8.2825    2.2642 C   0  0  0  0  0  0  0  0  0  0  0  0
   -3.6059   -5.1082    1.3253 C   0  0  0  0  0  0  0  0  0  0  0  0
   -3.3984   -4.0033    0.6724 N   0  0  0  0  0  0  0  0  0  0  0  0
   -2.1499   -3.4476    0.8123 C   0  0  0  0  0  0  0  0  0  0  0  0
   -3.6021   -1.1302   -0.5285 C   0  0  0  0  0  0  0  0  0  0  0  0
   -4.1665   -0.2415   -1.4246 C   0  0  0  0  0  0  0  0  0  0  0  0
   -3.4642    0.4368   -2.3561 N   0  0  0  0  0  0  0  0  0  0  0  0
   -0.7615    0.4365   -3.8470 H   0  0  0  0  0  0  0  0  0  0  0  0
   -2.0971    1.4673   -3.9005 H   0  0  0  0  0  0  0  0  0  0  0  0
   -0.4063   -0.7403   -1.6035 H   0  0  0  0  0  0  0  0  0  0  0  0
    0.5436   -1.6038    0.6009 H   0  0  0  0  0  0  0  0  0  0  0  0
   -0.5893   -5.6300    2.8540 H   0  0  0  0  0  0  0  0  0  0  0  0
   -3.5465   -6.0618    4.7303 H   0  0  0  0  0  0  0  0  0  0  0  0
   -4.0760   -8.1366    5.9104 H   0  0  0  0  0  0  0  0  0  0  0  0
   -5.6265   -9.8450    5.5325 H   0  0  0  0  0  0  0  0  0  0  0  0
   -4.4480  -10.4093    6.7624 H   0  0  0  0  0  0  0  0  0  0  0  0
   -4.8708  -12.7503    6.0402 H   0  0  0  0  0  0  0  0  0  0  0  0
   -5.9593  -12.2037    4.7941 H   0  0  0  0  0  0  0  0  0  0  0  0
   -8.0033  -13.4822    7.6395 H   0  0  0  0  0  0  0  0  0  0  0  0
   -6.6237  -14.1967    6.8273 H   0  0  0  0  0  0  0  0  0  0  0  0
   -8.8018  -14.5520    5.5994 H   0  0  0  0  0  0  0  0  0  0  0  0
   -7.6553  -13.6738    4.5873 H   0  0  0  0  0  0  0  0  0  0  0  0
   -9.3874  -10.5231    5.2545 H   0  0  0  0  0  0  0  0  0  0  0  0
   -7.9809  -11.1885    4.4242 H   0  0  0  0  0  0  0  0  0  0  0  0
   -8.4591  -11.1266    7.4670 H   0  0  0  0  0  0  0  0  0  0  0  0
   -7.3815  -10.0370    6.6438 H   0  0  0  0  0  0  0  0  0  0  0  0
   -2.9521  -10.4223    2.4317 H   0  0  0  0  0  0  0  0  0  0  0  0
   -2.3857   -8.3337    1.2458 H   0  0  0  0  0  0  0  0  0  0  0  0
   -4.5973   -5.5884    1.2431 H   0  0  0  0  0  0  0  0  0  0  0  0
   -4.2297   -1.6315    0.1984 H   0  0  0  0  0  0  0  0  0  0  0  0
   -5.2346   -0.0463   -1.4093 H   0  0  0  0  0  0  0  0  0  0  0  0
  1  2  1  0  0  0  0
  1 32  1  0  0  0  0
  1 33  1  0  0  0  0
  2  3  1  0  0  0  0
  2 31  2  0  0  0  0
  3  4  2  0  0  0  0
  3 34  1  0  0  0  0
  4  5  1  0  0  0  0
  4 29  1  0  0  0  0
  5  6  1  0  0  0  0
  5 28  2  0  0  0  0
  6  7  2  0  0  0  0
  6 35  1  0  0  0  0
  7  8  1  0  0  0  0
  8  9  1  0  0  0  0
  8 28  1  0  0  0  0
  9 10  2  0  0  0  0
  9 36  1  0  0  0  0
 10 11  1  0  0  0  0
 10 26  1  0  0  0  0
 11 12  1  0  0  0  0
 11 25  2  0  0  0  0
 12 13  2  0  0  0  0
 12 37  1  0  0  0  0
 13 14  1  0  0  0  0
 13 38  1  0  0  0  0
 14 15  1  0  0  0  0
 14 24  2  0  0  0  0
 15 16  1  0  0  0  0
 16 17  1  0  0  0  0
 16 39  1  0  0  0  0
 16 40  1  0  0  0  0
 17 18  1  0  0  0  0
 17 41  1  0  0  0  0
 17 42  1  0  0  0  0
 18 19  1  0  0  0  0
 18 23  1  0  0  0  0
 19 20  1  0  0  0  0
 19 43  1  0  0  0  0
 19 44  1  0  0  0  0
 20 21  1  0  0  0  0
 20 45  1  0  0  0  0
 20 46  1  0  0  0  0
 21 22  1  0  0  0  0
 22 23  1  0  0  0  0
 22 47  1  0  0  0  0
 22 48  1  0  0  0  0
 23 49  1  0  0  0  0
 23 50  1  0  0  0  0
 24 25  1  0  0  0  0
 24 51  1  0  0  0  0
 25 52  1  0  0  0  0
 26 27  2  0  0  0  0
 26 53  1  0  0  0  0
 27 28  1  0  0  0  0
 29 30  2  0  0  0  0
 29 54  1  0  0  0  0
 30 31  1  0  0  0  0
 30 55  1  0  0  0  0
M  END
$$$$
