CHEMBL2385591
 OpenBabel04072215363D

 53 58  0  0  0  0  0  0  0  0999 V2000
    2.2747    0.6347    0.6613 C   0  0  0  0  0  0  0  0  0  0  0  0
    2.2884   -0.7574    0.6421 C   0  0  0  0  0  0  0  0  0  0  0  0
    1.2540   -1.4814    0.0297 C   0  0  0  0  0  0  0  0  0  0  0  0
    1.3502   -2.9489   -0.0153 C   0  0  0  0  0  0  0  0  0  0  0  0
    0.9911   -3.8528   -1.0421 C   0  0  0  0  0  0  0  0  0  0  0  0
    1.2055   -5.1296   -0.7342 N   0  0  0  0  0  0  0  0  0  0  0  0
    1.8045   -5.0798    0.4759 N   0  0  0  0  0  0  0  0  0  0  0  0
    2.2982   -6.1559    1.2023 C   0  0  0  0  0  0  0  0  0  0  0  0
    2.9222   -5.9550    2.3716 C   0  0  0  0  0  0  0  0  0  0  0  0
    3.4711   -7.0393    3.1755 C   0  0  0  0  0  0  0  0  0  0  0  0
    4.7553   -7.5281    2.9377 C   0  0  0  0  0  0  0  0  0  0  0  0
    5.2772   -8.5547    3.7365 C   0  0  0  0  0  0  0  0  0  0  0  0
    4.5399   -9.1290    4.7824 C   0  0  0  0  0  0  0  0  0  0  0  0
    5.0496  -10.1401    5.5690 N   0  0  0  0  0  0  0  0  0  0  0  0
    6.4778  -10.2664    5.8927 C   0  0  0  0  0  0  0  0  0  0  0  0
    6.9935  -11.6757    5.5257 C   0  0  0  0  0  0  0  0  0  0  0  0
    6.1955  -12.7706    6.1212 N   0  0  0  0  0  0  0  0  0  0  0  0
    4.7822  -12.5928    5.7231 C   0  0  0  0  0  0  0  0  0  0  0  0
    4.1944  -11.2118    6.1002 C   0  0  0  0  0  0  0  0  0  0  0  0
    3.2443   -8.6290    4.9856 C   0  0  0  0  0  0  0  0  0  0  0  0
    2.7115   -7.6020    4.1986 C   0  0  0  0  0  0  0  0  0  0  0  0
    2.9974   -4.5266    2.8039 C   0  0  0  0  0  0  0  0  0  0  0  0
    2.5245   -3.5007    2.1605 N   0  0  0  0  0  0  0  0  0  0  0  0
    1.9203   -3.7652    0.9544 C   0  0  0  0  0  0  0  0  0  0  0  0
    0.1677   -0.7632   -0.5792 C   0  0  0  0  0  0  0  0  0  0  0  0
   -0.9722   -1.3426   -1.1888 C   0  0  0  0  0  0  0  0  0  0  0  0
   -1.9443   -0.5628   -1.8066 C   0  0  0  0  0  0  0  0  0  0  0  0
   -1.7872    0.8027   -1.7705 C   0  0  0  0  0  0  0  0  0  0  0  0
   -0.7529    1.4151   -1.1628 N   0  0  0  0  0  0  0  0  0  0  0  0
    0.1932    0.6542   -0.5824 C   0  0  0  0  0  0  0  0  0  0  0  0
    1.2342    1.3184    0.0423 C   0  0  0  0  0  0  0  0  0  0  0  0
    3.0747    1.1830    1.1494 H   0  0  0  0  0  0  0  0  0  0  0  0
    3.1278   -1.2680    1.1096 H   0  0  0  0  0  0  0  0  0  0  0  0
    0.5664   -3.6330   -2.0130 H   0  0  0  0  0  0  0  0  0  0  0  0
    2.1508   -7.1305    0.7556 H   0  0  0  0  0  0  0  0  0  0  0  0
    5.3647   -7.1247    2.1318 H   0  0  0  0  0  0  0  0  0  0  0  0
    6.2702   -8.9248    3.4951 H   0  0  0  0  0  0  0  0  0  0  0  0
    6.5987  -10.1101    6.9727 H   0  0  0  0  0  0  0  0  0  0  0  0
    7.1021   -9.5093    5.4076 H   0  0  0  0  0  0  0  0  0  0  0  0
    8.0300  -11.7791    5.8651 H   0  0  0  0  0  0  0  0  0  0  0  0
    7.0039  -11.7932    4.4351 H   0  0  0  0  0  0  0  0  0  0  0  0
    6.2474  -12.6806    7.1360 H   0  0  0  0  0  0  0  0  0  0  0  0
    4.1833  -13.3789    6.1956 H   0  0  0  0  0  0  0  0  0  0  0  0
    4.6984  -12.7413    4.6389 H   0  0  0  0  0  0  0  0  0  0  0  0
    4.1365  -11.1148    7.1912 H   0  0  0  0  0  0  0  0  0  0  0  0
    3.1716  -11.1699    5.7100 H   0  0  0  0  0  0  0  0  0  0  0  0
    2.6294   -9.0146    5.7946 H   0  0  0  0  0  0  0  0  0  0  0  0
    1.7030   -7.2490    4.4016 H   0  0  0  0  0  0  0  0  0  0  0  0
    3.5089   -4.3516    3.7664 H   0  0  0  0  0  0  0  0  0  0  0  0
   -1.1347   -2.4146   -1.1799 H   0  0  0  0  0  0  0  0  0  0  0  0
   -2.7989   -1.0158   -2.2958 H   0  0  0  0  0  0  0  0  0  0  0  0
   -2.5120    1.4649   -2.2344 H   0  0  0  0  0  0  0  0  0  0  0  0
    1.2343    2.4062    0.0490 H   0  0  0  0  0  0  0  0  0  0  0  0
  1  2  1  0  0  0  0
  1 31  2  0  0  0  0
  1 32  1  0  0  0  0
  2  3  2  0  0  0  0
  2 33  1  0  0  0  0
  3  4  1  0  0  0  0
  3 25  1  0  0  0  0
  4  5  1  0  0  0  0
  4 24  2  0  0  0  0
  5  6  2  0  0  0  0
  5 34  1  0  0  0  0
  6  7  1  0  0  0  0
  7  8  1  0  0  0  0
  7 24  1  0  0  0  0
  8  9  2  0  0  0  0
  8 35  1  0  0  0  0
  9 10  1  0  0  0  0
  9 22  1  0  0  0  0
 10 11  1  0  0  0  0
 10 21  2  0  0  0  0
 11 12  2  0  0  0  0
 11 36  1  0  0  0  0
 12 13  1  0  0  0  0
 12 37  1  0  0  0  0
 13 14  1  0  0  0  0
 13 20  2  0  0  0  0
 14 15  1  0  0  0  0
 14 19  1  0  0  0  0
 15 16  1  0  0  0  0
 15 38  1  0  0  0  0
 15 39  1  0  0  0  0
 16 17  1  0  0  0  0
 16 40  1  0  0  0  0
 16 41  1  0  0  0  0
 17 18  1  0  0  0  0
 17 42  1  0  0  0  0
 18 19  1  0  0  0  0
 18 43  1  0  0  0  0
 18 44  1  0  0  0  0
 19 45  1  0  0  0  0
 19 46  1  0  0  0  0
 20 21  1  0  0  0  0
 20 47  1  0  0  0  0
 21 48  1  0  0  0  0
 22 23  2  0  0  0  0
 22 49  1  0  0  0  0
 23 24  1  0  0  0  0
 25 26  1  0  0  0  0
 25 30  2  0  0  0  0
 26 27  2  0  0  0  0
 26 50  1  0  0  0  0
 27 28  1  0  0  0  0
 27 51  1  0  0  0  0
 28 29  2  0  0  0  0
 28 52  1  0  0  0  0
 29 30  1  0  0  0  0
 30 31  1  0  0  0  0
 31 53  1  0  0  0  0
M  END
$$$$
