CHEMBL2337369
 OpenBabel04072215363D

 48 51  0  0  0  0  0  0  0  0999 V2000
    5.4181    1.1109   -1.6054 C   0  0  0  0  0  0  0  0  0  0  0  0
    4.4595    0.4894   -0.5672 C   0  0  0  0  0  0  0  0  0  0  0  0
    3.2039    1.3671   -0.4804 C   0  0  0  0  0  0  0  0  0  0  0  0
    4.0819   -0.9194   -1.0433 C   0  0  0  0  0  0  0  0  0  0  0  0
    5.1862    0.4557    0.7982 C   0  0  0  0  0  0  0  0  0  0  0  0
    6.2919    0.9884    0.9138 O   0  0  0  0  0  0  0  0  0  0  0  0
    4.5210   -0.1777    1.8210 N   0  0  0  0  0  0  0  0  0  0  0  0
    5.0018   -0.2550    3.1309 C   0  0  0  0  0  0  0  0  0  0  0  0
    4.3628   -1.1273    3.9215 N   0  0  0  0  0  0  0  0  0  0  0  0
    4.7546   -1.3142    5.2208 C   0  0  0  0  0  0  0  0  0  0  0  0
    4.1058   -2.2916    5.9830 N   0  0  0  0  0  0  0  0  0  0  0  0
    2.7693   -2.7068    5.8805 C   0  0  0  0  0  0  0  0  0  0  0  0
    2.4099   -3.9899    6.3143 C   0  0  0  0  0  0  0  0  0  0  0  0
    1.0999   -4.4513    6.1521 C   0  0  0  0  0  0  0  0  0  0  0  0
    0.1436   -3.6260    5.5643 C   0  0  0  0  0  0  0  0  0  0  0  0
   -1.4606   -4.2003    5.3322 Cl  0  0  0  0  0  0  0  0  0  0  0  0
    0.4786   -2.3414    5.1518 C   0  0  0  0  0  0  0  0  0  0  0  0
    1.7874   -1.8885    5.3080 C   0  0  0  0  0  0  0  0  0  0  0  0
    5.8169   -0.5296    5.7158 C   0  0  0  0  0  0  0  0  0  0  0  0
    6.3588    0.3468    4.7930 C   0  0  0  0  0  0  0  0  0  0  0  0
    6.0044    0.5211    3.5216 N   0  0  0  0  0  0  0  0  0  0  0  0
    7.3579    1.0511    5.3828 N   0  0  0  0  0  0  0  0  0  0  0  0
    7.4859    0.6910    6.6953 C   0  0  0  0  0  0  0  0  0  0  0  0
    8.3694    1.1934    7.6610 C   0  0  0  0  0  0  0  0  0  0  0  0
    8.3074    0.6676    8.9507 C   0  0  0  0  0  0  0  0  0  0  0  0
    7.3937   -0.3293    9.2623 C   0  0  0  0  0  0  0  0  0  0  0  0
    6.5226   -0.8139    8.2808 C   0  0  0  0  0  0  0  0  0  0  0  0
    5.3987   -2.0297    8.6975 Cl  0  0  0  0  0  0  0  0  0  0  0  0
    6.5383   -0.3181    6.9535 C   0  0  0  0  0  0  0  0  0  0  0  0
    4.9604    1.1692   -2.5973 H   0  0  0  0  0  0  0  0  0  0  0  0
    6.3376    0.5188   -1.6930 H   0  0  0  0  0  0  0  0  0  0  0  0
    5.7131    2.1269   -1.3142 H   0  0  0  0  0  0  0  0  0  0  0  0
    2.7323    1.4754   -1.4646 H   0  0  0  0  0  0  0  0  0  0  0  0
    3.4495    2.3720   -0.1180 H   0  0  0  0  0  0  0  0  0  0  0  0
    2.4571    0.9457    0.2007 H   0  0  0  0  0  0  0  0  0  0  0  0
    3.6725   -0.8924   -2.0605 H   0  0  0  0  0  0  0  0  0  0  0  0
    3.3237   -1.3812   -0.4024 H   0  0  0  0  0  0  0  0  0  0  0  0
    4.9554   -1.5806   -1.0512 H   0  0  0  0  0  0  0  0  0  0  0  0
    3.7053   -0.7462    1.6588 H   0  0  0  0  0  0  0  0  0  0  0  0
    4.5086   -2.4471    6.9005 H   0  0  0  0  0  0  0  0  0  0  0  0
    3.1569   -4.6499    6.7490 H   0  0  0  0  0  0  0  0  0  0  0  0
    0.8408   -5.4566    6.4706 H   0  0  0  0  0  0  0  0  0  0  0  0
   -0.2628   -1.6854    4.7040 H   0  0  0  0  0  0  0  0  0  0  0  0
    2.0324   -0.8784    4.9935 H   0  0  0  0  0  0  0  0  0  0  0  0
    7.9021    1.7495    4.8985 H   0  0  0  0  0  0  0  0  0  0  0  0
    9.0817    1.9779    7.4188 H   0  0  0  0  0  0  0  0  0  0  0  0
    8.9790    1.0455    9.7183 H   0  0  0  0  0  0  0  0  0  0  0  0
    7.3553   -0.7265   10.2733 H   0  0  0  0  0  0  0  0  0  0  0  0
  1  2  1  0  0  0  0
  1 30  1  0  0  0  0
  1 31  1  0  0  0  0
  1 32  1  0  0  0  0
  2  3  1  0  0  0  0
  2  4  1  0  0  0  0
  2  5  1  0  0  0  0
  3 33  1  0  0  0  0
  3 34  1  0  0  0  0
  3 35  1  0  0  0  0
  4 36  1  0  0  0  0
  4 37  1  0  0  0  0
  4 38  1  0  0  0  0
  5  6  2  0  0  0  0
  5  7  1  0  0  0  0
  7  8  1  0  0  0  0
  7 39  1  0  0  0  0
  8  9  1  0  0  0  0
  8 21  2  0  0  0  0
  9 10  2  0  0  0  0
 10 11  1  0  0  0  0
 10 19  1  0  0  0  0
 11 12  1  0  0  0  0
 11 40  1  0  0  0  0
 12 13  1  0  0  0  0
 12 18  2  0  0  0  0
 13 14  2  0  0  0  0
 13 41  1  0  0  0  0
 14 15  1  0  0  0  0
 14 42  1  0  0  0  0
 15 16  1  0  0  0  0
 15 17  2  0  0  0  0
 17 18  1  0  0  0  0
 17 43  1  0  0  0  0
 18 44  1  0  0  0  0
 19 20  2  0  0  0  0
 19 29  1  0  0  0  0
 20 21  1  0  0  0  0
 20 22  1  0  0  0  0
 22 23  1  0  0  0  0
 22 45  1  0  0  0  0
 23 24  1  0  0  0  0
 23 29  2  0  0  0  0
 24 25  2  0  0  0  0
 24 46  1  0  0  0  0
 25 26  1  0  0  0  0
 25 47  1  0  0  0  0
 26 27  2  0  0  0  0
 26 48  1  0  0  0  0
 27 28  1  0  0  0  0
 27 29  1  0  0  0  0
M  END
$$$$
