CHEMBL3818193
 OpenBabel04072215373D

 42 45  0  0  0  0  0  0  0  0999 V2000
    4.5349   -0.5190    0.8772 N   0  0  0  0  0  0  0  0  0  0  0  0
    5.8036    0.5324    0.5437 S   0  0  0  0  0  0  0  0  0  0  0  0
    5.6009    1.6836    1.3862 O   0  0  0  0  0  0  0  0  0  0  0  0
    7.0052   -0.2691    0.5965 O   0  0  0  0  0  0  0  0  0  0  0  0
    5.4705    0.9638   -1.1381 C   0  0  0  0  0  0  0  0  0  0  0  0
    4.6914    2.0817   -1.4296 C   0  0  0  0  0  0  0  0  0  0  0  0
    4.4710    2.4302   -2.7645 C   0  0  0  0  0  0  0  0  0  0  0  0
    5.0298    1.6816   -3.8128 C   0  0  0  0  0  0  0  0  0  0  0  0
    4.8091    2.0038   -5.1635 N   0  0  0  0  0  0  0  0  0  0  0  0
    4.6078    3.2835   -5.6859 C   0  0  0  0  0  0  0  0  0  0  0  0
    3.8505    3.3949   -6.7816 N   0  0  0  0  0  0  0  0  0  0  0  0
    3.7043    4.6379   -7.2769 C   0  0  0  0  0  0  0  0  0  0  0  0
    4.2947    5.7553   -6.7307 C   0  0  0  0  0  0  0  0  0  0  0  0
    5.0852    5.5492   -5.6226 C   0  0  0  0  0  0  0  0  0  0  0  0
    5.8214    6.6352   -5.0918 N   0  0  0  0  0  0  0  0  0  0  0  0
    6.8773    6.5883   -4.1439 C   0  0  0  0  0  0  0  0  0  0  0  0
    7.6267    5.4252   -3.9048 C   0  0  0  0  0  0  0  0  0  0  0  0
    8.6514    5.3623   -2.9540 C   0  0  0  0  0  0  0  0  0  0  0  0
    8.9709    6.5498   -2.3018 C   0  0  0  0  0  0  0  0  0  0  0  0
    9.8782    6.8326   -1.3195 N   0  0  0  0  0  0  0  0  0  0  0  0
    9.9756    8.1419   -1.0257 N   0  0  0  0  0  0  0  0  0  0  0  0
    9.0442    8.7012   -1.8045 C   0  0  0  0  0  0  0  0  0  0  0  0
    8.3462    7.7566   -2.5898 C   0  0  0  0  0  0  0  0  0  0  0  0
    7.2809    7.7806   -3.5132 C   0  0  0  0  0  0  0  0  0  0  0  0
    5.2107    4.3240   -5.0990 N   0  0  0  0  0  0  0  0  0  0  0  0
    5.7917    0.5503   -3.4973 C   0  0  0  0  0  0  0  0  0  0  0  0
    6.0303    0.2000   -2.1653 C   0  0  0  0  0  0  0  0  0  0  0  0
    4.0381   -0.1995    1.7104 H   0  0  0  0  0  0  0  0  0  0  0  0
    4.8794   -1.4752    0.9417 H   0  0  0  0  0  0  0  0  0  0  0  0
    4.2577    2.6870   -0.6377 H   0  0  0  0  0  0  0  0  0  0  0  0
    3.8597    3.3034   -2.9804 H   0  0  0  0  0  0  0  0  0  0  0  0
    4.2070    1.3555   -5.6538 H   0  0  0  0  0  0  0  0  0  0  0  0
    3.0908    4.7097   -8.1693 H   0  0  0  0  0  0  0  0  0  0  0  0
    4.1699    6.7311   -7.1776 H   0  0  0  0  0  0  0  0  0  0  0  0
    5.2248    7.4436   -4.9583 H   0  0  0  0  0  0  0  0  0  0  0  0
    7.4156    4.5099   -4.4521 H   0  0  0  0  0  0  0  0  0  0  0  0
    9.1808    4.4344   -2.7665 H   0  0  0  0  0  0  0  0  0  0  0  0
   10.4620    6.1773   -0.8133 H   0  0  0  0  0  0  0  0  0  0  0  0
    8.9125    9.7743   -1.7698 H   0  0  0  0  0  0  0  0  0  0  0  0
    6.7801    8.7203   -3.7231 H   0  0  0  0  0  0  0  0  0  0  0  0
    6.2417   -0.0401   -4.2918 H   0  0  0  0  0  0  0  0  0  0  0  0
    6.6572   -0.6599   -1.9406 H   0  0  0  0  0  0  0  0  0  0  0  0
  1  2  1  0  0  0  0
  1 28  1  0  0  0  0
  1 29  1  0  0  0  0
  2  3  2  0  0  0  0
  2  4  2  0  0  0  0
  2  5  1  0  0  0  0
  5  6  1  0  0  0  0
  5 27  2  0  0  0  0
  6  7  2  0  0  0  0
  6 30  1  0  0  0  0
  7  8  1  0  0  0  0
  7 31  1  0  0  0  0
  8  9  1  0  0  0  0
  8 26  2  0  0  0  0
  9 10  1  0  0  0  0
  9 32  1  0  0  0  0
 10 11  1  0  0  0  0
 10 25  2  0  0  0  0
 11 12  2  0  0  0  0
 12 13  1  0  0  0  0
 12 33  1  0  0  0  0
 13 14  2  0  0  0  0
 13 34  1  0  0  0  0
 14 15  1  0  0  0  0
 14 25  1  0  0  0  0
 15 16  1  0  0  0  0
 15 35  1  0  0  0  0
 16 17  1  0  0  0  0
 16 24  2  0  0  0  0
 17 18  2  0  0  0  0
 17 36  1  0  0  0  0
 18 19  1  0  0  0  0
 18 37  1  0  0  0  0
 19 20  1  0  0  0  0
 19 23  2  0  0  0  0
 20 21  1  0  0  0  0
 20 38  1  0  0  0  0
 21 22  2  0  0  0  0
 22 23  1  0  0  0  0
 22 39  1  0  0  0  0
 23 24  1  0  0  0  0
 24 40  1  0  0  0  0
 26 27  1  0  0  0  0
 26 41  1  0  0  0  0
 27 42  1  0  0  0  0
M  END
$$$$
