CHEMBL3690428
 OpenBabel04072215373D

 58 61  0  0  0  0  0  0  0  0999 V2000
    0.9778    0.0070    0.2153 C   0  0  0  0  0  0  0  0  0  0  0  0
    2.4329   -0.0325    0.0806 N   0  0  0  0  0  0  0  0  0  0  0  0
    2.9227    0.9582   -0.8859 C   0  0  0  0  0  0  0  0  0  0  0  0
    2.6203    0.5982   -2.3436 C   0  0  0  0  0  0  0  0  0  0  0  0
    3.1161   -0.8094   -2.6821 C   0  0  0  0  0  0  0  0  0  0  0  0
    2.6694   -1.1790   -3.9821 O   0  0  0  0  0  0  0  0  0  0  0  0
    4.6360   -0.8129   -2.6683 C   0  0  0  0  0  0  0  0  0  0  0  0
    5.9398   -0.8159   -2.6565 C   0  0  0  0  0  0  0  0  0  0  0  0
    7.4598   -0.8194   -2.6427 C   0  0  0  0  0  0  0  0  0  0  0  0
    8.1497    0.4524   -2.6054 C   0  0  0  0  0  0  0  0  0  0  0  0
    9.4891    0.4518   -2.5288 C   0  0  0  0  0  0  0  0  0  0  0  0
   10.1938   -0.7611   -2.5358 N   0  0  0  0  0  0  0  0  0  0  0  0
   11.5566   -1.0324   -2.5177 C   0  0  0  0  0  0  0  0  0  0  0  0
   12.6494   -0.0527   -2.5467 C   0  0  0  0  0  0  0  0  0  0  0  0
   12.5285    1.1282   -3.2896 C   0  0  0  0  0  0  0  0  0  0  0  0
   13.5625    2.0466   -3.3361 C   0  0  0  0  0  0  0  0  0  0  0  0
   14.7593    1.7688   -2.6918 C   0  0  0  0  0  0  0  0  0  0  0  0
   14.9417    0.5872   -1.9717 C   0  0  0  0  0  0  0  0  0  0  0  0
   16.1796    0.2571   -1.3564 N   0  0  0  0  0  0  0  0  0  0  0  0
   17.3230    1.0304   -1.4140 C   0  0  0  0  0  0  0  0  0  0  0  0
   17.4354    2.1385   -1.9281 O   0  0  0  0  0  0  0  0  0  0  0  0
   18.4245    0.4230   -0.8708 N   0  0  0  0  0  0  0  0  0  0  0  0
   19.6851    1.1863   -0.8814 C   0  0  0  0  0  0  0  0  0  0  0  0
   19.8625    2.2344    0.2281 C   0  0  0  0  0  0  0  0  0  0  0  0
   18.8461    2.2212    1.1204 F   0  0  0  0  0  0  0  0  0  0  0  0
   20.9981    1.9734    0.9250 F   0  0  0  0  0  0  0  0  0  0  0  0
   19.9766    3.4877   -0.2607 F   0  0  0  0  0  0  0  0  0  0  0  0
   13.8681   -0.3163   -1.8864 C   0  0  0  0  0  0  0  0  0  0  0  0
   11.6275   -2.4154   -2.5216 C   0  0  0  0  0  0  0  0  0  0  0  0
   10.3904   -2.9989   -2.5474 N   0  0  0  0  0  0  0  0  0  0  0  0
    9.5386   -1.9990   -2.5711 C   0  0  0  0  0  0  0  0  0  0  0  0
    8.1197   -1.9931   -2.6194 C   0  0  0  0  0  0  0  0  0  0  0  0
    2.6025   -1.8298   -1.6658 C   0  0  0  0  0  0  0  0  0  0  0  0
    2.9157   -1.3847   -0.2355 C   0  0  0  0  0  0  0  0  0  0  0  0
    0.6559    0.9994    0.5491 H   0  0  0  0  0  0  0  0  0  0  0  0
    0.6458   -0.7049    0.9776 H   0  0  0  0  0  0  0  0  0  0  0  0
    0.4524   -0.2240   -0.7165 H   0  0  0  0  0  0  0  0  0  0  0  0
    4.0052    1.0678   -0.7513 H   0  0  0  0  0  0  0  0  0  0  0  0
    2.5086    1.9482   -0.6575 H   0  0  0  0  0  0  0  0  0  0  0  0
    3.0832    1.3418   -3.0085 H   0  0  0  0  0  0  0  0  0  0  0  0
    1.5441    0.6698   -2.5411 H   0  0  0  0  0  0  0  0  0  0  0  0
    3.1072   -0.5847   -4.6147 H   0  0  0  0  0  0  0  0  0  0  0  0
    7.5788    1.3743   -2.6260 H   0  0  0  0  0  0  0  0  0  0  0  0
   10.0435    1.3751   -2.4623 H   0  0  0  0  0  0  0  0  0  0  0  0
   11.6396    1.3538   -3.8697 H   0  0  0  0  0  0  0  0  0  0  0  0
   13.4539    2.9732   -3.8941 H   0  0  0  0  0  0  0  0  0  0  0  0
   15.5398    2.5117   -2.8047 H   0  0  0  0  0  0  0  0  0  0  0  0
   16.2468   -0.6387   -0.9024 H   0  0  0  0  0  0  0  0  0  0  0  0
   18.2868   -0.2604   -0.1392 H   0  0  0  0  0  0  0  0  0  0  0  0
   19.7700    1.6947   -1.8506 H   0  0  0  0  0  0  0  0  0  0  0  0
   20.4935    0.4544   -0.8409 H   0  0  0  0  0  0  0  0  0  0  0  0
   13.9769   -1.2350   -1.3146 H   0  0  0  0  0  0  0  0  0  0  0  0
   12.5191   -3.0260   -2.5306 H   0  0  0  0  0  0  0  0  0  0  0  0
    7.6019   -2.9456   -2.6272 H   0  0  0  0  0  0  0  0  0  0  0  0
    3.0500   -2.8152   -1.8518 H   0  0  0  0  0  0  0  0  0  0  0  0
    1.5222   -1.9740   -1.7939 H   0  0  0  0  0  0  0  0  0  0  0  0
    4.0009   -1.4117   -0.0695 H   0  0  0  0  0  0  0  0  0  0  0  0
    2.5054   -2.1107    0.4771 H   0  0  0  0  0  0  0  0  0  0  0  0
  1  2  1  0  0  0  0
  1 35  1  0  0  0  0
  1 36  1  0  0  0  0
  1 37  1  0  0  0  0
  2  3  1  0  0  0  0
  2 34  1  0  0  0  0
  3  4  1  0  0  0  0
  3 38  1  0  0  0  0
  3 39  1  0  0  0  0
  4  5  1  0  0  0  0
  4 40  1  0  0  0  0
  4 41  1  0  0  0  0
  5  6  1  0  0  0  0
  5  7  1  0  0  0  0
  5 33  1  0  0  0  0
  6 42  1  0  0  0  0
  7  8  3  0  0  0  0
  8  9  1  0  0  0  0
  9 10  1  0  0  0  0
  9 32  2  0  0  0  0
 10 11  2  0  0  0  0
 10 43  1  0  0  0  0
 11 12  1  0  0  0  0
 11 44  1  0  0  0  0
 12 13  1  0  0  0  0
 12 31  1  0  0  0  0
 13 14  1  0  0  0  0
 13 29  2  0  0  0  0
 14 15  1  0  0  0  0
 14 28  2  0  0  0  0
 15 16  2  0  0  0  0
 15 45  1  0  0  0  0
 16 17  1  0  0  0  0
 16 46  1  0  0  0  0
 17 18  2  0  0  0  0
 17 47  1  0  0  0  0
 18 19  1  0  0  0  0
 18 28  1  0  0  0  0
 19 20  1  0  0  0  0
 19 48  1  0  0  0  0
 20 21  2  0  0  0  0
 20 22  1  0  0  0  0
 22 23  1  0  0  0  0
 22 49  1  0  0  0  0
 23 24  1  0  0  0  0
 23 50  1  0  0  0  0
 23 51  1  0  0  0  0
 24 25  1  0  0  0  0
 24 26  1  0  0  0  0
 24 27  1  0  0  0  0
 28 52  1  0  0  0  0
 29 30  1  0  0  0  0
 29 53  1  0  0  0  0
 30 31  2  0  0  0  0
 31 32  1  0  0  0  0
 32 54  1  0  0  0  0
 33 34  1  0  0  0  0
 33 55  1  0  0  0  0
 33 56  1  0  0  0  0
 34 57  1  0  0  0  0
 34 58  1  0  0  0  0
M  END
$$$$
