CHEMBL3933442
 OpenBabel04072215373D

 61 63  0  0  0  0  0  0  0  0999 V2000
    2.0310    2.4296    0.4173 C   0  0  0  0  0  0  0  0  0  0  0  0
    3.1176    1.6919   -0.0192 O   0  0  0  0  0  0  0  0  0  0  0  0
    3.4409    1.4620   -1.3224 C   0  0  0  0  0  0  0  0  0  0  0  0
    2.6000    1.8509   -2.3793 C   0  0  0  0  0  0  0  0  0  0  0  0
    2.9852    1.6246   -3.7010 C   0  0  0  0  0  0  0  0  0  0  0  0
    4.2297    1.0450   -3.9930 C   0  0  0  0  0  0  0  0  0  0  0  0
    5.1009    0.6506   -2.9592 C   0  0  0  0  0  0  0  0  0  0  0  0
    6.3555    0.0010   -3.2542 N   0  0  0  0  0  0  0  0  0  0  0  0
    6.7565   -1.1709   -2.3920 C   0  0  0  0  0  0  0  0  0  0  0  0
    5.7662   -2.4022   -2.3650 C   0  0  0  0  0  0  0  0  0  0  0  0
    6.3237   -3.5593   -1.6015 N   0  0  0  0  0  0  0  0  0  0  0  0
    5.3597   -4.6728   -1.3519 C   0  0  0  0  0  0  0  0  0  0  0  0
    4.8893   -5.3521   -2.6484 C   0  0  0  0  0  0  0  0  0  0  0  0
    5.9865   -5.7679   -0.4530 C   0  0  0  0  0  0  0  0  0  0  0  0
    7.2191    0.3028   -4.4175 C   0  0  0  0  0  0  0  0  0  0  0  0
    7.5677   -0.8474   -5.1061 C   0  0  0  0  0  0  0  0  0  0  0  0
    8.5383   -0.8614   -6.0234 C   0  0  0  0  0  0  0  0  0  0  0  0
    9.2227    0.2622   -6.3599 C   0  0  0  0  0  0  0  0  0  0  0  0
   10.2639    0.0231   -7.1372 N   0  0  0  0  0  0  0  0  0  0  0  0
   11.0345    0.9700   -7.6128 C   0  0  0  0  0  0  0  0  0  0  0  0
   10.7487    2.3191   -7.4365 C   0  0  0  0  0  0  0  0  0  0  0  0
   11.6892    3.1716   -8.4172 C   0  0  0  0  0  0  0  0  0  0  0  0
   12.3185    2.5003   -9.4998 C   0  0  0  0  0  0  0  0  0  0  0  0
   13.0380    3.3222  -10.2452 N   0  0  0  0  0  0  0  0  0  0  0  0
   12.9289    4.5287   -9.7533 N   0  0  0  0  0  0  0  0  0  0  0  0
   13.6237    5.6159  -10.4535 C   0  0  0  0  0  0  0  0  0  0  0  0
   12.1110    4.5128   -8.6385 C   0  0  0  0  0  0  0  0  0  0  0  0
    9.7025    2.6156   -6.5002 N   0  0  0  0  0  0  0  0  0  0  0  0
    8.9324    1.5612   -5.9060 C   0  0  0  0  0  0  0  0  0  0  0  0
    7.8572    1.5946   -4.8622 C   0  0  0  0  0  0  0  0  0  0  0  0
    4.6659    0.8353   -1.6198 C   0  0  0  0  0  0  0  0  0  0  0  0
    1.4908   -2.2222    0.7959 Cl  0  0  0  0  0  0  0  0  0  0  0  0
    2.0555    2.5112    1.5235 H   0  0  0  0  0  0  0  0  0  0  0  0
    1.0792    1.9427    0.1169 H   0  0  0  0  0  0  0  0  0  0  0  0
    2.0761    3.4586   -0.0041 H   0  0  0  0  0  0  0  0  0  0  0  0
    1.6440    2.3242   -2.1886 H   0  0  0  0  0  0  0  0  0  0  0  0
    2.3110    1.9061   -4.5002 H   0  0  0  0  0  0  0  0  0  0  0  0
    4.4893    0.8681   -5.0269 H   0  0  0  0  0  0  0  0  0  0  0  0
    6.9394   -0.8393   -1.3525 H   0  0  0  0  0  0  0  0  0  0  0  0
    7.7360   -1.5792   -2.7256 H   0  0  0  0  0  0  0  0  0  0  0  0
    5.5759   -2.7365   -3.4077 H   0  0  0  0  0  0  0  0  0  0  0  0
    4.7993   -2.0911   -1.9156 H   0  0  0  0  0  0  0  0  0  0  0  0
    6.6378   -3.2105   -0.6669 H   0  0  0  0  0  0  0  0  0  0  0  0
    4.4711   -4.2803   -0.8107 H   0  0  0  0  0  0  0  0  0  0  0  0
    5.7514   -5.7807   -3.2034 H   0  0  0  0  0  0  0  0  0  0  0  0
    4.3423   -4.6430   -3.2966 H   0  0  0  0  0  0  0  0  0  0  0  0
    4.1854   -6.1826   -2.4088 H   0  0  0  0  0  0  0  0  0  0  0  0
    6.8670   -6.2424   -0.9392 H   0  0  0  0  0  0  0  0  0  0  0  0
    5.2424   -6.5750   -0.2506 H   0  0  0  0  0  0  0  0  0  0  0  0
    6.2968   -5.3597    0.5308 H   0  0  0  0  0  0  0  0  0  0  0  0
    7.1121   -1.8000   -4.8781 H   0  0  0  0  0  0  0  0  0  0  0  0
    8.8059   -1.8043   -6.4754 H   0  0  0  0  0  0  0  0  0  0  0  0
   11.8483    0.5666   -8.1443 H   0  0  0  0  0  0  0  0  0  0  0  0
   12.2777    1.4744   -9.8150 H   0  0  0  0  0  0  0  0  0  0  0  0
   14.1687    5.2015  -11.3470 H   0  0  0  0  0  0  0  0  0  0  0  0
   14.3915    6.0951   -9.8165 H   0  0  0  0  0  0  0  0  0  0  0  0
   12.8979    6.3491  -10.8500 H   0  0  0  0  0  0  0  0  0  0  0  0
   11.8777    5.4038   -8.0763 H   0  0  0  0  0  0  0  0  0  0  0  0
    7.5858    2.5195   -4.3591 H   0  0  0  0  0  0  0  0  0  0  0  0
    5.2881    0.5275   -0.7926 H   0  0  0  0  0  0  0  0  0  0  0  0
    1.9677   -1.1024    1.4368 H   0  0  0  0  0  0  0  0  0  0  0  0
  1  2  1  0  0  0  0
  1 33  1  0  0  0  0
  1 34  1  0  0  0  0
  1 35  1  0  0  0  0
  2  3  1  0  0  0  0
  3  4  1  0  0  0  0
  3 31  2  0  0  0  0
  4  5  2  0  0  0  0
  4 36  1  0  0  0  0
  5  6  1  0  0  0  0
  5 37  1  0  0  0  0
  6  7  2  0  0  0  0
  6 38  1  0  0  0  0
  7  8  1  0  0  0  0
  7 31  1  0  0  0  0
  8  9  1  0  0  0  0
  8 15  1  0  0  0  0
  9 10  1  0  0  0  0
  9 39  1  0  0  0  0
  9 40  1  0  0  0  0
 10 11  1  0  0  0  0
 10 41  1  0  0  0  0
 10 42  1  0  0  0  0
 11 12  1  0  0  0  0
 11 43  1  0  0  0  0
 12 13  1  0  0  0  0
 12 14  1  0  0  0  0
 12 44  1  0  0  0  0
 13 45  1  0  0  0  0
 13 46  1  0  0  0  0
 13 47  1  0  0  0  0
 14 48  1  0  0  0  0
 14 49  1  0  0  0  0
 14 50  1  0  0  0  0
 15 16  1  0  0  0  0
 15 30  2  0  0  0  0
 16 17  2  0  0  0  0
 16 51  1  0  0  0  0
 17 18  1  0  0  0  0
 17 52  1  0  0  0  0
 18 19  1  0  0  0  0
 18 29  2  0  0  0  0
 19 20  2  0  0  0  0
 20 21  1  0  0  0  0
 20 53  1  0  0  0  0
 21 22  1  0  0  0  0
 21 28  2  0  0  0  0
 22 23  1  0  0  0  0
 22 27  2  0  0  0  0
 23 24  2  0  0  0  0
 23 54  1  0  0  0  0
 24 25  1  0  0  0  0
 25 26  1  0  0  0  0
 25 27  1  0  0  0  0
 26 55  1  0  0  0  0
 26 56  1  0  0  0  0
 26 57  1  0  0  0  0
 27 58  1  0  0  0  0
 28 29  1  0  0  0  0
 29 30  1  0  0  0  0
 30 59  1  0  0  0  0
 31 60  1  0  0  0  0
 32 61  1  0  0  0  0
M  END
$$$$
