CHEMBL685
 OpenBabel04072215383D

 35 37  0  0  0  0  0  0  0  0999 V2000
    4.6176    2.1449   -0.6623 C   0  0  0  0  0  0  0  0  0  0  0  0
    4.0929    0.8768   -0.2545 O   0  0  0  0  0  0  0  0  0  0  0  0
    4.9970    0.1221    0.4327 C   0  0  0  0  0  0  0  0  0  0  0  0
    6.1261    0.5098    0.7005 O   0  0  0  0  0  0  0  0  0  0  0  0
    4.4405   -1.1005    0.6823 N   0  0  0  0  0  0  0  0  0  0  0  0
    5.1106   -2.0517    1.4002 C   0  0  0  0  0  0  0  0  0  0  0  0
    6.1854   -1.8961    2.1359 N   0  0  0  0  0  0  0  0  0  0  0  0
    6.4576   -3.1200    2.6755 C   0  0  0  0  0  0  0  0  0  0  0  0
    7.4660   -3.4950    3.5716 C   0  0  0  0  0  0  0  0  0  0  0  0
    7.5409   -4.8351    3.9709 C   0  0  0  0  0  0  0  0  0  0  0  0
    6.6549   -5.7904    3.4488 C   0  0  0  0  0  0  0  0  0  0  0  0
    6.7468   -7.2259    3.8239 C   0  0  0  0  0  0  0  0  0  0  0  0
    5.7141   -7.8904    3.8800 O   0  0  0  0  0  0  0  0  0  0  0  0
    8.0494   -7.8824    4.1087 C   0  0  0  0  0  0  0  0  0  0  0  0
    9.2391   -7.4660    3.4974 C   0  0  0  0  0  0  0  0  0  0  0  0
   10.4382   -8.1202    3.7826 C   0  0  0  0  0  0  0  0  0  0  0  0
   10.4503   -9.2043    4.6587 C   0  0  0  0  0  0  0  0  0  0  0  0
    9.2652   -9.6383    5.2523 C   0  0  0  0  0  0  0  0  0  0  0  0
    8.0653   -8.9815    4.9760 C   0  0  0  0  0  0  0  0  0  0  0  0
    5.6199   -5.4182    2.5727 C   0  0  0  0  0  0  0  0  0  0  0  0
    5.5520   -4.0697    2.2224 C   0  0  0  0  0  0  0  0  0  0  0  0
    4.6824   -3.3550    1.4384 N   0  0  0  0  0  0  0  0  0  0  0  0
    3.7831    2.7726   -0.9862 H   0  0  0  0  0  0  0  0  0  0  0  0
    5.2960    1.9992   -1.5084 H   0  0  0  0  0  0  0  0  0  0  0  0
    5.1293    2.6564    0.1583 H   0  0  0  0  0  0  0  0  0  0  0  0
    3.5408   -1.2817    0.2709 H   0  0  0  0  0  0  0  0  0  0  0  0
    8.1595   -2.7510    3.9489 H   0  0  0  0  0  0  0  0  0  0  0  0
    8.3044   -5.1119    4.6941 H   0  0  0  0  0  0  0  0  0  0  0  0
    9.2523   -6.6435    2.7873 H   0  0  0  0  0  0  0  0  0  0  0  0
   11.3611   -7.7888    3.3128 H   0  0  0  0  0  0  0  0  0  0  0  0
   11.3839   -9.7192    4.8721 H   0  0  0  0  0  0  0  0  0  0  0  0
    9.2739  -10.4914    5.9260 H   0  0  0  0  0  0  0  0  0  0  0  0
    7.1420   -9.3301    5.4347 H   0  0  0  0  0  0  0  0  0  0  0  0
    4.9128   -6.1486    2.1914 H   0  0  0  0  0  0  0  0  0  0  0  0
    3.8873   -3.7322    0.9475 H   0  0  0  0  0  0  0  0  0  0  0  0
  1  2  1  0  0  0  0
  1 23  1  0  0  0  0
  1 24  1  0  0  0  0
  1 25  1  0  0  0  0
  2  3  1  0  0  0  0
  3  4  2  0  0  0  0
  3  5  1  0  0  0  0
  5  6  1  0  0  0  0
  5 26  1  0  0  0  0
  6  7  2  0  0  0  0
  6 22  1  0  0  0  0
  7  8  1  0  0  0  0
  8  9  1  0  0  0  0
  8 21  2  0  0  0  0
  9 10  2  0  0  0  0
  9 27  1  0  0  0  0
 10 11  1  0  0  0  0
 10 28  1  0  0  0  0
 11 12  1  0  0  0  0
 11 20  2  0  0  0  0
 12 13  2  0  0  0  0
 12 14  1  0  0  0  0
 14 15  1  0  0  0  0
 14 19  2  0  0  0  0
 15 16  2  0  0  0  0
 15 29  1  0  0  0  0
 16 17  1  0  0  0  0
 16 30  1  0  0  0  0
 17 18  2  0  0  0  0
 17 31  1  0  0  0  0
 18 19  1  0  0  0  0
 18 32  1  0  0  0  0
 19 33  1  0  0  0  0
 20 21  1  0  0  0  0
 20 34  1  0  0  0  0
 21 22  1  0  0  0  0
 22 35  1  0  0  0  0
M  END
$$$$
