CHEMBL270777
 OpenBabel04072215363D

 65 70  0  0  0  0  0  0  0  0999 V2000
   -0.9451   -7.6446   -3.0655 C   0  0  0  0  0  0  0  0  0  0  0  0
   -0.2863   -7.6146   -1.7998 O   0  0  0  0  0  0  0  0  0  0  0  0
    0.7641   -6.7390   -1.7054 C   0  0  0  0  0  0  0  0  0  0  0  0
    0.8638   -5.6464   -2.5671 C   0  0  0  0  0  0  0  0  0  0  0  0
    1.9048   -4.7370   -2.4809 C   0  0  0  0  0  0  0  0  0  0  0  0
    2.0143   -3.7237   -3.4501 N   0  0  0  0  0  0  0  0  0  0  0  0
    1.0351   -3.0900   -4.2339 C   0  0  0  0  0  0  0  0  0  0  0  0
    1.3666   -1.7849   -4.2912 N   0  0  0  0  0  0  0  0  0  0  0  0
    0.4745   -0.9445   -4.7966 C   0  0  0  0  0  0  0  0  0  0  0  0
   -0.7278   -1.3699   -5.2919 C   0  0  0  0  0  0  0  0  0  0  0  0
   -1.4954   -0.3620   -5.9918 C   0  0  0  0  0  0  0  0  0  0  0  0
   -1.7420    0.6840   -5.4075 O   0  0  0  0  0  0  0  0  0  0  0  0
   -1.8000   -0.7043   -7.2861 N   0  0  0  0  0  0  0  0  0  0  0  0
   -2.9931   -0.2062   -7.8961 C   0  0  0  0  0  0  0  0  0  0  0  0
   -2.9396    0.1449   -9.2592 C   0  0  0  0  0  0  0  0  0  0  0  0
   -1.6635    0.1000  -10.0609 C   0  0  0  0  0  0  0  0  0  0  0  0
   -4.1050    0.5871   -9.9010 C   0  0  0  0  0  0  0  0  0  0  0  0
   -5.3086    0.6984   -9.2097 C   0  0  0  0  0  0  0  0  0  0  0  0
   -5.3736    0.3640   -7.8635 C   0  0  0  0  0  0  0  0  0  0  0  0
   -4.2363   -0.1072   -7.1866 C   0  0  0  0  0  0  0  0  0  0  0  0
   -4.4635   -0.4939   -5.7388 C   0  0  0  0  0  0  0  0  0  0  0  0
   -1.3973   -2.0031   -7.6805 C   0  0  0  0  0  0  0  0  0  0  0  0
   -1.3811   -2.5812   -8.8568 N   0  0  0  0  0  0  0  0  0  0  0  0
   -2.5064   -3.3188   -8.7335 C   0  0  0  0  0  0  0  0  0  0  0  0
   -3.4303   -3.4681   -9.7816 C   0  0  0  0  0  0  0  0  0  0  0  0
   -4.7688   -3.4899   -9.4295 C   0  0  0  0  0  0  0  0  0  0  0  0
   -5.1300   -3.5951   -8.0809 C   0  0  0  0  0  0  0  0  0  0  0  0
   -4.1759   -3.7038   -7.0156 C   0  0  0  0  0  0  0  0  0  0  0  0
   -2.8099   -3.5114   -7.3516 C   0  0  0  0  0  0  0  0  0  0  0  0
   -1.5874   -3.0287   -6.7417 N   0  0  0  0  0  0  0  0  0  0  0  0
   -0.9720   -2.7339   -5.4420 C   0  0  0  0  0  0  0  0  0  0  0  0
   -0.0844   -3.6180   -4.8511 N   0  0  0  0  0  0  0  0  0  0  0  0
    2.8757   -4.9152   -1.4675 C   0  0  0  0  0  0  0  0  0  0  0  0
    2.7806   -5.9834   -0.5578 C   0  0  0  0  0  0  0  0  0  0  0  0
    3.6437   -6.2382    0.4785 O   0  0  0  0  0  0  0  0  0  0  0  0
    4.6916   -5.3318    0.7773 C   0  0  0  0  0  0  0  0  0  0  0  0
    1.7344   -6.9212   -0.7051 C   0  0  0  0  0  0  0  0  0  0  0  0
    1.7322   -7.9659    0.1897 O   0  0  0  0  0  0  0  0  0  0  0  0
    1.3634   -9.2265   -0.3600 C   0  0  0  0  0  0  0  0  0  0  0  0
   -1.6140   -8.5054   -3.0743 H   0  0  0  0  0  0  0  0  0  0  0  0
   -0.2245   -7.7662   -3.8846 H   0  0  0  0  0  0  0  0  0  0  0  0
   -1.5540   -6.7463   -3.2092 H   0  0  0  0  0  0  0  0  0  0  0  0
    0.1207   -5.4832   -3.3287 H   0  0  0  0  0  0  0  0  0  0  0  0
    2.6616   -2.9766   -3.1720 H   0  0  0  0  0  0  0  0  0  0  0  0
    0.7928    0.0872   -4.8968 H   0  0  0  0  0  0  0  0  0  0  0  0
   -0.7886   -0.2216   -9.4878 H   0  0  0  0  0  0  0  0  0  0  0  0
   -1.4249    1.1008  -10.4249 H   0  0  0  0  0  0  0  0  0  0  0  0
   -1.7747   -0.5884  -10.9045 H   0  0  0  0  0  0  0  0  0  0  0  0
   -4.0688    0.8533  -10.9558 H   0  0  0  0  0  0  0  0  0  0  0  0
   -6.2015    1.0472   -9.7275 H   0  0  0  0  0  0  0  0  0  0  0  0
   -6.3263    0.4498   -7.3374 H   0  0  0  0  0  0  0  0  0  0  0  0
   -5.5289   -0.6774   -5.5382 H   0  0  0  0  0  0  0  0  0  0  0  0
   -4.1484    0.3047   -5.0642 H   0  0  0  0  0  0  0  0  0  0  0  0
   -3.9555   -1.4218   -5.4673 H   0  0  0  0  0  0  0  0  0  0  0  0
   -3.1266   -3.2348  -10.8006 H   0  0  0  0  0  0  0  0  0  0  0  0
   -5.5128   -3.2977  -10.2046 H   0  0  0  0  0  0  0  0  0  0  0  0
   -6.1946   -3.4913   -7.8552 H   0  0  0  0  0  0  0  0  0  0  0  0
   -4.5458   -3.6807   -5.9969 H   0  0  0  0  0  0  0  0  0  0  0  0
    3.6909   -4.2005   -1.3851 H   0  0  0  0  0  0  0  0  0  0  0  0
    5.1415   -5.6503    1.7264 H   0  0  0  0  0  0  0  0  0  0  0  0
    4.3241   -4.3131    0.9193 H   0  0  0  0  0  0  0  0  0  0  0  0
    5.4744   -5.3741    0.0140 H   0  0  0  0  0  0  0  0  0  0  0  0
    1.8381  -10.0102    0.2372 H   0  0  0  0  0  0  0  0  0  0  0  0
    1.7044   -9.3502   -1.3948 H   0  0  0  0  0  0  0  0  0  0  0  0
    0.2820   -9.3699   -0.2801 H   0  0  0  0  0  0  0  0  0  0  0  0
  1  2  1  0  0  0  0
  1 40  1  0  0  0  0
  1 41  1  0  0  0  0
  1 42  1  0  0  0  0
  2  3  1  0  0  0  0
  3  4  1  0  0  0  0
  3 37  2  0  0  0  0
  4  5  2  0  0  0  0
  4 43  1  0  0  0  0
  5  6  1  0  0  0  0
  5 33  1  0  0  0  0
  6  7  1  0  0  0  0
  6 44  1  0  0  0  0
  7  8  1  0  0  0  0
  7 32  2  0  0  0  0
  8  9  2  0  0  0  0
  9 10  1  0  0  0  0
  9 45  1  0  0  0  0
 10 11  1  0  0  0  0
 10 31  2  0  0  0  0
 11 12  2  0  0  0  0
 11 13  1  0  0  0  0
 13 14  1  0  0  0  0
 13 22  1  0  0  0  0
 14 15  1  0  0  0  0
 14 20  2  0  0  0  0
 15 16  1  0  0  0  0
 15 17  2  0  0  0  0
 16 46  1  0  0  0  0
 16 47  1  0  0  0  0
 16 48  1  0  0  0  0
 17 18  1  0  0  0  0
 17 49  1  0  0  0  0
 18 19  2  0  0  0  0
 18 50  1  0  0  0  0
 19 20  1  0  0  0  0
 19 51  1  0  0  0  0
 20 21  1  0  0  0  0
 21 52  1  0  0  0  0
 21 53  1  0  0  0  0
 21 54  1  0  0  0  0
 22 23  2  0  0  0  0
 22 30  1  0  0  0  0
 23 24  1  0  0  0  0
 24 25  1  0  0  0  0
 24 29  2  0  0  0  0
 25 26  2  0  0  0  0
 25 55  1  0  0  0  0
 26 27  1  0  0  0  0
 26 56  1  0  0  0  0
 27 28  2  0  0  0  0
 27 57  1  0  0  0  0
 28 29  1  0  0  0  0
 28 58  1  0  0  0  0
 29 30  1  0  0  0  0
 30 31  1  0  0  0  0
 31 32  1  0  0  0  0
 33 34  2  0  0  0  0
 33 59  1  0  0  0  0
 34 35  1  0  0  0  0
 34 37  1  0  0  0  0
 35 36  1  0  0  0  0
 36 60  1  0  0  0  0
 36 61  1  0  0  0  0
 36 62  1  0  0  0  0
 37 38  1  0  0  0  0
 38 39  1  0  0  0  0
 39 63  1  0  0  0  0
 39 64  1  0  0  0  0
 39 65  1  0  0  0  0
M  END
$$$$
