CHEMBL234625
 OpenBabel04072215363D

 50 53  0  0  0  0  0  0  0  0999 V2000
    6.0961    0.2384   -2.4932 C   0  0  0  0  0  0  0  0  0  0  0  0
    5.2025   -0.0053   -1.3560 N   0  0  0  0  0  0  0  0  0  0  0  0
    5.3171   -1.3995   -0.9268 C   0  0  0  0  0  0  0  0  0  0  0  0
    5.5277    0.9417   -0.2711 C   0  0  0  0  0  0  0  0  0  0  0  0
    4.5966    0.8597    0.9513 C   0  0  0  0  0  0  0  0  0  0  0  0
    4.9257    1.9048    1.9940 C   0  0  0  0  0  0  0  0  0  0  0  0
    4.8247    3.2666    1.6900 C   0  0  0  0  0  0  0  0  0  0  0  0
    5.0808    4.2293    2.6666 C   0  0  0  0  0  0  0  0  0  0  0  0
    5.4097    3.8566    3.9753 C   0  0  0  0  0  0  0  0  0  0  0  0
    5.6270    4.7990    4.9950 N   0  0  0  0  0  0  0  0  0  0  0  0
    4.9663    6.0198    5.1320 C   0  0  0  0  0  0  0  0  0  0  0  0
    5.6134    7.0090    5.7572 N   0  0  0  0  0  0  0  0  0  0  0  0
    4.9690    8.1939    5.8441 C   0  0  0  0  0  0  0  0  0  0  0  0
    3.7074    8.4418    5.3330 C   0  0  0  0  0  0  0  0  0  0  0  0
    3.0672   10.0310    5.4472 Cl  0  0  0  0  0  0  0  0  0  0  0  0
    3.1087    7.3652    4.7038 C   0  0  0  0  0  0  0  0  0  0  0  0
    1.8296    7.4084    3.9560 C   0  0  0  0  0  0  0  0  0  0  0  0
    1.7614    6.7864    2.6928 C   0  0  0  0  0  0  0  0  0  0  0  0
    0.6611    6.9306    1.8405 C   0  0  0  0  0  0  0  0  0  0  0  0
   -0.4551    7.6403    2.2990 C   0  0  0  0  0  0  0  0  0  0  0  0
   -1.6812    8.0417    1.7084 C   0  0  0  0  0  0  0  0  0  0  0  0
   -2.5027    8.4582    2.7298 C   0  0  0  0  0  0  0  0  0  0  0  0
   -1.7491    8.5189    3.8731 N   0  0  0  0  0  0  0  0  0  0  0  0
   -0.4658    8.0880    3.6182 C   0  0  0  0  0  0  0  0  0  0  0  0
    0.6661    8.0295    4.4496 C   0  0  0  0  0  0  0  0  0  0  0  0
    3.7335    6.1630    4.6243 N   0  0  0  0  0  0  0  0  0  0  0  0
    5.5628    2.4981    4.2630 C   0  0  0  0  0  0  0  0  0  0  0  0
    5.3073    1.5286    3.2885 C   0  0  0  0  0  0  0  0  0  0  0  0
    5.8462   -0.4209   -3.3315 H   0  0  0  0  0  0  0  0  0  0  0  0
    7.1484    0.0804   -2.2295 H   0  0  0  0  0  0  0  0  0  0  0  0
    5.9834    1.2653   -2.8593 H   0  0  0  0  0  0  0  0  0  0  0  0
    5.1500   -2.0788   -1.7706 H   0  0  0  0  0  0  0  0  0  0  0  0
    4.5479   -1.6480   -0.1888 H   0  0  0  0  0  0  0  0  0  0  0  0
    6.3007   -1.6201   -0.4977 H   0  0  0  0  0  0  0  0  0  0  0  0
    5.4538    1.9546   -0.6875 H   0  0  0  0  0  0  0  0  0  0  0  0
    6.5688    0.8133    0.0541 H   0  0  0  0  0  0  0  0  0  0  0  0
    4.6672   -0.1321    1.4123 H   0  0  0  0  0  0  0  0  0  0  0  0
    3.5511    0.9914    0.6442 H   0  0  0  0  0  0  0  0  0  0  0  0
    4.5282    3.5931    0.6954 H   0  0  0  0  0  0  0  0  0  0  0  0
    4.9980    5.2788    2.3949 H   0  0  0  0  0  0  0  0  0  0  0  0
    6.5946    4.9117    5.2645 H   0  0  0  0  0  0  0  0  0  0  0  0
    5.5345    8.9775    6.3404 H   0  0  0  0  0  0  0  0  0  0  0  0
    2.5940    6.1764    2.3455 H   0  0  0  0  0  0  0  0  0  0  0  0
    0.6636    6.4699    0.8577 H   0  0  0  0  0  0  0  0  0  0  0  0
   -1.9567    7.9518    0.6658 H   0  0  0  0  0  0  0  0  0  0  0  0
   -3.5533    8.7139    2.7382 H   0  0  0  0  0  0  0  0  0  0  0  0
   -2.0936    8.7875    4.7842 H   0  0  0  0  0  0  0  0  0  0  0  0
    0.6285    8.4516    5.4490 H   0  0  0  0  0  0  0  0  0  0  0  0
    5.8276    2.1865    5.2696 H   0  0  0  0  0  0  0  0  0  0  0  0
    5.3880    0.4784    3.5600 H   0  0  0  0  0  0  0  0  0  0  0  0
  1  2  1  0  0  0  0
  1 29  1  0  0  0  0
  1 30  1  0  0  0  0
  1 31  1  0  0  0  0
  2  3  1  0  0  0  0
  2  4  1  0  0  0  0
  3 32  1  0  0  0  0
  3 33  1  0  0  0  0
  3 34  1  0  0  0  0
  4  5  1  0  0  0  0
  4 35  1  0  0  0  0
  4 36  1  0  0  0  0
  5  6  1  0  0  0  0
  5 37  1  0  0  0  0
  5 38  1  0  0  0  0
  6  7  1  0  0  0  0
  6 28  2  0  0  0  0
  7  8  2  0  0  0  0
  7 39  1  0  0  0  0
  8  9  1  0  0  0  0
  8 40  1  0  0  0  0
  9 10  1  0  0  0  0
  9 27  2  0  0  0  0
 10 11  1  0  0  0  0
 10 41  1  0  0  0  0
 11 12  1  0  0  0  0
 11 26  2  0  0  0  0
 12 13  2  0  0  0  0
 13 14  1  0  0  0  0
 13 42  1  0  0  0  0
 14 15  1  0  0  0  0
 14 16  2  0  0  0  0
 16 17  1  0  0  0  0
 16 26  1  0  0  0  0
 17 18  1  0  0  0  0
 17 25  2  0  0  0  0
 18 19  2  0  0  0  0
 18 43  1  0  0  0  0
 19 20  1  0  0  0  0
 19 44  1  0  0  0  0
 20 21  1  0  0  0  0
 20 24  2  0  0  0  0
 21 22  2  0  0  0  0
 21 45  1  0  0  0  0
 22 23  1  0  0  0  0
 22 46  1  0  0  0  0
 23 24  1  0  0  0  0
 23 47  1  0  0  0  0
 24 25  1  0  0  0  0
 25 48  1  0  0  0  0
 27 28  1  0  0  0  0
 27 49  1  0  0  0  0
 28 50  1  0  0  0  0
M  END
$$$$
