CHEMBL4103536
 OpenBabel04072215383D

 78 81  0  0  0  0  0  0  0  0999 V2000
    2.7300    0.1163    1.9752 C   0  0  0  0  0  0  0  0  0  0  0  0
    3.6745    0.2900    1.0432 C   0  0  0  0  0  0  0  0  0  0  0  0
    3.9577   -0.8114    0.0786 C   0  0  0  0  0  0  0  0  0  0  0  0
    3.2947   -1.8458    0.1198 O   0  0  0  0  0  0  0  0  0  0  0  0
    5.0155   -0.5371   -0.7659 N   0  0  0  0  0  0  0  0  0  0  0  0
    5.5060   -1.4080   -1.7632 C   0  0  0  0  0  0  0  0  0  0  0  0
    4.7855   -2.5180   -2.2243 C   0  0  0  0  0  0  0  0  0  0  0  0
    5.3556   -3.4117   -3.1301 C   0  0  0  0  0  0  0  0  0  0  0  0
    6.6603   -3.2208   -3.5921 C   0  0  0  0  0  0  0  0  0  0  0  0
    7.3095   -4.2655   -4.4699 C   0  0  0  0  0  0  0  0  0  0  0  0
    6.9984   -4.0855   -5.9609 C   0  0  0  0  0  0  0  0  0  0  0  0
    7.6187   -5.1128   -6.8062 N   0  0  0  0  0  0  0  0  0  0  0  0
    7.1853   -6.4289   -6.6713 C   0  0  0  0  0  0  0  0  0  0  0  0
    6.3386   -6.7780   -5.8483 O   0  0  0  0  0  0  0  0  0  0  0  0
    7.8023   -7.4600   -7.5701 C   0  0  0  0  0  0  0  0  0  0  0  0
    7.4353   -8.8788   -7.4124 C   0  0  0  0  0  0  0  0  0  0  0  0
    8.2441   -9.7031   -6.6111 C   0  0  0  0  0  0  0  0  0  0  0  0
    7.9032  -11.0407   -6.3986 C   0  0  0  0  0  0  0  0  0  0  0  0
    6.7533  -11.5693   -6.9816 C   0  0  0  0  0  0  0  0  0  0  0  0
    5.9482  -10.7649   -7.7885 C   0  0  0  0  0  0  0  0  0  0  0  0
    6.2874   -9.4260   -8.0082 C   0  0  0  0  0  0  0  0  0  0  0  0
    5.2625   -8.4917   -9.0416 Cl  0  0  0  0  0  0  0  0  0  0  0  0
    8.6597   -7.0962   -8.5342 C   0  0  0  0  0  0  0  0  0  0  0  0
    9.0196   -5.6965   -8.6813 C   0  0  0  0  0  0  0  0  0  0  0  0
    9.8610   -5.2475   -9.6739 C   0  0  0  0  0  0  0  0  0  0  0  0
   10.2311   -3.9629   -9.8109 N   0  0  0  0  0  0  0  0  0  0  0  0
    9.7505   -3.0972   -8.9111 C   0  0  0  0  0  0  0  0  0  0  0  0
   10.1437   -1.7757   -8.9342 N   0  0  0  0  0  0  0  0  0  0  0  0
   10.4604   -1.1977  -10.2319 C   0  0  0  0  0  0  0  0  0  0  0  0
   10.8724    0.2702  -10.0478 C   0  0  0  0  0  0  0  0  0  0  0  0
   12.1070    0.3922   -9.1456 C   0  0  0  0  0  0  0  0  0  0  0  0
   12.5660    1.8322   -8.8893 C   0  0  0  0  0  0  0  0  0  0  0  0
   11.6036    2.7348   -8.2227 N   0  0  0  0  0  0  0  0  0  0  0  0
   11.0555    2.1985   -6.9660 C   0  0  0  0  0  0  0  0  0  0  0  0
   12.0342    2.0378   -5.8057 C   0  0  0  0  0  0  0  0  0  0  0  0
   12.2244    4.0663   -8.0783 C   0  0  0  0  0  0  0  0  0  0  0  0
   11.3178    5.1395   -7.4856 C   0  0  0  0  0  0  0  0  0  0  0  0
    8.9124   -3.4328   -7.9220 N   0  0  0  0  0  0  0  0  0  0  0  0
    8.5406   -4.7257   -7.8186 C   0  0  0  0  0  0  0  0  0  0  0  0
    7.3567   -2.0716   -3.1980 C   0  0  0  0  0  0  0  0  0  0  0  0
    6.7768   -1.1678   -2.2940 C   0  0  0  0  0  0  0  0  0  0  0  0
    2.4867    0.8965    2.6859 H   0  0  0  0  0  0  0  0  0  0  0  0
    2.1741   -0.8147    2.0479 H   0  0  0  0  0  0  0  0  0  0  0  0
    4.2264    1.2194    0.9668 H   0  0  0  0  0  0  0  0  0  0  0  0
    5.5672    0.2932   -0.5820 H   0  0  0  0  0  0  0  0  0  0  0  0
    3.7745   -2.7154   -1.8906 H   0  0  0  0  0  0  0  0  0  0  0  0
    4.7795   -4.2834   -3.4377 H   0  0  0  0  0  0  0  0  0  0  0  0
    6.9769   -5.2475   -4.1119 H   0  0  0  0  0  0  0  0  0  0  0  0
    8.3961   -4.2621   -4.3079 H   0  0  0  0  0  0  0  0  0  0  0  0
    7.2933   -3.0779   -6.2734 H   0  0  0  0  0  0  0  0  0  0  0  0
    5.9140   -4.1490   -6.1214 H   0  0  0  0  0  0  0  0  0  0  0  0
    9.1339   -9.3023   -6.1301 H   0  0  0  0  0  0  0  0  0  0  0  0
    8.5280  -11.6660   -5.7657 H   0  0  0  0  0  0  0  0  0  0  0  0
    6.4795  -12.6063   -6.8030 H   0  0  0  0  0  0  0  0  0  0  0  0
    5.0518  -11.1843   -8.2385 H   0  0  0  0  0  0  0  0  0  0  0  0
    9.0957   -7.8224   -9.2150 H   0  0  0  0  0  0  0  0  0  0  0  0
   10.2816   -5.9208  -10.4143 H   0  0  0  0  0  0  0  0  0  0  0  0
    9.5109   -1.2447   -8.3502 H   0  0  0  0  0  0  0  0  0  0  0  0
    9.5855   -1.2431  -10.8922 H   0  0  0  0  0  0  0  0  0  0  0  0
   11.2795   -1.7387  -10.7171 H   0  0  0  0  0  0  0  0  0  0  0  0
   10.0318    0.8361   -9.6289 H   0  0  0  0  0  0  0  0  0  0  0  0
   11.0931    0.7037  -11.0306 H   0  0  0  0  0  0  0  0  0  0  0  0
   12.9354   -0.1497   -9.6194 H   0  0  0  0  0  0  0  0  0  0  0  0
   11.9363   -0.1110   -8.1882 H   0  0  0  0  0  0  0  0  0  0  0  0
   12.8328    2.2654   -9.8622 H   0  0  0  0  0  0  0  0  0  0  0  0
   13.4977    1.7830   -8.3114 H   0  0  0  0  0  0  0  0  0  0  0  0
   10.5719    1.2343   -7.1572 H   0  0  0  0  0  0  0  0  0  0  0  0
   10.2238    2.8330   -6.6343 H   0  0  0  0  0  0  0  0  0  0  0  0
   12.9852    1.5975   -6.1169 H   0  0  0  0  0  0  0  0  0  0  0  0
   11.6025    1.3760   -5.0471 H   0  0  0  0  0  0  0  0  0  0  0  0
   12.2406    2.9999   -5.3264 H   0  0  0  0  0  0  0  0  0  0  0  0
   12.5215    4.4194   -9.0744 H   0  0  0  0  0  0  0  0  0  0  0  0
   13.1427    4.0069   -7.4804 H   0  0  0  0  0  0  0  0  0  0  0  0
   10.3874    5.2320   -8.0541 H   0  0  0  0  0  0  0  0  0  0  0  0
   11.8279    6.1086   -7.5142 H   0  0  0  0  0  0  0  0  0  0  0  0
   11.0716    4.9366   -6.4392 H   0  0  0  0  0  0  0  0  0  0  0  0
    8.3648   -1.8931   -3.5621 H   0  0  0  0  0  0  0  0  0  0  0  0
    7.3608   -0.3071   -1.9805 H   0  0  0  0  0  0  0  0  0  0  0  0
  1  2  2  0  0  0  0
  1 42  1  0  0  0  0
  1 43  1  0  0  0  0
  2  3  1  0  0  0  0
  2 44  1  0  0  0  0
  3  4  2  0  0  0  0
  3  5  1  0  0  0  0
  5  6  1  0  0  0  0
  5 45  1  0  0  0  0
  6  7  1  0  0  0  0
  6 41  2  0  0  0  0
  7  8  2  0  0  0  0
  7 46  1  0  0  0  0
  8  9  1  0  0  0  0
  8 47  1  0  0  0  0
  9 10  1  0  0  0  0
  9 40  2  0  0  0  0
 10 11  1  0  0  0  0
 10 48  1  0  0  0  0
 10 49  1  0  0  0  0
 11 12  1  0  0  0  0
 11 50  1  0  0  0  0
 11 51  1  0  0  0  0
 12 13  1  0  0  0  0
 12 39  1  0  0  0  0
 13 14  2  0  0  0  0
 13 15  1  0  0  0  0
 15 16  1  0  0  0  0
 15 23  2  0  0  0  0
 16 17  1  0  0  0  0
 16 21  2  0  0  0  0
 17 18  2  0  0  0  0
 17 52  1  0  0  0  0
 18 19  1  0  0  0  0
 18 53  1  0  0  0  0
 19 20  2  0  0  0  0
 19 54  1  0  0  0  0
 20 21  1  0  0  0  0
 20 55  1  0  0  0  0
 21 22  1  0  0  0  0
 23 24  1  0  0  0  0
 23 56  1  0  0  0  0
 24 25  1  0  0  0  0
 24 39  2  0  0  0  0
 25 26  2  0  0  0  0
 25 57  1  0  0  0  0
 26 27  1  0  0  0  0
 27 28  1  0  0  0  0
 27 38  2  0  0  0  0
 28 29  1  0  0  0  0
 28 58  1  0  0  0  0
 29 30  1  0  0  0  0
 29 59  1  0  0  0  0
 29 60  1  0  0  0  0
 30 31  1  0  0  0  0
 30 61  1  0  0  0  0
 30 62  1  0  0  0  0
 31 32  1  0  0  0  0
 31 63  1  0  0  0  0
 31 64  1  0  0  0  0
 32 33  1  0  0  0  0
 32 65  1  0  0  0  0
 32 66  1  0  0  0  0
 33 34  1  0  0  0  0
 33 36  1  0  0  0  0
 34 35  1  0  0  0  0
 34 67  1  0  0  0  0
 34 68  1  0  0  0  0
 35 69  1  0  0  0  0
 35 70  1  0  0  0  0
 35 71  1  0  0  0  0
 36 37  1  0  0  0  0
 36 72  1  0  0  0  0
 36 73  1  0  0  0  0
 37 74  1  0  0  0  0
 37 75  1  0  0  0  0
 37 76  1  0  0  0  0
 38 39  1  0  0  0  0
 40 41  1  0  0  0  0
 40 77  1  0  0  0  0
 41 78  1  0  0  0  0
M  END
$$$$
