CHEMBL1241241
 OpenBabel04072215363D

 35 37  0  0  0  0  0  0  0  0999 V2000
    1.4173    0.8778    0.4015 C   0  0  0  0  0  0  0  0  0  0  0  0
    2.5903   -0.0724    0.1473 C   0  0  0  0  0  0  0  0  0  0  0  0
    3.7264    0.6379   -0.5880 C   0  0  0  0  0  0  0  0  0  0  0  0
    3.0426   -0.6976    1.3856 N   0  0  0  0  0  0  0  0  0  0  0  0
    3.5623    0.0518    2.3843 N   0  0  0  0  0  0  0  0  0  0  0  0
    3.8333   -0.8345    3.3624 C   0  0  0  0  0  0  0  0  0  0  0  0
    4.4378   -0.3873    4.6258 C   0  0  0  0  0  0  0  0  0  0  0  0
    4.1267    0.8696    5.1684 C   0  0  0  0  0  0  0  0  0  0  0  0
    4.6311    1.2534    6.4176 C   0  0  0  0  0  0  0  0  0  0  0  0
    5.4374    0.3721    7.1304 C   0  0  0  0  0  0  0  0  0  0  0  0
    5.9229    0.6806    8.3652 O   0  0  0  0  0  0  0  0  0  0  0  0
    5.7858   -0.8588    6.5964 C   0  0  0  0  0  0  0  0  0  0  0  0
    5.3196   -1.2171    5.3315 C   0  0  0  0  0  0  0  0  0  0  0  0
    3.4268   -2.1557    2.9900 C   0  0  0  0  0  0  0  0  0  0  0  0
    3.3724   -3.4465    3.5426 C   0  0  0  0  0  0  0  0  0  0  0  0
    3.7212   -3.7868    4.8424 N   0  0  0  0  0  0  0  0  0  0  0  0
    2.9233   -4.4620    2.7760 N   0  0  0  0  0  0  0  0  0  0  0  0
    2.5244   -4.1967    1.5194 C   0  0  0  0  0  0  0  0  0  0  0  0
    2.4871   -3.0077    0.9020 N   0  0  0  0  0  0  0  0  0  0  0  0
    2.9564   -2.0268    1.6932 C   0  0  0  0  0  0  0  0  0  0  0  0
    1.0445    1.2909   -0.5418 H   0  0  0  0  0  0  0  0  0  0  0  0
    1.7073    1.7122    1.0458 H   0  0  0  0  0  0  0  0  0  0  0  0
    0.5904    0.3498    0.8881 H   0  0  0  0  0  0  0  0  0  0  0  0
    2.2302   -0.8789   -0.5037 H   0  0  0  0  0  0  0  0  0  0  0  0
    4.1358    1.4657    0.0009 H   0  0  0  0  0  0  0  0  0  0  0  0
    3.3722    1.0467   -1.5410 H   0  0  0  0  0  0  0  0  0  0  0  0
    4.5453   -0.0563   -0.8050 H   0  0  0  0  0  0  0  0  0  0  0  0
    3.4816    1.5552    4.6216 H   0  0  0  0  0  0  0  0  0  0  0  0
    4.3750    2.2301    6.8161 H   0  0  0  0  0  0  0  0  0  0  0  0
    5.6585    1.5880    8.5847 H   0  0  0  0  0  0  0  0  0  0  0  0
    6.4203   -1.5397    7.1567 H   0  0  0  0  0  0  0  0  0  0  0  0
    5.6501   -2.1648    4.9130 H   0  0  0  0  0  0  0  0  0  0  0  0
    3.5239   -3.0787    5.5391 H   0  0  0  0  0  0  0  0  0  0  0  0
    3.3964   -4.7205    5.0672 H   0  0  0  0  0  0  0  0  0  0  0  0
    2.1849   -5.0501    0.9410 H   0  0  0  0  0  0  0  0  0  0  0  0
  1  2  1  0  0  0  0
  1 21  1  0  0  0  0
  1 22  1  0  0  0  0
  1 23  1  0  0  0  0
  2  3  1  0  0  0  0
  2  4  1  0  0  0  0
  2 24  1  0  0  0  0
  3 25  1  0  0  0  0
  3 26  1  0  0  0  0
  3 27  1  0  0  0  0
  4  5  1  0  0  0  0
  4 20  1  0  0  0  0
  5  6  2  0  0  0  0
  6  7  1  0  0  0  0
  6 14  1  0  0  0  0
  7  8  1  0  0  0  0
  7 13  2  0  0  0  0
  8  9  2  0  0  0  0
  8 28  1  0  0  0  0
  9 10  1  0  0  0  0
  9 29  1  0  0  0  0
 10 11  1  0  0  0  0
 10 12  2  0  0  0  0
 11 30  1  0  0  0  0
 12 13  1  0  0  0  0
 12 31  1  0  0  0  0
 13 32  1  0  0  0  0
 14 15  1  0  0  0  0
 14 20  2  0  0  0  0
 15 16  1  0  0  0  0
 15 17  2  0  0  0  0
 16 33  1  0  0  0  0
 16 34  1  0  0  0  0
 17 18  1  0  0  0  0
 18 19  2  0  0  0  0
 18 35  1  0  0  0  0
 19 20  1  0  0  0  0
M  END
$$$$
