CHEMBL472302
 OpenBabel04072215383D

 45 48  0  0  0  0  0  0  0  0999 V2000
    2.3642   -0.4379    1.5081 C   0  0  0  0  0  0  0  0  0  0  0  0
    0.8683   -0.3222    1.4780 C   0  0  0  0  0  0  0  0  0  0  0  0
    0.2625    0.8662    1.8973 C   0  0  0  0  0  0  0  0  0  0  0  0
   -1.1188    0.9866    1.8779 C   0  0  0  0  0  0  0  0  0  0  0  0
   -1.9063   -0.0769    1.4358 C   0  0  0  0  0  0  0  0  0  0  0  0
   -1.3355   -1.2726    0.9956 C   0  0  0  0  0  0  0  0  0  0  0  0
   -2.1112   -2.3786    0.5425 N   0  0  0  0  0  0  0  0  0  0  0  0
   -3.4884   -2.3734    0.3581 C   0  0  0  0  0  0  0  0  0  0  0  0
   -4.2124   -1.3912    0.4786 O   0  0  0  0  0  0  0  0  0  0  0  0
   -3.9932   -3.6405    0.0634 N   0  0  0  0  0  0  0  0  0  0  0  0
   -5.3966   -3.8049   -0.0970 C   0  0  0  0  0  0  0  0  0  0  0  0
   -6.1422   -2.9369   -0.9042 C   0  0  0  0  0  0  0  0  0  0  0  0
   -7.5389   -3.0090   -0.9327 C   0  0  0  0  0  0  0  0  0  0  0  0
   -8.2096   -3.9469   -0.1435 C   0  0  0  0  0  0  0  0  0  0  0  0
   -9.6778   -3.9502   -0.0860 C   0  0  0  0  0  0  0  0  0  0  0  0
  -10.3905   -3.1157    0.9385 C   0  0  0  0  0  0  0  0  0  0  0  0
  -11.6745   -3.0211    1.1171 N   0  0  0  0  0  0  0  0  0  0  0  0
  -12.4417   -3.7644    0.2679 C   0  0  0  0  0  0  0  0  0  0  0  0
  -13.8053   -3.9158    0.1686 C   0  0  0  0  0  0  0  0  0  0  0  0
  -13.9958   -4.8259   -0.8813 C   0  0  0  0  0  0  0  0  0  0  0  0
  -12.8523   -5.2400   -1.4257 N   0  0  0  0  0  0  0  0  0  0  0  0
  -11.8830   -4.5646   -0.7334 N   0  0  0  0  0  0  0  0  0  0  0  0
  -10.4756   -4.6507   -0.9227 C   0  0  0  0  0  0  0  0  0  0  0  0
  -10.0264   -5.4707   -1.9586 N   0  0  0  0  0  0  0  0  0  0  0  0
   -7.4602   -4.8555    0.6176 C   0  0  0  0  0  0  0  0  0  0  0  0
   -6.0579   -4.8016    0.6220 C   0  0  0  0  0  0  0  0  0  0  0  0
    0.0633   -1.3895    1.0244 C   0  0  0  0  0  0  0  0  0  0  0  0
    2.8267    0.4773    1.9017 H   0  0  0  0  0  0  0  0  0  0  0  0
    2.7566   -0.5963    0.4992 H   0  0  0  0  0  0  0  0  0  0  0  0
    2.6693   -1.2637    2.1577 H   0  0  0  0  0  0  0  0  0  0  0  0
    0.8598    1.7082    2.2469 H   0  0  0  0  0  0  0  0  0  0  0  0
   -1.5974    1.9058    2.2025 H   0  0  0  0  0  0  0  0  0  0  0  0
   -2.9794    0.0800    1.4553 H   0  0  0  0  0  0  0  0  0  0  0  0
   -1.6081   -3.1853    0.2048 H   0  0  0  0  0  0  0  0  0  0  0  0
   -3.5068   -4.3938    0.5280 H   0  0  0  0  0  0  0  0  0  0  0  0
   -5.6439   -2.1706   -1.4948 H   0  0  0  0  0  0  0  0  0  0  0  0
   -8.0921   -2.3037   -1.5499 H   0  0  0  0  0  0  0  0  0  0  0  0
   -9.7336   -2.5265    1.6016 H   0  0  0  0  0  0  0  0  0  0  0  0
  -14.5505   -3.4324    0.7826 H   0  0  0  0  0  0  0  0  0  0  0  0
  -14.9301   -5.2122   -1.2710 H   0  0  0  0  0  0  0  0  0  0  0  0
  -10.7465   -6.1393   -2.2448 H   0  0  0  0  0  0  0  0  0  0  0  0
   -9.1128   -5.8838   -1.7996 H   0  0  0  0  0  0  0  0  0  0  0  0
   -7.9627   -5.5890    1.2450 H   0  0  0  0  0  0  0  0  0  0  0  0
   -5.5077   -5.4862    1.2609 H   0  0  0  0  0  0  0  0  0  0  0  0
    0.5436   -2.3053    0.6968 H   0  0  0  0  0  0  0  0  0  0  0  0
  1  2  1  0  0  0  0
  1 28  1  0  0  0  0
  1 29  1  0  0  0  0
  1 30  1  0  0  0  0
  2  3  1  0  0  0  0
  2 27  2  0  0  0  0
  3  4  2  0  0  0  0
  3 31  1  0  0  0  0
  4  5  1  0  0  0  0
  4 32  1  0  0  0  0
  5  6  2  0  0  0  0
  5 33  1  0  0  0  0
  6  7  1  0  0  0  0
  6 27  1  0  0  0  0
  7  8  1  0  0  0  0
  7 34  1  0  0  0  0
  8  9  2  0  0  0  0
  8 10  1  0  0  0  0
 10 11  1  0  0  0  0
 10 35  1  0  0  0  0
 11 12  1  0  0  0  0
 11 26  2  0  0  0  0
 12 13  2  0  0  0  0
 12 36  1  0  0  0  0
 13 14  1  0  0  0  0
 13 37  1  0  0  0  0
 14 15  1  0  0  0  0
 14 25  2  0  0  0  0
 15 16  1  0  0  0  0
 15 23  2  0  0  0  0
 16 17  2  0  0  0  0
 16 38  1  0  0  0  0
 17 18  1  0  0  0  0
 18 19  2  0  0  0  0
 18 22  1  0  0  0  0
 19 20  1  0  0  0  0
 19 39  1  0  0  0  0
 20 21  2  0  0  0  0
 20 40  1  0  0  0  0
 21 22  1  0  0  0  0
 22 23  1  0  0  0  0
 23 24  1  0  0  0  0
 24 41  1  0  0  0  0
 24 42  1  0  0  0  0
 25 26  1  0  0  0  0
 25 43  1  0  0  0  0
 26 44  1  0  0  0  0
 27 45  1  0  0  0  0
M  END
$$$$
