CHEMBL150825
 OpenBabel04072215363D

 43 45  0  0  0  0  0  0  0  0999 V2000
    0.5266   -4.3132    0.2215 C   0  0  0  0  0  0  0  0  0  0  0  0
    1.9392   -4.4195    0.2404 O   0  0  0  0  0  0  0  0  0  0  0  0
    2.5692   -3.2506    0.7732 C   0  0  0  0  0  0  0  0  0  0  0  0
    4.0657   -3.5137    0.7519 C   0  0  0  0  0  0  0  0  0  0  0  0
    4.8211   -2.4300    1.2927 O   0  0  0  0  0  0  0  0  0  0  0  0
    6.1922   -2.6122    1.2641 C   0  0  0  0  0  0  0  0  0  0  0  0
    6.7902   -3.7828    0.7802 C   0  0  0  0  0  0  0  0  0  0  0  0
    8.1590   -3.9447    0.7189 C   0  0  0  0  0  0  0  0  0  0  0  0
    8.6320   -5.1012    0.2283 N   0  0  0  0  0  0  0  0  0  0  0  0
    9.9589   -5.3201    0.1366 N   0  0  0  0  0  0  0  0  0  0  0  0
   10.7979   -4.3432    0.5196 C   0  0  0  0  0  0  0  0  0  0  0  0
   10.3772   -3.1035    0.9992 C   0  0  0  0  0  0  0  0  0  0  0  0
   11.3071   -2.0895    1.3540 N   0  0  0  0  0  0  0  0  0  0  0  0
   12.5733   -1.9130    0.7452 C   0  0  0  0  0  0  0  0  0  0  0  0
   12.7509   -2.1133   -0.6326 C   0  0  0  0  0  0  0  0  0  0  0  0
   14.0179   -2.0119   -1.2086 C   0  0  0  0  0  0  0  0  0  0  0  0
   15.1107   -1.6645   -0.4172 C   0  0  0  0  0  0  0  0  0  0  0  0
   16.6769   -1.5888   -1.1220 Cl  0  0  0  0  0  0  0  0  0  0  0  0
   14.9447   -1.3866    0.9368 C   0  0  0  0  0  0  0  0  0  0  0  0
   13.6788   -1.5036    1.5016 C   0  0  0  0  0  0  0  0  0  0  0  0
   13.5231   -1.2589    2.8121 F   0  0  0  0  0  0  0  0  0  0  0  0
    8.9934   -2.9040    1.1505 C   0  0  0  0  0  0  0  0  0  0  0  0
    8.4013   -1.7224    1.6662 C   0  0  0  0  0  0  0  0  0  0  0  0
    7.0071   -1.5668    1.7166 C   0  0  0  0  0  0  0  0  0  0  0  0
    6.3813   -0.4497    2.2083 O   0  0  0  0  0  0  0  0  0  0  0  0
    7.1453    0.7516    2.2443 C   0  0  0  0  0  0  0  0  0  0  0  0
    0.1220   -5.2397   -0.1958 H   0  0  0  0  0  0  0  0  0  0  0  0
    0.2158   -3.4785   -0.4126 H   0  0  0  0  0  0  0  0  0  0  0  0
    0.1400   -4.1892    1.2368 H   0  0  0  0  0  0  0  0  0  0  0  0
    2.2279   -3.0657    1.7976 H   0  0  0  0  0  0  0  0  0  0  0  0
    2.3261   -2.3758    0.1604 H   0  0  0  0  0  0  0  0  0  0  0  0
    4.3545   -3.6937   -0.2929 H   0  0  0  0  0  0  0  0  0  0  0  0
    4.2515   -4.4257    1.3347 H   0  0  0  0  0  0  0  0  0  0  0  0
    6.2071   -4.6204    0.4152 H   0  0  0  0  0  0  0  0  0  0  0  0
   11.8464   -4.5980    0.4155 H   0  0  0  0  0  0  0  0  0  0  0  0
   11.3652   -1.9870    2.3690 H   0  0  0  0  0  0  0  0  0  0  0  0
   11.9049   -2.3695   -1.2675 H   0  0  0  0  0  0  0  0  0  0  0  0
   14.1405   -2.2145   -2.2696 H   0  0  0  0  0  0  0  0  0  0  0  0
   15.7848   -1.0983    1.5587 H   0  0  0  0  0  0  0  0  0  0  0  0
    9.0553   -0.9337    2.0239 H   0  0  0  0  0  0  0  0  0  0  0  0
    6.4723    1.5719    2.5123 H   0  0  0  0  0  0  0  0  0  0  0  0
    7.5733    0.9784    1.2616 H   0  0  0  0  0  0  0  0  0  0  0  0
    7.9253    0.7049    3.0115 H   0  0  0  0  0  0  0  0  0  0  0  0
  1  2  1  0  0  0  0
  1 27  1  0  0  0  0
  1 28  1  0  0  0  0
  1 29  1  0  0  0  0
  2  3  1  0  0  0  0
  3  4  1  0  0  0  0
  3 30  1  0  0  0  0
  3 31  1  0  0  0  0
  4  5  1  0  0  0  0
  4 32  1  0  0  0  0
  4 33  1  0  0  0  0
  5  6  1  0  0  0  0
  6  7  1  0  0  0  0
  6 24  2  0  0  0  0
  7  8  2  0  0  0  0
  7 34  1  0  0  0  0
  8  9  1  0  0  0  0
  8 22  1  0  0  0  0
  9 10  2  0  0  0  0
 10 11  1  0  0  0  0
 11 12  2  0  0  0  0
 11 35  1  0  0  0  0
 12 13  1  0  0  0  0
 12 22  1  0  0  0  0
 13 14  1  0  0  0  0
 13 36  1  0  0  0  0
 14 15  1  0  0  0  0
 14 20  2  0  0  0  0
 15 16  2  0  0  0  0
 15 37  1  0  0  0  0
 16 17  1  0  0  0  0
 16 38  1  0  0  0  0
 17 18  1  0  0  0  0
 17 19  2  0  0  0  0
 19 20  1  0  0  0  0
 19 39  1  0  0  0  0
 20 21  1  0  0  0  0
 22 23  2  0  0  0  0
 23 24  1  0  0  0  0
 23 40  1  0  0  0  0
 24 25  1  0  0  0  0
 25 26  1  0  0  0  0
 26 41  1  0  0  0  0
 26 42  1  0  0  0  0
 26 43  1  0  0  0  0
M  END
$$$$
