CHEMBL404342
 OpenBabel04072215373D

 42 45  0  0  0  0  0  0  0  0999 V2000
    2.3868   -2.8706    3.3258 N   0  0  0  0  0  0  0  0  0  0  0  0
    3.4750   -2.3775    2.7204 C   0  0  0  0  0  0  0  0  0  0  0  0
    4.4848   -1.9087    3.4504 N   0  0  0  0  0  0  0  0  0  0  0  0
    5.3716   -1.4996    2.5428 N   0  0  0  0  0  0  0  0  0  0  0  0
    4.9825   -1.6924    1.2516 C   0  0  0  0  0  0  0  0  0  0  0  0
    5.6368   -1.3887    0.0689 C   0  0  0  0  0  0  0  0  0  0  0  0
    5.0421   -1.6918   -1.0973 N   0  0  0  0  0  0  0  0  0  0  0  0
    3.8218   -2.2820   -1.0643 C   0  0  0  0  0  0  0  0  0  0  0  0
    3.0727   -2.6111    0.0799 C   0  0  0  0  0  0  0  0  0  0  0  0
    1.7411   -3.2384   -0.0317 C   0  0  0  0  0  0  0  0  0  0  0  0
    1.3328   -4.2750    0.8147 C   0  0  0  0  0  0  0  0  0  0  0  0
    0.0446   -4.8194    0.7442 C   0  0  0  0  0  0  0  0  0  0  0  0
   -0.8551   -4.4052   -0.2377 C   0  0  0  0  0  0  0  0  0  0  0  0
   -2.1430   -4.9710   -0.3614 N   0  0  0  0  0  0  0  0  0  0  0  0
   -2.8453   -5.5221    0.6936 C   0  0  0  0  0  0  0  0  0  0  0  0
   -2.5645   -5.3666    1.8767 O   0  0  0  0  0  0  0  0  0  0  0  0
   -3.8962   -6.3146    0.2450 N   0  0  0  0  0  0  0  0  0  0  0  0
   -4.7579   -6.9738    1.1519 C   0  0  0  0  0  0  0  0  0  0  0  0
   -5.0776   -8.3157    0.9234 C   0  0  0  0  0  0  0  0  0  0  0  0
   -5.8917   -9.0067    1.8255 C   0  0  0  0  0  0  0  0  0  0  0  0
   -6.4317   -8.3441    2.9281 C   0  0  0  0  0  0  0  0  0  0  0  0
   -6.1416   -6.9968    3.1339 C   0  0  0  0  0  0  0  0  0  0  0  0
   -6.8408   -6.1703    4.4727 Cl  0  0  0  0  0  0  0  0  0  0  0  0
   -5.2973   -6.3126    2.2604 C   0  0  0  0  0  0  0  0  0  0  0  0
   -0.4408   -3.4445   -1.1567 C   0  0  0  0  0  0  0  0  0  0  0  0
    0.8276   -2.8511   -1.0347 C   0  0  0  0  0  0  0  0  0  0  0  0
    3.7172   -2.2872    1.3069 C   0  0  0  0  0  0  0  0  0  0  0  0
    2.3356   -2.7394    4.3306 H   0  0  0  0  0  0  0  0  0  0  0  0
    1.4807   -2.8532    2.8737 H   0  0  0  0  0  0  0  0  0  0  0  0
    6.2389   -1.0894    2.8749 H   0  0  0  0  0  0  0  0  0  0  0  0
    6.6129   -0.9219    0.0225 H   0  0  0  0  0  0  0  0  0  0  0  0
    3.4366   -2.5083   -2.0560 H   0  0  0  0  0  0  0  0  0  0  0  0
    2.0138   -4.6814    1.5606 H   0  0  0  0  0  0  0  0  0  0  0  0
   -0.2219   -5.5907    1.4628 H   0  0  0  0  0  0  0  0  0  0  0  0
   -2.7023   -4.6963   -1.1564 H   0  0  0  0  0  0  0  0  0  0  0  0
   -3.6904   -6.8004   -0.6165 H   0  0  0  0  0  0  0  0  0  0  0  0
   -4.6537   -8.8542    0.0805 H   0  0  0  0  0  0  0  0  0  0  0  0
   -6.0964  -10.0641    1.6759 H   0  0  0  0  0  0  0  0  0  0  0  0
   -7.0723   -8.8807    3.6227 H   0  0  0  0  0  0  0  0  0  0  0  0
   -5.0728   -5.2642    2.4402 H   0  0  0  0  0  0  0  0  0  0  0  0
   -1.0987   -3.1139   -1.9559 H   0  0  0  0  0  0  0  0  0  0  0  0
    1.0894   -2.0674   -1.7442 H   0  0  0  0  0  0  0  0  0  0  0  0
  1  2  1  0  0  0  0
  1 28  1  0  0  0  0
  1 29  1  0  0  0  0
  2  3  2  0  0  0  0
  2 27  1  0  0  0  0
  3  4  1  0  0  0  0
  4  5  1  0  0  0  0
  4 30  1  0  0  0  0
  5  6  1  0  0  0  0
  5 27  2  0  0  0  0
  6  7  2  0  0  0  0
  6 31  1  0  0  0  0
  7  8  1  0  0  0  0
  8  9  2  0  0  0  0
  8 32  1  0  0  0  0
  9 10  1  0  0  0  0
  9 27  1  0  0  0  0
 10 11  1  0  0  0  0
 10 26  2  0  0  0  0
 11 12  2  0  0  0  0
 11 33  1  0  0  0  0
 12 13  1  0  0  0  0
 12 34  1  0  0  0  0
 13 14  1  0  0  0  0
 13 25  2  0  0  0  0
 14 15  1  0  0  0  0
 14 35  1  0  0  0  0
 15 16  2  0  0  0  0
 15 17  1  0  0  0  0
 17 18  1  0  0  0  0
 17 36  1  0  0  0  0
 18 19  1  0  0  0  0
 18 24  2  0  0  0  0
 19 20  2  0  0  0  0
 19 37  1  0  0  0  0
 20 21  1  0  0  0  0
 20 38  1  0  0  0  0
 21 22  2  0  0  0  0
 21 39  1  0  0  0  0
 22 23  1  0  0  0  0
 22 24  1  0  0  0  0
 24 40  1  0  0  0  0
 25 26  1  0  0  0  0
 25 41  1  0  0  0  0
 26 42  1  0  0  0  0
M  END
$$$$
