CHEMBL1993877
 OpenBabel04072215363D

 31 33  0  0  0  0  0  0  0  0999 V2000
    1.0938   -0.1827    0.0815 C   0  0  0  0  0  0  0  0  0  0  0  0
    2.2948   -0.1666    0.0779 C   0  0  0  0  0  0  0  0  0  0  0  0
    3.7165   -0.1078    0.0675 C   0  0  0  0  0  0  0  0  0  0  0  0
    4.5437   -1.2083    0.0629 C   0  0  0  0  0  0  0  0  0  0  0  0
    5.8449   -0.7598    0.0673 N   0  0  0  0  0  0  0  0  0  0  0  0
    7.0262   -1.6009    0.0935 C   0  0  0  0  0  0  0  0  0  0  0  0
    7.1162   -2.6003   -1.0635 C   0  0  0  0  0  0  0  0  0  0  0  0
    8.0703   -3.6900   -0.5777 C   0  0  0  0  0  0  0  0  0  0  0  0
    8.1725   -3.5391    0.9391 C   0  0  0  0  0  0  0  0  0  0  0  0
    7.1330   -2.4958    1.3310 C   0  0  0  0  0  0  0  0  0  0  0  0
    5.8488    0.6180    0.0603 C   0  0  0  0  0  0  0  0  0  0  0  0
    6.9434    1.4036    0.0562 N   0  0  0  0  0  0  0  0  0  0  0  0
    6.6174    2.7061    0.0663 C   0  0  0  0  0  0  0  0  0  0  0  0
    5.3917    3.2636    0.0819 N   0  0  0  0  0  0  0  0  0  0  0  0
    4.3206    2.4456    0.0941 C   0  0  0  0  0  0  0  0  0  0  0  0
    3.0791    3.0357    0.1502 N   0  0  0  0  0  0  0  0  0  0  0  0
    4.5290    1.0568    0.0712 C   0  0  0  0  0  0  0  0  0  0  0  0
    0.0261   -0.1714    0.0902 H   0  0  0  0  0  0  0  0  0  0  0  0
    4.3134   -2.2651    0.0640 H   0  0  0  0  0  0  0  0  0  0  0  0
    7.9096   -0.9507    0.0581 H   0  0  0  0  0  0  0  0  0  0  0  0
    7.4746   -2.1268   -1.9835 H   0  0  0  0  0  0  0  0  0  0  0  0
    6.1434   -3.0511   -1.2922 H   0  0  0  0  0  0  0  0  0  0  0  0
    9.0590   -3.5758   -1.0358 H   0  0  0  0  0  0  0  0  0  0  0  0
    7.6974   -4.6822   -0.8549 H   0  0  0  0  0  0  0  0  0  0  0  0
    9.1766   -3.1905    1.2075 H   0  0  0  0  0  0  0  0  0  0  0  0
    8.0079   -4.4901    1.4563 H   0  0  0  0  0  0  0  0  0  0  0  0
    7.4355   -1.9356    2.2219 H   0  0  0  0  0  0  0  0  0  0  0  0
    6.1822   -2.9910    1.5602 H   0  0  0  0  0  0  0  0  0  0  0  0
    7.4501    3.4056    0.0670 H   0  0  0  0  0  0  0  0  0  0  0  0
    3.0524    4.0398    0.0530 H   0  0  0  0  0  0  0  0  0  0  0  0
    2.2441    2.4847    0.0359 H   0  0  0  0  0  0  0  0  0  0  0  0
  1  2  3  0  0  0  0
  1 18  1  0  0  0  0
  2  3  1  0  0  0  0
  3  4  2  0  0  0  0
  3 17  1  0  0  0  0
  4  5  1  0  0  0  0
  4 19  1  0  0  0  0
  5  6  1  0  0  0  0
  5 11  1  0  0  0  0
  6  7  1  0  0  0  0
  6 10  1  0  0  0  0
  6 20  1  0  0  0  0
  7  8  1  0  0  0  0
  7 21  1  0  0  0  0
  7 22  1  0  0  0  0
  8  9  1  0  0  0  0
  8 23  1  0  0  0  0
  8 24  1  0  0  0  0
  9 10  1  0  0  0  0
  9 25  1  0  0  0  0
  9 26  1  0  0  0  0
 10 27  1  0  0  0  0
 10 28  1  0  0  0  0
 11 12  1  0  0  0  0
 11 17  2  0  0  0  0
 12 13  2  0  0  0  0
 13 14  1  0  0  0  0
 13 29  1  0  0  0  0
 14 15  2  0  0  0  0
 15 16  1  0  0  0  0
 15 17  1  0  0  0  0
 16 30  1  0  0  0  0
 16 31  1  0  0  0  0
M  END
$$$$
