CHEMBL3940859
 OpenBabel04072215373D

 54 58  0  0  1  0  0  0  0  0999 V2000
    2.7323   -1.3499    0.4504 N   0  0  0  0  0  0  0  0  0  0  0  0
    2.3478   -0.0878    0.0710 C   0  0  0  0  0  0  0  0  0  0  0  0
    1.3906    0.4675    0.5998 O   0  0  0  0  0  0  0  0  0  0  0  0
    3.1516    0.5603   -1.0014 C   0  0  0  0  0  0  0  0  0  0  0  0
    4.1746   -0.1806   -1.4921 N   0  0  0  0  0  0  0  0  0  0  0  0
    4.9400    0.3506   -2.4831 N   0  0  0  0  0  0  0  0  0  0  0  0
    4.6790    1.5901   -2.9483 C   0  0  0  0  0  0  0  0  0  0  0  0
    5.4155    2.1391   -3.9915 N   0  0  0  0  0  0  0  0  0  0  0  0
    6.7771    1.6405   -4.2436 C   0  0  2  0  0  0  0  0  0  0  0  0
    7.7732    2.0854   -3.1682 C   0  0  0  0  0  0  0  0  0  0  0  0
    8.1355    3.5571   -3.2990 C   0  0  0  0  0  0  0  0  0  0  0  0
    8.6393    3.8448   -4.5999 O   0  0  0  0  0  0  0  0  0  0  0  0
    7.6871    3.5782   -5.6320 C   0  0  0  0  0  0  0  0  0  0  0  0
    7.2877    2.0933   -5.6464 C   0  0  2  0  0  0  0  0  0  0  0  0
    6.3286    1.8083   -6.7288 N   0  0  0  0  0  0  0  0  0  0  0  0
    3.6926    2.3554   -2.4522 N   0  0  0  0  0  0  0  0  0  0  0  0
    2.8995    1.8508   -1.4671 C   0  0  0  0  0  0  0  0  0  0  0  0
    1.8377    2.6304   -0.9255 N   0  0  0  0  0  0  0  0  0  0  0  0
    1.6274    4.0234   -0.8905 C   0  0  0  0  0  0  0  0  0  0  0  0
    2.2805    4.9034   -1.7699 C   0  0  0  0  0  0  0  0  0  0  0  0
    2.1976    6.2893   -1.6411 C   0  0  0  0  0  0  0  0  0  0  0  0
    1.4426    6.8680   -0.6278 C   0  0  0  0  0  0  0  0  0  0  0  0
    0.6962    6.0179    0.2023 C   0  0  0  0  0  0  0  0  0  0  0  0
    0.7428    4.6195    0.0593 C   0  0  0  0  0  0  0  0  0  0  0  0
   -0.1938    4.0896    1.0016 C   0  0  0  0  0  0  0  0  0  0  0  0
   -0.7652    5.1449    1.6862 C   0  0  0  0  0  0  0  0  0  0  0  0
   -0.1572    6.2896    1.2533 N   0  0  0  0  0  0  0  0  0  0  0  0
   -0.3523    7.6068    1.8465 C   0  0  0  0  0  0  0  0  0  0  0  0
   -0.6644    7.7716    3.3290 C   0  0  0  0  0  0  0  0  0  0  0  0
   -1.7061    8.1064    2.3199 C   0  0  0  0  0  0  0  0  0  0  0  0
    2.2117   -1.8285    1.1736 H   0  0  0  0  0  0  0  0  0  0  0  0
    3.5290   -1.8105    0.0246 H   0  0  0  0  0  0  0  0  0  0  0  0
    5.2662    3.1425   -3.9978 H   0  0  0  0  0  0  0  0  0  0  0  0
    6.7455    0.5425   -4.2615 H   0  0  0  0  0  0  0  0  0  0  0  0
    8.6910    1.4970   -3.3061 H   0  0  0  0  0  0  0  0  0  0  0  0
    7.4057    1.8755   -2.1599 H   0  0  0  0  0  0  0  0  0  0  0  0
    8.9269    3.8018   -2.5828 H   0  0  0  0  0  0  0  0  0  0  0  0
    7.2822    4.2080   -3.0803 H   0  0  0  0  0  0  0  0  0  0  0  0
    8.1629    3.8448   -6.5830 H   0  0  0  0  0  0  0  0  0  0  0  0
    6.8208    4.2390   -5.5075 H   0  0  0  0  0  0  0  0  0  0  0  0
    8.2028    1.5219   -5.8542 H   0  0  0  0  0  0  0  0  0  0  0  0
    5.4026    2.1113   -6.4151 H   0  0  0  0  0  0  0  0  0  0  0  0
    6.2406    0.7960   -6.8271 H   0  0  0  0  0  0  0  0  0  0  0  0
    1.3353    2.1376   -0.1767 H   0  0  0  0  0  0  0  0  0  0  0  0
    2.8810    4.5154   -2.5856 H   0  0  0  0  0  0  0  0  0  0  0  0
    2.7489    6.9195   -2.3341 H   0  0  0  0  0  0  0  0  0  0  0  0
    1.4127    7.9487   -0.5188 H   0  0  0  0  0  0  0  0  0  0  0  0
   -0.4496    3.0478    1.1477 H   0  0  0  0  0  0  0  0  0  0  0  0
   -1.5190    5.1558    2.4586 H   0  0  0  0  0  0  0  0  0  0  0  0
    0.2932    8.3661    1.4142 H   0  0  0  0  0  0  0  0  0  0  0  0
   -0.1868    8.5886    3.8599 H   0  0  0  0  0  0  0  0  0  0  0  0
   -0.8194    6.8949    3.9457 H   0  0  0  0  0  0  0  0  0  0  0  0
   -1.9389    9.1557    2.1693 H   0  0  0  0  0  0  0  0  0  0  0  0
   -2.5699    7.4573    2.2356 H   0  0  0  0  0  0  0  0  0  0  0  0
  1  2  1  0  0  0  0
  1 31  1  0  0  0  0
  1 32  1  0  0  0  0
  2  3  2  0  0  0  0
  2  4  1  0  0  0  0
  4  5  1  0  0  0  0
  4 17  2  0  0  0  0
  5  6  2  0  0  0  0
  6  7  1  0  0  0  0
  7  8  1  0  0  0  0
  7 16  2  0  0  0  0
  8  9  1  0  0  0  0
  8 33  1  0  0  0  0
  9 10  1  0  0  0  0
  9 14  1  0  0  0  0
  9 34  1  1  0  0  0
 10 11  1  0  0  0  0
 10 35  1  0  0  0  0
 10 36  1  0  0  0  0
 11 12  1  0  0  0  0
 11 37  1  0  0  0  0
 11 38  1  0  0  0  0
 12 13  1  0  0  0  0
 13 14  1  0  0  0  0
 13 39  1  0  0  0  0
 13 40  1  0  0  0  0
 14 15  1  0  0  0  0
 14 41  1  6  0  0  0
 15 42  1  0  0  0  0
 15 43  1  0  0  0  0
 16 17  1  0  0  0  0
 17 18  1  0  0  0  0
 18 19  1  0  0  0  0
 18 44  1  0  0  0  0
 19 20  1  0  0  0  0
 19 24  2  0  0  0  0
 20 21  2  0  0  0  0
 20 45  1  0  0  0  0
 21 22  1  0  0  0  0
 21 46  1  0  0  0  0
 22 23  2  0  0  0  0
 22 47  1  0  0  0  0
 23 24  1  0  0  0  0
 23 27  1  0  0  0  0
 24 25  1  0  0  0  0
 25 26  2  0  0  0  0
 25 48  1  0  0  0  0
 26 27  1  0  0  0  0
 26 49  1  0  0  0  0
 27 28  1  0  0  0  0
 28 29  1  0  0  0  0
 28 30  1  0  0  0  0
 28 50  1  0  0  0  0
 29 30  1  0  0  0  0
 29 51  1  0  0  0  0
 29 52  1  0  0  0  0
 30 53  1  0  0  0  0
 30 54  1  0  0  0  0
M  END
$$$$
