CHEMBL497114
 OpenBabel04072215383D

 36 39  0  0  0  0  0  0  0  0999 V2000
    0.8386   -1.5929   -1.5907 N   0  0  0  0  0  0  0  0  0  0  0  0
    1.7978   -1.3609   -0.6275 C   0  0  0  0  0  0  0  0  0  0  0  0
    2.1771   -2.3978    0.1223 N   0  0  0  0  0  0  0  0  0  0  0  0
    3.1122   -2.1515    1.0557 C   0  0  0  0  0  0  0  0  0  0  0  0
    3.6630   -0.9118    1.2667 C   0  0  0  0  0  0  0  0  0  0  0  0
    3.1907    0.0960    0.4541 C   0  0  0  0  0  0  0  0  0  0  0  0
    3.7290    1.4590    0.5842 C   0  0  0  0  0  0  0  0  0  0  0  0
    3.3410    2.4857   -0.1879 C   0  0  0  0  0  0  0  0  0  0  0  0
    3.9296    3.7600   -0.0232 C   0  0  0  0  0  0  0  0  0  0  0  0
    3.6876    4.8956    0.7543 C   0  0  0  0  0  0  0  0  0  0  0  0
    2.6081    5.0889    1.7126 C   0  0  0  0  0  0  0  0  0  0  0  0
    2.8176    5.9149    2.8259 C   0  0  0  0  0  0  0  0  0  0  0  0
    1.7862    6.1613    3.7366 C   0  0  0  0  0  0  0  0  0  0  0  0
    0.5318    5.5886    3.5392 C   0  0  0  0  0  0  0  0  0  0  0  0
    0.3099    4.7648    2.4382 C   0  0  0  0  0  0  0  0  0  0  0  0
    1.3422    4.5170    1.5291 C   0  0  0  0  0  0  0  0  0  0  0  0
    4.6336    5.8867    0.5148 N   0  0  0  0  0  0  0  0  0  0  0  0
    5.3838    5.3688   -0.4145 C   0  0  0  0  0  0  0  0  0  0  0  0
    6.7654    5.9148   -1.3141 S   0  0  0  0  0  0  0  0  0  0  0  0
    6.7894    4.3558   -2.1562 C   0  0  0  0  0  0  0  0  0  0  0  0
    5.8109    3.5288   -1.7540 C   0  0  0  0  0  0  0  0  0  0  0  0
    5.0230    4.1070   -0.7781 N   0  0  0  0  0  0  0  0  0  0  0  0
    2.2522   -0.1131   -0.4919 N   0  0  0  0  0  0  0  0  0  0  0  0
    0.3060   -2.4161   -1.3466 H   0  0  0  0  0  0  0  0  0  0  0  0
    0.3239   -0.7446   -1.7770 H   0  0  0  0  0  0  0  0  0  0  0  0
    3.4176   -3.0113    1.6446 H   0  0  0  0  0  0  0  0  0  0  0  0
    4.4202   -0.7537    2.0219 H   0  0  0  0  0  0  0  0  0  0  0  0
    4.4897    1.6043    1.3473 H   0  0  0  0  0  0  0  0  0  0  0  0
    2.5788    2.3632   -0.9547 H   0  0  0  0  0  0  0  0  0  0  0  0
    3.7887    6.3815    2.9830 H   0  0  0  0  0  0  0  0  0  0  0  0
    1.9615    6.8105    4.5903 H   0  0  0  0  0  0  0  0  0  0  0  0
   -0.2760    5.7926    4.2372 H   0  0  0  0  0  0  0  0  0  0  0  0
   -0.6702    4.3246    2.2754 H   0  0  0  0  0  0  0  0  0  0  0  0
    1.1298    3.8953    0.6645 H   0  0  0  0  0  0  0  0  0  0  0  0
    7.5324    4.1336   -2.9112 H   0  0  0  0  0  0  0  0  0  0  0  0
    5.6101    2.5289   -2.1070 H   0  0  0  0  0  0  0  0  0  0  0  0
  1  2  1  0  0  0  0
  1 24  1  0  0  0  0
  1 25  1  0  0  0  0
  2  3  1  0  0  0  0
  2 23  2  0  0  0  0
  3  4  2  0  0  0  0
  4  5  1  0  0  0  0
  4 26  1  0  0  0  0
  5  6  2  0  0  0  0
  5 27  1  0  0  0  0
  6  7  1  0  0  0  0
  6 23  1  0  0  0  0
  7  8  2  0  0  0  0
  7 28  1  0  0  0  0
  8  9  1  0  0  0  0
  8 29  1  0  0  0  0
  9 10  2  0  0  0  0
  9 22  1  0  0  0  0
 10 11  1  0  0  0  0
 10 17  1  0  0  0  0
 11 12  1  0  0  0  0
 11 16  2  0  0  0  0
 12 13  2  0  0  0  0
 12 30  1  0  0  0  0
 13 14  1  0  0  0  0
 13 31  1  0  0  0  0
 14 15  2  0  0  0  0
 14 32  1  0  0  0  0
 15 16  1  0  0  0  0
 15 33  1  0  0  0  0
 16 34  1  0  0  0  0
 17 18  2  0  0  0  0
 18 19  1  0  0  0  0
 18 22  1  0  0  0  0
 19 20  1  0  0  0  0
 20 21  2  0  0  0  0
 20 35  1  0  0  0  0
 21 22  1  0  0  0  0
 21 36  1  0  0  0  0
M  END
$$$$
