CHEMBL1934322
 OpenBabel04072215363D

 67 71  0  0  0  0  0  0  0  0999 V2000
    5.4817   -5.0663    0.7246 C   0  0  0  0  0  0  0  0  0  0  0  0
    4.4033   -4.0990    0.9465 N   0  0  0  0  0  0  0  0  0  0  0  0
    4.7202   -2.8290    0.2781 C   0  0  0  0  0  0  0  0  0  0  0  0
    3.6016   -1.7988    0.4525 C   0  0  0  0  0  0  0  0  0  0  0  0
    2.2488   -2.3344   -0.0244 C   0  0  0  0  0  0  0  0  0  0  0  0
    2.2055   -2.5464   -1.5400 C   0  0  0  0  0  0  0  0  0  0  0  0
    2.4254   -1.3356   -2.2680 O   0  0  0  0  0  0  0  0  0  0  0  0
    2.4800   -1.5135   -3.6295 C   0  0  0  0  0  0  0  0  0  0  0  0
    2.6963   -0.3800   -4.4037 C   0  0  0  0  0  0  0  0  0  0  0  0
    2.7540   -0.4886   -5.7939 C   0  0  0  0  0  0  0  0  0  0  0  0
    2.6227   -1.7583   -6.4325 C   0  0  0  0  0  0  0  0  0  0  0  0
    2.6723   -2.0174   -7.8156 C   0  0  0  0  0  0  0  0  0  0  0  0
    2.7435   -0.9377   -8.7317 N   0  0  0  0  0  0  0  0  0  0  0  0
    2.6370   -0.9971  -10.1394 C   0  0  0  0  0  0  0  0  0  0  0  0
    1.9137   -2.0044  -10.7894 C   0  0  0  0  0  0  0  0  0  0  0  0
    1.8471   -2.0790  -12.1794 C   0  0  0  0  0  0  0  0  0  0  0  0
    2.4728   -1.1157  -12.9710 C   0  0  0  0  0  0  0  0  0  0  0  0
    2.5096   -1.3089  -14.4659 C   0  0  0  0  0  0  0  0  0  0  0  0
    1.9502   -0.1862  -15.3084 C   0  0  0  0  0  0  0  0  0  0  0  0
    2.6138    0.2886  -16.2323 O   0  0  0  0  0  0  0  0  0  0  0  0
    0.6564    0.2028  -14.9915 N   0  0  0  0  0  0  0  0  0  0  0  0
    0.0005    1.2079  -15.7294 C   0  0  0  0  0  0  0  0  0  0  0  0
   -0.0292    1.1803  -17.1315 C   0  0  0  0  0  0  0  0  0  0  0  0
   -0.6392    2.2156  -17.8446 C   0  0  0  0  0  0  0  0  0  0  0  0
   -1.1917    3.2849  -17.1506 C   0  0  0  0  0  0  0  0  0  0  0  0
   -1.7392    4.3003  -17.8335 F   0  0  0  0  0  0  0  0  0  0  0  0
   -1.1707    3.3059  -15.7604 C   0  0  0  0  0  0  0  0  0  0  0  0
   -1.6758    4.3552  -15.0965 F   0  0  0  0  0  0  0  0  0  0  0  0
   -0.6060    2.2552  -15.0408 C   0  0  0  0  0  0  0  0  0  0  0  0
    3.1419   -0.0613  -12.3377 C   0  0  0  0  0  0  0  0  0  0  0  0
    3.2124    0.0021  -10.9352 C   0  0  0  0  0  0  0  0  0  0  0  0
    2.5660   -3.2737   -8.2886 N   0  0  0  0  0  0  0  0  0  0  0  0
    2.3706   -4.2651   -7.4182 C   0  0  0  0  0  0  0  0  0  0  0  0
    2.2794   -4.1283   -6.1027 N   0  0  0  0  0  0  0  0  0  0  0  0
    2.4157   -2.8856   -5.6338 C   0  0  0  0  0  0  0  0  0  0  0  0
    2.3259   -2.7464   -4.2684 C   0  0  0  0  0  0  0  0  0  0  0  0
    1.9652   -3.6667    0.6866 C   0  0  0  0  0  0  0  0  0  0  0  0
    3.1177   -4.6679    0.5244 C   0  0  0  0  0  0  0  0  0  0  0  0
    6.4364   -4.6686    1.0862 H   0  0  0  0  0  0  0  0  0  0  0  0
    5.5950   -5.3203   -0.3358 H   0  0  0  0  0  0  0  0  0  0  0  0
    5.2921   -5.9904    1.2821 H   0  0  0  0  0  0  0  0  0  0  0  0
    4.9255   -2.9852   -0.7876 H   0  0  0  0  0  0  0  0  0  0  0  0
    5.6347   -2.4091    0.7158 H   0  0  0  0  0  0  0  0  0  0  0  0
    3.8618   -0.8758   -0.0790 H   0  0  0  0  0  0  0  0  0  0  0  0
    3.5223   -1.5330    1.5158 H   0  0  0  0  0  0  0  0  0  0  0  0
    1.4750   -1.6035    0.2407 H   0  0  0  0  0  0  0  0  0  0  0  0
    1.2145   -2.9429   -1.8015 H   0  0  0  0  0  0  0  0  0  0  0  0
    2.9726   -3.2744   -1.8208 H   0  0  0  0  0  0  0  0  0  0  0  0
    2.8171    0.5898   -3.9251 H   0  0  0  0  0  0  0  0  0  0  0  0
    2.9032    0.4127   -6.3780 H   0  0  0  0  0  0  0  0  0  0  0  0
    3.3907   -0.2267   -8.4184 H   0  0  0  0  0  0  0  0  0  0  0  0
    1.4056   -2.7797  -10.2225 H   0  0  0  0  0  0  0  0  0  0  0  0
    1.3257   -2.9227  -12.6266 H   0  0  0  0  0  0  0  0  0  0  0  0
    1.9687   -2.2198  -14.7512 H   0  0  0  0  0  0  0  0  0  0  0  0
    3.5563   -1.4672  -14.7561 H   0  0  0  0  0  0  0  0  0  0  0  0
    0.3929    0.0849  -14.0192 H   0  0  0  0  0  0  0  0  0  0  0  0
    0.4125    0.3505  -17.6788 H   0  0  0  0  0  0  0  0  0  0  0  0
   -0.6691    2.2004  -18.9295 H   0  0  0  0  0  0  0  0  0  0  0  0
   -0.5809    2.3155  -13.9570 H   0  0  0  0  0  0  0  0  0  0  0  0
    3.6468    0.7057  -12.9246 H   0  0  0  0  0  0  0  0  0  0  0  0
    3.7578    0.8236  -10.4766 H   0  0  0  0  0  0  0  0  0  0  0  0
    2.2563   -5.2694   -7.8207 H   0  0  0  0  0  0  0  0  0  0  0  0
    2.1316   -3.6601   -3.7164 H   0  0  0  0  0  0  0  0  0  0  0  0
    1.0405   -4.1134    0.3007 H   0  0  0  0  0  0  0  0  0  0  0  0
    1.7994   -3.4778    1.7546 H   0  0  0  0  0  0  0  0  0  0  0  0
    3.1660   -5.0183   -0.5143 H   0  0  0  0  0  0  0  0  0  0  0  0
    2.8884   -5.5476    1.1368 H   0  0  0  0  0  0  0  0  0  0  0  0
  1  2  1  0  0  0  0
  1 39  1  0  0  0  0
  1 40  1  0  0  0  0
  1 41  1  0  0  0  0
  2  3  1  0  0  0  0
  2 38  1  0  0  0  0
  3  4  1  0  0  0  0
  3 42  1  0  0  0  0
  3 43  1  0  0  0  0
  4  5  1  0  0  0  0
  4 44  1  0  0  0  0
  4 45  1  0  0  0  0
  5  6  1  0  0  0  0
  5 37  1  0  0  0  0
  5 46  1  0  0  0  0
  6  7  1  0  0  0  0
  6 47  1  0  0  0  0
  6 48  1  0  0  0  0
  7  8  1  0  0  0  0
  8  9  1  0  0  0  0
  8 36  2  0  0  0  0
  9 10  2  0  0  0  0
  9 49  1  0  0  0  0
 10 11  1  0  0  0  0
 10 50  1  0  0  0  0
 11 12  1  0  0  0  0
 11 35  2  0  0  0  0
 12 13  1  0  0  0  0
 12 32  2  0  0  0  0
 13 14  1  0  0  0  0
 13 51  1  0  0  0  0
 14 15  1  0  0  0  0
 14 31  2  0  0  0  0
 15 16  2  0  0  0  0
 15 52  1  0  0  0  0
 16 17  1  0  0  0  0
 16 53  1  0  0  0  0
 17 18  1  0  0  0  0
 17 30  2  0  0  0  0
 18 19  1  0  0  0  0
 18 54  1  0  0  0  0
 18 55  1  0  0  0  0
 19 20  2  0  0  0  0
 19 21  1  0  0  0  0
 21 22  1  0  0  0  0
 21 56  1  0  0  0  0
 22 23  1  0  0  0  0
 22 29  2  0  0  0  0
 23 24  2  0  0  0  0
 23 57  1  0  0  0  0
 24 25  1  0  0  0  0
 24 58  1  0  0  0  0
 25 26  1  0  0  0  0
 25 27  2  0  0  0  0
 27 28  1  0  0  0  0
 27 29  1  0  0  0  0
 29 59  1  0  0  0  0
 30 31  1  0  0  0  0
 30 60  1  0  0  0  0
 31 61  1  0  0  0  0
 32 33  1  0  0  0  0
 33 34  2  0  0  0  0
 33 62  1  0  0  0  0
 34 35  1  0  0  0  0
 35 36  1  0  0  0  0
 36 63  1  0  0  0  0
 37 38  1  0  0  0  0
 37 64  1  0  0  0  0
 37 65  1  0  0  0  0
 38 66  1  0  0  0  0
 38 67  1  0  0  0  0
M  END
$$$$
