CHEMBL4637057
 OpenBabel04072215383D

 93 93  0  0  0  0  0  0  0  0999 V2000
    0.2208  -10.7280    8.2611 C   0  0  0  0  0  0  0  0  0  0  0  0
    0.1682   -9.8704    7.0012 C   0  0  0  0  0  0  0  0  0  0  0  0
   -0.9263  -10.2845    6.1260 N   0  0  0  0  0  0  0  0  0  0  0  0
   -0.9892   -9.2243    4.6980 S   0  0  0  0  0  0  0  0  0  0  0  0
    0.3972   -9.3019    4.0416 O   0  0  0  0  0  0  0  0  0  0  0  0
   -1.8290  -10.0392    3.7023 O   0  0  0  0  0  0  0  0  0  0  0  0
   -1.7067   -7.5735    4.9028 C   0  0  0  0  0  0  0  0  0  0  0  0
   -2.9815   -7.5312    5.4958 C   0  0  0  0  0  0  0  0  0  0  0  0
   -3.6460   -6.3204    5.6882 C   0  0  0  0  0  0  0  0  0  0  0  0
   -3.0493   -5.1298    5.2923 C   0  0  0  0  0  0  0  0  0  0  0  0
   -1.7983   -5.1462    4.6855 C   0  0  0  0  0  0  0  0  0  0  0  0
   -1.1068   -6.3584    4.4624 C   0  0  0  0  0  0  0  0  0  0  0  0
    0.1824   -6.3067    3.8517 N   0  0  0  0  0  0  0  0  0  0  0  0
    0.5699   -5.2378    2.9791 C   0  0  0  0  0  0  0  0  0  0  0  0
   -0.3410   -4.6038    2.1952 N   0  0  0  0  0  0  0  0  0  0  0  0
    0.0644   -3.6031    1.3676 C   0  0  0  0  0  0  0  0  0  0  0  0
    1.3676   -3.2040    1.3480 N   0  0  0  0  0  0  0  0  0  0  0  0
    2.2841   -3.8268    2.1306 C   0  0  0  0  0  0  0  0  0  0  0  0
    3.6753   -3.4230    2.0741 N   0  0  0  0  0  0  0  0  0  0  0  0
    4.7764   -4.2928    2.3974 C   0  0  0  0  0  0  0  0  0  0  0  0
    6.0290   -4.1384    1.8030 C   0  0  0  0  0  0  0  0  0  0  0  0
    7.0147   -5.1266    1.9750 C   0  0  0  0  0  0  0  0  0  0  0  0
    6.7714   -6.3033    2.7361 C   0  0  0  0  0  0  0  0  0  0  0  0
    7.7499   -7.3707    2.7351 N   0  0  0  0  0  0  0  0  0  0  0  0
    7.3532   -8.7728    2.6187 C   0  0  0  0  0  0  0  0  0  0  0  0
    8.2400   -9.6381    3.5177 C   0  0  0  0  0  0  0  0  0  0  0  0
    9.6528   -9.3808    3.1688 N   0  0  0  0  0  0  0  0  0  0  0  0
   10.5648  -10.2974    3.8550 C   0  0  0  0  0  0  0  0  0  0  0  0
    9.9893   -7.9695    3.4456 C   0  0  0  0  0  0  0  0  0  0  0  0
    9.1591   -7.0861    2.5162 C   0  0  0  0  0  0  0  0  0  0  0  0
    5.5241   -6.4040    3.4191 C   0  0  0  0  0  0  0  0  0  0  0  0
    5.1694   -7.4498    4.2402 O   0  0  0  0  0  0  0  0  0  0  0  0
    3.8752   -7.5565    4.7703 C   0  0  0  0  0  0  0  0  0  0  0  0
    3.6720   -8.6583    5.7759 C   0  0  0  0  0  0  0  0  0  0  0  0
    4.6315   -8.6010    6.8932 N   0  0  0  0  0  0  0  0  0  0  0  0
    4.6154   -7.3175    7.6382 C   0  0  0  0  0  0  0  0  0  0  0  0
    5.6928   -7.3496    8.7263 C   0  0  0  0  0  0  0  0  0  0  0  0
    5.5090   -8.4871    9.6481 N   0  0  0  0  0  0  0  0  0  0  0  0
    4.3962   -8.2739   10.5887 C   0  0  0  0  0  0  0  0  0  0  0  0
    5.4003   -9.7607    8.9059 C   0  0  0  0  0  0  0  0  0  0  0  0
    4.3249   -9.7010    7.8209 C   0  0  0  0  0  0  0  0  0  0  0  0
    4.6054   -5.3707    3.2351 C   0  0  0  0  0  0  0  0  0  0  0  0
    1.8563   -4.8611    2.9036 N   0  0  0  0  0  0  0  0  0  0  0  0
    0.9762   -1.2194    4.0203 Cl  0  0  0  0  0  0  0  0  0  0  0  0
    2.3787    2.7004    2.5732 Cl  0  0  0  0  0  0  0  0  0  0  0  0
    1.0718    2.1792   -2.9425 Cl  0  0  0  0  0  0  0  0  0  0  0  0
   -0.9298   -0.8624   -2.2842 Cl  0  0  0  0  0  0  0  0  0  0  0  0
    1.0759  -10.4046    8.8924 H   0  0  0  0  0  0  0  0  0  0  0  0
    0.3635  -11.7960    7.9920 H   0  0  0  0  0  0  0  0  0  0  0  0
   -0.7139  -10.6165    8.8490 H   0  0  0  0  0  0  0  0  0  0  0  0
    1.1223  -10.0189    6.4650 H   0  0  0  0  0  0  0  0  0  0  0  0
    0.0495   -8.8018    7.2893 H   0  0  0  0  0  0  0  0  0  0  0  0
   -1.8351  -10.1934    6.6350 H   0  0  0  0  0  0  0  0  0  0  0  0
   -3.4697   -8.4461    5.8092 H   0  0  0  0  0  0  0  0  0  0  0  0
   -4.6241   -6.3017    6.1495 H   0  0  0  0  0  0  0  0  0  0  0  0
   -3.5517   -4.1847    5.4531 H   0  0  0  0  0  0  0  0  0  0  0  0
   -1.3649   -4.1956    4.4147 H   0  0  0  0  0  0  0  0  0  0  0  0
    0.9045   -6.9672    4.1738 H   0  0  0  0  0  0  0  0  0  0  0  0
   -0.6511   -3.1272    0.7184 H   0  0  0  0  0  0  0  0  0  0  0  0
    3.8872   -2.5830    1.5175 H   0  0  0  0  0  0  0  0  0  0  0  0
    6.2262   -3.2920    1.1566 H   0  0  0  0  0  0  0  0  0  0  0  0
    7.9405   -4.9902    1.4342 H   0  0  0  0  0  0  0  0  0  0  0  0
    7.5447   -9.0997    1.5703 H   0  0  0  0  0  0  0  0  0  0  0  0
    6.2821   -8.9478    2.8072 H   0  0  0  0  0  0  0  0  0  0  0  0
    7.9838  -10.7020    3.3456 H   0  0  0  0  0  0  0  0  0  0  0  0
    8.0475   -9.3941    4.5934 H   0  0  0  0  0  0  0  0  0  0  0  0
   10.3197  -11.3459    3.5794 H   0  0  0  0  0  0  0  0  0  0  0  0
   10.5092  -10.1762    4.9573 H   0  0  0  0  0  0  0  0  0  0  0  0
   11.6067  -10.1117    3.5130 H   0  0  0  0  0  0  0  0  0  0  0  0
   11.0667   -7.7768    3.2525 H   0  0  0  0  0  0  0  0  0  0  0  0
    9.7700   -7.7137    4.5088 H   0  0  0  0  0  0  0  0  0  0  0  0
    9.4333   -7.3318    1.4643 H   0  0  0  0  0  0  0  0  0  0  0  0
    9.4108   -6.0218    2.7163 H   0  0  0  0  0  0  0  0  0  0  0  0
    3.1406   -7.6811    3.9448 H   0  0  0  0  0  0  0  0  0  0  0  0
    3.6047   -6.6420    5.3322 H   0  0  0  0  0  0  0  0  0  0  0  0
    3.7504   -9.6326    5.2490 H   0  0  0  0  0  0  0  0  0  0  0  0
    2.6362   -8.5302    6.1590 H   0  0  0  0  0  0  0  0  0  0  0  0
    3.6082   -7.1173    8.0716 H   0  0  0  0  0  0  0  0  0  0  0  0
    4.8849   -6.4598    6.9878 H   0  0  0  0  0  0  0  0  0  0  0  0
    5.7102   -6.3869    9.2837 H   0  0  0  0  0  0  0  0  0  0  0  0
    6.6800   -7.4527    8.2233 H   0  0  0  0  0  0  0  0  0  0  0  0
    4.5708   -7.3450   11.1723 H   0  0  0  0  0  0  0  0  0  0  0  0
    4.3463   -9.1157   11.3107 H   0  0  0  0  0  0  0  0  0  0  0  0
    3.4177   -8.1864   10.0752 H   0  0  0  0  0  0  0  0  0  0  0  0
    5.1919  -10.6035    9.5975 H   0  0  0  0  0  0  0  0  0  0  0  0
    6.3714   -9.9687    8.4053 H   0  0  0  0  0  0  0  0  0  0  0  0
    3.3154   -9.5670    8.2721 H   0  0  0  0  0  0  0  0  0  0  0  0
    4.3208  -10.6710    7.2775 H   0  0  0  0  0  0  0  0  0  0  0  0
    3.7223   -5.4160    3.7597 H   0  0  0  0  0  0  0  0  0  0  0  0
    1.0323   -1.0631    2.6554 H   0  0  0  0  0  0  0  0  0  0  0  0
    1.4709    2.7121    1.5397 H   0  0  0  0  0  0  0  0  0  0  0  0
    1.6793    2.2082   -1.7086 H   0  0  0  0  0  0  0  0  0  0  0  0
    0.4163   -0.6581   -2.0878 H   0  0  0  0  0  0  0  0  0  0  0  0
  1  2  1  0  0  0  0
  1 48  1  0  0  0  0
  1 49  1  0  0  0  0
  1 50  1  0  0  0  0
  2  3  1  0  0  0  0
  2 51  1  0  0  0  0
  2 52  1  0  0  0  0
  3  4  1  0  0  0  0
  3 53  1  0  0  0  0
  4  5  2  0  0  0  0
  4  6  2  0  0  0  0
  4  7  1  0  0  0  0
  7  8  1  0  0  0  0
  7 12  2  0  0  0  0
  8  9  2  0  0  0  0
  8 54  1  0  0  0  0
  9 10  1  0  0  0  0
  9 55  1  0  0  0  0
 10 11  2  0  0  0  0
 10 56  1  0  0  0  0
 11 12  1  0  0  0  0
 11 57  1  0  0  0  0
 12 13  1  0  0  0  0
 13 14  1  0  0  0  0
 13 58  1  0  0  0  0
 14 15  1  0  0  0  0
 14 43  2  0  0  0  0
 15 16  2  0  0  0  0
 16 17  1  0  0  0  0
 16 59  1  0  0  0  0
 17 18  2  0  0  0  0
 18 19  1  0  0  0  0
 18 43  1  0  0  0  0
 19 20  1  0  0  0  0
 19 60  1  0  0  0  0
 20 21  1  0  0  0  0
 20 42  2  0  0  0  0
 21 22  2  0  0  0  0
 21 61  1  0  0  0  0
 22 23  1  0  0  0  0
 22 62  1  0  0  0  0
 23 24  1  0  0  0  0
 23 31  2  0  0  0  0
 24 25  1  0  0  0  0
 24 30  1  0  0  0  0
 25 26  1  0  0  0  0
 25 63  1  0  0  0  0
 25 64  1  0  0  0  0
 26 27  1  0  0  0  0
 26 65  1  0  0  0  0
 26 66  1  0  0  0  0
 27 28  1  0  0  0  0
 27 29  1  0  0  0  0
 28 67  1  0  0  0  0
 28 68  1  0  0  0  0
 28 69  1  0  0  0  0
 29 30  1  0  0  0  0
 29 70  1  0  0  0  0
 29 71  1  0  0  0  0
 30 72  1  0  0  0  0
 30 73  1  0  0  0  0
 31 32  1  0  0  0  0
 31 42  1  0  0  0  0
 32 33  1  0  0  0  0
 33 34  1  0  0  0  0
 33 74  1  0  0  0  0
 33 75  1  0  0  0  0
 34 35  1  0  0  0  0
 34 76  1  0  0  0  0
 34 77  1  0  0  0  0
 35 36  1  0  0  0  0
 35 41  1  0  0  0  0
 36 37  1  0  0  0  0
 36 78  1  0  0  0  0
 36 79  1  0  0  0  0
 37 38  1  0  0  0  0
 37 80  1  0  0  0  0
 37 81  1  0  0  0  0
 38 39  1  0  0  0  0
 38 40  1  0  0  0  0
 39 82  1  0  0  0  0
 39 83  1  0  0  0  0
 39 84  1  0  0  0  0
 40 41  1  0  0  0  0
 40 85  1  0  0  0  0
 40 86  1  0  0  0  0
 41 87  1  0  0  0  0
 41 88  1  0  0  0  0
 42 89  1  0  0  0  0
 44 90  1  0  0  0  0
 45 91  1  0  0  0  0
 46 92  1  0  0  0  0
 47 93  1  0  0  0  0
M  END
$$$$
