CHEMBL2409776
 OpenBabel04072215363D

 56 60  0  0  0  0  0  0  0  0999 V2000
   -2.1559    0.7943    0.1282 C   0  0  0  0  0  0  0  0  0  0  0  0
   -1.8825   -0.6138   -0.2450 C   0  0  0  0  0  0  0  0  0  0  0  0
   -0.6782   -1.3434   -0.1303 C   0  0  0  0  0  0  0  0  0  0  0  0
   -0.9776   -2.6349   -0.5341 C   0  0  0  0  0  0  0  0  0  0  0  0
   -0.1947   -3.8533   -0.5483 C   0  0  0  0  0  0  0  0  0  0  0  0
   -0.6792   -4.8911   -0.9692 O   0  0  0  0  0  0  0  0  0  0  0  0
    1.0937   -3.7944   -0.0106 N   0  0  0  0  0  0  0  0  0  0  0  0
    2.0051   -4.8928   -0.0015 C   0  0  0  0  0  0  0  0  0  0  0  0
    1.8122   -6.0154   -0.8418 C   0  0  0  0  0  0  0  0  0  0  0  0
    2.6862   -7.1024   -0.8536 C   0  0  0  0  0  0  0  0  0  0  0  0
    2.3594   -8.1672   -1.6549 O   0  0  0  0  0  0  0  0  0  0  0  0
    2.7196   -9.4673   -1.3140 C   0  0  0  0  0  0  0  0  0  0  0  0
    2.8323   -9.8641    0.0896 C   0  0  0  0  0  0  0  0  0  0  0  0
    3.2626  -11.0888    0.4517 C   0  0  0  0  0  0  0  0  0  0  0  0
    3.5296  -12.0643   -0.5498 C   0  0  0  0  0  0  0  0  0  0  0  0
    3.8997  -13.3291   -0.4952 N   0  0  0  0  0  0  0  0  0  0  0  0
    3.9537  -13.6926   -1.8145 C   0  0  0  0  0  0  0  0  0  0  0  0
    4.3284  -14.9714   -2.1379 N   0  0  0  0  0  0  0  0  0  0  0  0
    4.7321  -15.3368   -3.4030 C   0  0  0  0  0  0  0  0  0  0  0  0
    4.8094  -14.6209   -4.3922 O   0  0  0  0  0  0  0  0  0  0  0  0
    5.2049  -16.7552   -3.5003 C   0  0  0  0  0  0  0  0  0  0  0  0
    6.6582  -16.9960   -3.8451 C   0  0  0  0  0  0  0  0  0  0  0  0
    5.5937  -17.3780   -4.8283 C   0  0  0  0  0  0  0  0  0  0  0  0
    3.6125  -12.7351   -2.6722 N   0  0  0  0  0  0  0  0  0  0  0  0
    3.3352  -11.6844   -1.8800 N   0  0  0  0  0  0  0  0  0  0  0  0
    2.9289  -10.4026   -2.2545 C   0  0  0  0  0  0  0  0  0  0  0  0
    3.8301   -7.0320   -0.0766 C   0  0  0  0  0  0  0  0  0  0  0  0
    4.0348   -5.9597    0.7914 C   0  0  0  0  0  0  0  0  0  0  0  0
    3.1224   -4.8918    0.8592 C   0  0  0  0  0  0  0  0  0  0  0  0
    3.3817   -3.8347    1.8998 C   0  0  0  0  0  0  0  0  0  0  0  0
   -2.2935   -2.5694   -0.9521 N   0  0  0  0  0  0  0  0  0  0  0  0
   -3.1442   -3.5897   -1.5266 C   0  0  0  0  0  0  0  0  0  0  0  0
   -2.8614   -1.3619   -0.7536 N   0  0  0  0  0  0  0  0  0  0  0  0
   -1.2618    1.2851    0.5268 H   0  0  0  0  0  0  0  0  0  0  0  0
   -2.9379    0.8290    0.8948 H   0  0  0  0  0  0  0  0  0  0  0  0
   -2.5029    1.3654   -0.7393 H   0  0  0  0  0  0  0  0  0  0  0  0
    0.2670   -0.9712    0.2368 H   0  0  0  0  0  0  0  0  0  0  0  0
    1.3436   -2.9734    0.5200 H   0  0  0  0  0  0  0  0  0  0  0  0
    0.9615   -6.0815   -1.5142 H   0  0  0  0  0  0  0  0  0  0  0  0
    2.5874   -9.1364    0.8575 H   0  0  0  0  0  0  0  0  0  0  0  0
    3.3942  -11.3453    1.4957 H   0  0  0  0  0  0  0  0  0  0  0  0
    4.4057  -15.6057   -1.3590 H   0  0  0  0  0  0  0  0  0  0  0  0
    4.7621  -17.4335   -2.7780 H   0  0  0  0  0  0  0  0  0  0  0  0
    7.1777  -17.7855   -3.3172 H   0  0  0  0  0  0  0  0  0  0  0  0
    7.2789  -16.1416   -4.0966 H   0  0  0  0  0  0  0  0  0  0  0  0
    5.4116  -18.4359   -4.9834 H   0  0  0  0  0  0  0  0  0  0  0  0
    5.5197  -16.7898   -5.7392 H   0  0  0  0  0  0  0  0  0  0  0  0
    2.8230  -10.2335   -3.3194 H   0  0  0  0  0  0  0  0  0  0  0  0
    4.5651   -7.8367   -0.0904 H   0  0  0  0  0  0  0  0  0  0  0  0
    4.9026   -5.9886    1.4463 H   0  0  0  0  0  0  0  0  0  0  0  0
    4.1733   -4.1523    2.5907 H   0  0  0  0  0  0  0  0  0  0  0  0
    2.4880   -3.6737    2.5106 H   0  0  0  0  0  0  0  0  0  0  0  0
    3.7014   -2.8946    1.4422 H   0  0  0  0  0  0  0  0  0  0  0  0
   -2.6101   -4.5005   -1.7747 H   0  0  0  0  0  0  0  0  0  0  0  0
   -3.5715   -3.1928   -2.4512 H   0  0  0  0  0  0  0  0  0  0  0  0
   -3.9360   -3.8159   -0.8081 H   0  0  0  0  0  0  0  0  0  0  0  0
  1  2  1  0  0  0  0
  1 34  1  0  0  0  0
  1 35  1  0  0  0  0
  1 36  1  0  0  0  0
  2  3  1  0  0  0  0
  2 33  2  0  0  0  0
  3  4  2  0  0  0  0
  3 37  1  0  0  0  0
  4  5  1  0  0  0  0
  4 31  1  0  0  0  0
  5  6  2  0  0  0  0
  5  7  1  0  0  0  0
  7  8  1  0  0  0  0
  7 38  1  0  0  0  0
  8  9  1  0  0  0  0
  8 29  2  0  0  0  0
  9 10  2  0  0  0  0
  9 39  1  0  0  0  0
 10 11  1  0  0  0  0
 10 27  1  0  0  0  0
 11 12  1  0  0  0  0
 12 13  1  0  0  0  0
 12 26  2  0  0  0  0
 13 14  2  0  0  0  0
 13 40  1  0  0  0  0
 14 15  1  0  0  0  0
 14 41  1  0  0  0  0
 15 16  2  0  0  0  0
 15 25  1  0  0  0  0
 16 17  1  0  0  0  0
 17 18  1  0  0  0  0
 17 24  2  0  0  0  0
 18 19  1  0  0  0  0
 18 42  1  0  0  0  0
 19 20  2  0  0  0  0
 19 21  1  0  0  0  0
 21 22  1  0  0  0  0
 21 23  1  0  0  0  0
 21 43  1  0  0  0  0
 22 23  1  0  0  0  0
 22 44  1  0  0  0  0
 22 45  1  0  0  0  0
 23 46  1  0  0  0  0
 23 47  1  0  0  0  0
 24 25  1  0  0  0  0
 25 26  1  0  0  0  0
 26 48  1  0  0  0  0
 27 28  2  0  0  0  0
 27 49  1  0  0  0  0
 28 29  1  0  0  0  0
 28 50  1  0  0  0  0
 29 30  1  0  0  0  0
 30 51  1  0  0  0  0
 30 52  1  0  0  0  0
 30 53  1  0  0  0  0
 31 32  1  0  0  0  0
 31 33  1  0  0  0  0
 32 54  1  0  0  0  0
 32 55  1  0  0  0  0
 32 56  1  0  0  0  0
M  END
$$$$
