CHEMBL494873
 OpenBabel04072215383D

 72 76  0  0  0  0  0  0  0  0999 V2000
    9.1659    1.5466   10.6479 C   0  0  0  0  0  0  0  0  0  0  0  0
    7.7431    1.5689   10.4933 O   0  0  0  0  0  0  0  0  0  0  0  0
    7.2232    0.6186    9.6548 C   0  0  0  0  0  0  0  0  0  0  0  0
    7.8212   -0.6481    9.5273 C   0  0  0  0  0  0  0  0  0  0  0  0
    7.4091   -1.5804    8.5898 C   0  0  0  0  0  0  0  0  0  0  0  0
    8.1077   -2.7239    8.4886 N   0  0  0  0  0  0  0  0  0  0  0  0
    7.7749   -3.5890    7.5106 C   0  0  0  0  0  0  0  0  0  0  0  0
    6.7561   -3.3675    6.6086 C   0  0  0  0  0  0  0  0  0  0  0  0
    6.0025   -2.1890    6.7114 C   0  0  0  0  0  0  0  0  0  0  0  0
    5.0325   -1.8654    5.5958 C   0  0  0  0  0  0  0  0  0  0  0  0
    3.9969   -2.8744    5.3899 N   0  0  0  0  0  0  0  0  0  0  0  0
    2.7261   -2.6837    6.0700 C   0  0  0  0  0  0  0  0  0  0  0  0
    1.9098   -3.9683    6.1402 C   0  0  0  0  0  0  0  0  0  0  0  0
    1.8060   -4.6396    4.7973 C   0  0  0  0  0  0  0  0  0  0  0  0
    0.7227   -5.4543    4.4017 C   0  0  0  0  0  0  0  0  0  0  0  0
   -0.4434   -5.8290    5.2601 C   0  0  0  0  0  0  0  0  0  0  0  0
   -1.5418   -5.9026    4.7156 O   0  0  0  0  0  0  0  0  0  0  0  0
   -0.1827   -6.0767    6.5943 N   0  0  0  0  0  0  0  0  0  0  0  0
   -1.1236   -6.4911    7.5567 C   0  0  0  0  0  0  0  0  0  0  0  0
   -2.3264   -7.1032    7.2236 C   0  0  0  0  0  0  0  0  0  0  0  0
   -3.2116   -7.5249    8.2204 C   0  0  0  0  0  0  0  0  0  0  0  0
   -2.9365   -7.3234    9.5809 C   0  0  0  0  0  0  0  0  0  0  0  0
   -3.9087   -7.7693   10.6859 C   0  0  0  0  0  0  0  0  0  0  0  0
   -5.1839   -8.4532   10.1380 C   0  0  0  0  0  0  0  0  0  0  0  0
   -3.2097   -8.7813   11.6181 C   0  0  0  0  0  0  0  0  0  0  0  0
   -4.3628   -6.5469   11.5086 C   0  0  0  0  0  0  0  0  0  0  0  0
   -1.7182   -6.6966    9.9019 C   0  0  0  0  0  0  0  0  0  0  0  0
   -0.8145   -6.3036    8.9047 C   0  0  0  0  0  0  0  0  0  0  0  0
    0.6723   -5.9594    3.0851 C   0  0  0  0  0  0  0  0  0  0  0  0
    1.6935   -5.7111    2.1762 C   0  0  0  0  0  0  0  0  0  0  0  0
    2.7971   -4.9708    2.5785 C   0  0  0  0  0  0  0  0  0  0  0  0
    2.8581   -4.4436    3.8788 C   0  0  0  0  0  0  0  0  0  0  0  0
    4.0695   -3.6604    4.2439 C   0  0  0  0  0  0  0  0  0  0  0  0
    5.0729   -3.7312    3.5404 O   0  0  0  0  0  0  0  0  0  0  0  0
    6.3176   -1.2742    7.7510 C   0  0  0  0  0  0  0  0  0  0  0  0
    5.6358   -0.0595    7.9817 C   0  0  0  0  0  0  0  0  0  0  0  0
    6.0776    0.8943    8.9097 C   0  0  0  0  0  0  0  0  0  0  0  0
    5.2849    2.0061    8.8811 O   0  0  0  0  0  0  0  0  0  0  0  0
    5.5630    3.1127    9.7153 C   0  0  0  0  0  0  0  0  0  0  0  0
    9.5136    2.5792   10.7491 H   0  0  0  0  0  0  0  0  0  0  0  0
    9.6953    1.1174    9.7879 H   0  0  0  0  0  0  0  0  0  0  0  0
    9.4260    1.0053   11.5629 H   0  0  0  0  0  0  0  0  0  0  0  0
    8.6690   -0.9219   10.1498 H   0  0  0  0  0  0  0  0  0  0  0  0
    8.3957   -4.4782    7.4476 H   0  0  0  0  0  0  0  0  0  0  0  0
    6.5837   -4.0788    5.8051 H   0  0  0  0  0  0  0  0  0  0  0  0
    5.6233   -1.7321    4.6809 H   0  0  0  0  0  0  0  0  0  0  0  0
    4.5202   -0.9112    5.7349 H   0  0  0  0  0  0  0  0  0  0  0  0
    2.1784   -1.9097    5.5285 H   0  0  0  0  0  0  0  0  0  0  0  0
    2.9221   -2.3243    7.0881 H   0  0  0  0  0  0  0  0  0  0  0  0
    0.9194   -3.7011    6.5241 H   0  0  0  0  0  0  0  0  0  0  0  0
    2.3891   -4.6613    6.8412 H   0  0  0  0  0  0  0  0  0  0  0  0
    0.7521   -5.9333    6.9408 H   0  0  0  0  0  0  0  0  0  0  0  0
   -2.5941   -7.3044    6.1909 H   0  0  0  0  0  0  0  0  0  0  0  0
   -4.1192   -8.0188    7.8863 H   0  0  0  0  0  0  0  0  0  0  0  0
   -4.9429   -9.3659    9.5795 H   0  0  0  0  0  0  0  0  0  0  0  0
   -5.7437   -7.7853    9.4720 H   0  0  0  0  0  0  0  0  0  0  0  0
   -5.8608   -8.7399   10.9493 H   0  0  0  0  0  0  0  0  0  0  0  0
   -2.8894   -9.6720   11.0649 H   0  0  0  0  0  0  0  0  0  0  0  0
   -3.8836   -9.1093   12.4177 H   0  0  0  0  0  0  0  0  0  0  0  0
   -2.3220   -8.3572   12.0992 H   0  0  0  0  0  0  0  0  0  0  0  0
   -4.8553   -5.8030   10.8707 H   0  0  0  0  0  0  0  0  0  0  0  0
   -3.5255   -6.0499   12.0092 H   0  0  0  0  0  0  0  0  0  0  0  0
   -5.0755   -6.8411   12.2874 H   0  0  0  0  0  0  0  0  0  0  0  0
   -1.4540   -6.5014   10.9390 H   0  0  0  0  0  0  0  0  0  0  0  0
    0.1092   -5.8151    9.2037 H   0  0  0  0  0  0  0  0  0  0  0  0
   -0.1823   -6.5560    2.7635 H   0  0  0  0  0  0  0  0  0  0  0  0
    1.6320   -6.0968    1.1616 H   0  0  0  0  0  0  0  0  0  0  0  0
    3.6058   -4.7883    1.8726 H   0  0  0  0  0  0  0  0  0  0  0  0
    4.7388    0.1891    7.4219 H   0  0  0  0  0  0  0  0  0  0  0  0
    4.9542    3.9471    9.3445 H   0  0  0  0  0  0  0  0  0  0  0  0
    6.6017    3.4433    9.6552 H   0  0  0  0  0  0  0  0  0  0  0  0
    5.2511    2.9132   10.7450 H   0  0  0  0  0  0  0  0  0  0  0  0
  1  2  1  0  0  0  0
  1 40  1  0  0  0  0
  1 41  1  0  0  0  0
  1 42  1  0  0  0  0
  2  3  1  0  0  0  0
  3  4  1  0  0  0  0
  3 37  2  0  0  0  0
  4  5  2  0  0  0  0
  4 43  1  0  0  0  0
  5  6  1  0  0  0  0
  5 35  1  0  0  0  0
  6  7  2  0  0  0  0
  7  8  1  0  0  0  0
  7 44  1  0  0  0  0
  8  9  2  0  0  0  0
  8 45  1  0  0  0  0
  9 10  1  0  0  0  0
  9 35  1  0  0  0  0
 10 11  1  0  0  0  0
 10 46  1  0  0  0  0
 10 47  1  0  0  0  0
 11 12  1  0  0  0  0
 11 33  1  0  0  0  0
 12 13  1  0  0  0  0
 12 48  1  0  0  0  0
 12 49  1  0  0  0  0
 13 14  1  0  0  0  0
 13 50  1  0  0  0  0
 13 51  1  0  0  0  0
 14 15  1  0  0  0  0
 14 32  2  0  0  0  0
 15 16  1  0  0  0  0
 15 29  2  0  0  0  0
 16 17  2  0  0  0  0
 16 18  1  0  0  0  0
 18 19  1  0  0  0  0
 18 52  1  0  0  0  0
 19 20  1  0  0  0  0
 19 28  2  0  0  0  0
 20 21  2  0  0  0  0
 20 53  1  0  0  0  0
 21 22  1  0  0  0  0
 21 54  1  0  0  0  0
 22 23  1  0  0  0  0
 22 27  2  0  0  0  0
 23 24  1  0  0  0  0
 23 25  1  0  0  0  0
 23 26  1  0  0  0  0
 24 55  1  0  0  0  0
 24 56  1  0  0  0  0
 24 57  1  0  0  0  0
 25 58  1  0  0  0  0
 25 59  1  0  0  0  0
 25 60  1  0  0  0  0
 26 61  1  0  0  0  0
 26 62  1  0  0  0  0
 26 63  1  0  0  0  0
 27 28  1  0  0  0  0
 27 64  1  0  0  0  0
 28 65  1  0  0  0  0
 29 30  1  0  0  0  0
 29 66  1  0  0  0  0
 30 31  2  0  0  0  0
 30 67  1  0  0  0  0
 31 32  1  0  0  0  0
 31 68  1  0  0  0  0
 32 33  1  0  0  0  0
 33 34  2  0  0  0  0
 35 36  2  0  0  0  0
 36 37  1  0  0  0  0
 36 69  1  0  0  0  0
 37 38  1  0  0  0  0
 38 39  1  0  0  0  0
 39 70  1  0  0  0  0
 39 71  1  0  0  0  0
 39 72  1  0  0  0  0
M  END
$$$$
