CHEMBL438877
 OpenBabel04072215383D

 53 56  0  0  0  0  0  0  0  0999 V2000
    0.7087    1.0709   -2.7062 C   0  0  0  0  0  0  0  0  0  0  0  0
    2.0913    1.4108   -2.5079 N   0  0  0  0  0  0  0  0  0  0  0  0
    2.5349    2.7189   -2.5456 C   0  0  0  0  0  0  0  0  0  0  0  0
    1.7594    3.6550   -2.7066 O   0  0  0  0  0  0  0  0  0  0  0  0
    3.9697    2.8963   -2.3778 C   0  0  0  0  0  0  0  0  0  0  0  0
    4.6508    4.0953   -2.3043 C   0  0  0  0  0  0  0  0  0  0  0  0
    6.0516    3.9295   -2.1189 C   0  0  0  0  0  0  0  0  0  0  0  0
    6.9482    4.9445   -1.9932 N   0  0  0  0  0  0  0  0  0  0  0  0
    8.2257    4.5771   -1.7963 C   0  0  0  0  0  0  0  0  0  0  0  0
    8.6799    3.2745   -1.7513 C   0  0  0  0  0  0  0  0  0  0  0  0
    7.7730    2.2377   -1.9753 C   0  0  0  0  0  0  0  0  0  0  0  0
    8.1412    0.9098   -2.0389 O   0  0  0  0  0  0  0  0  0  0  0  0
    9.3260    0.5842   -2.6589 C   0  0  0  0  0  0  0  0  0  0  0  0
    9.8685    1.2970   -3.7304 C   0  0  0  0  0  0  0  0  0  0  0  0
   11.1295    0.9590   -4.2233 C   0  0  0  0  0  0  0  0  0  0  0  0
   11.8169   -0.1554   -3.7251 C   0  0  0  0  0  0  0  0  0  0  0  0
   13.0718   -0.4204   -4.2924 N   0  0  0  0  0  0  0  0  0  0  0  0
   13.7986   -1.5822   -4.4114 C   0  0  0  0  0  0  0  0  0  0  0  0
   13.3456   -3.1489   -4.0463 S   0  0  0  0  0  0  0  0  0  0  0  0
   15.0490   -1.4315   -4.9889 N   0  0  0  0  0  0  0  0  0  0  0  0
   15.6288   -0.2753   -5.4945 C   0  0  0  0  0  0  0  0  0  0  0  0
   15.1697    0.8511   -5.3041 O   0  0  0  0  0  0  0  0  0  0  0  0
   16.8375   -0.5175   -6.3805 C   0  0  0  0  0  0  0  0  0  0  0  0
   16.3889   -0.6043   -7.8177 C   0  0  0  0  0  0  0  0  0  0  0  0
   16.2518    0.5636   -8.5811 C   0  0  0  0  0  0  0  0  0  0  0  0
   15.6495    0.5168   -9.8378 C   0  0  0  0  0  0  0  0  0  0  0  0
   15.1809   -0.6951  -10.3412 C   0  0  0  0  0  0  0  0  0  0  0  0
   15.3452   -1.8670   -9.6051 C   0  0  0  0  0  0  0  0  0  0  0  0
   15.9543   -1.8254   -8.3513 C   0  0  0  0  0  0  0  0  0  0  0  0
   11.2455   -0.8995   -2.6956 C   0  0  0  0  0  0  0  0  0  0  0  0
   10.0055   -0.5319   -2.1772 C   0  0  0  0  0  0  0  0  0  0  0  0
    9.4835   -1.2584   -1.1774 F   0  0  0  0  0  0  0  0  0  0  0  0
    6.4204    2.5859   -2.1003 C   0  0  0  0  0  0  0  0  0  0  0  0
    5.0452    1.5701   -2.2598 S   0  0  0  0  0  0  0  0  0  0  0  0
    0.5794    0.0049   -2.5049 H   0  0  0  0  0  0  0  0  0  0  0  0
    0.4324    1.2911   -3.7406 H   0  0  0  0  0  0  0  0  0  0  0  0
    0.0842    1.6586   -2.0283 H   0  0  0  0  0  0  0  0  0  0  0  0
    2.7764    0.6737   -2.4093 H   0  0  0  0  0  0  0  0  0  0  0  0
    4.1624    5.0608   -2.3722 H   0  0  0  0  0  0  0  0  0  0  0  0
    8.9256    5.4020   -1.6820 H   0  0  0  0  0  0  0  0  0  0  0  0
    9.7336    3.0807   -1.5810 H   0  0  0  0  0  0  0  0  0  0  0  0
    9.3382    2.1337   -4.1774 H   0  0  0  0  0  0  0  0  0  0  0  0
   11.5543    1.5630   -5.0231 H   0  0  0  0  0  0  0  0  0  0  0  0
   13.4871    0.3662   -4.8018 H   0  0  0  0  0  0  0  0  0  0  0  0
   15.5147   -2.3102   -5.1649 H   0  0  0  0  0  0  0  0  0  0  0  0
   17.3667   -1.4284   -6.0787 H   0  0  0  0  0  0  0  0  0  0  0  0
   17.5415    0.3110   -6.2368 H   0  0  0  0  0  0  0  0  0  0  0  0
   16.5733    1.5246   -8.1829 H   0  0  0  0  0  0  0  0  0  0  0  0
   15.5192    1.4310  -10.4114 H   0  0  0  0  0  0  0  0  0  0  0  0
   14.6773   -0.7246  -11.3037 H   0  0  0  0  0  0  0  0  0  0  0  0
   14.9753   -2.8107   -9.9979 H   0  0  0  0  0  0  0  0  0  0  0  0
   16.0504   -2.7478   -7.7838 H   0  0  0  0  0  0  0  0  0  0  0  0
   11.7538   -1.7326   -2.2278 H   0  0  0  0  0  0  0  0  0  0  0  0
  1  2  1  0  0  0  0
  1 35  1  0  0  0  0
  1 36  1  0  0  0  0
  1 37  1  0  0  0  0
  2  3  1  0  0  0  0
  2 38  1  0  0  0  0
  3  4  2  0  0  0  0
  3  5  1  0  0  0  0
  5  6  2  0  0  0  0
  5 34  1  0  0  0  0
  6  7  1  0  0  0  0
  6 39  1  0  0  0  0
  7  8  1  0  0  0  0
  7 33  2  0  0  0  0
  8  9  2  0  0  0  0
  9 10  1  0  0  0  0
  9 40  1  0  0  0  0
 10 11  2  0  0  0  0
 10 41  1  0  0  0  0
 11 12  1  0  0  0  0
 11 33  1  0  0  0  0
 12 13  1  0  0  0  0
 13 14  1  0  0  0  0
 13 31  2  0  0  0  0
 14 15  2  0  0  0  0
 14 42  1  0  0  0  0
 15 16  1  0  0  0  0
 15 43  1  0  0  0  0
 16 17  1  0  0  0  0
 16 30  2  0  0  0  0
 17 18  1  0  0  0  0
 17 44  1  0  0  0  0
 18 19  2  0  0  0  0
 18 20  1  0  0  0  0
 20 21  1  0  0  0  0
 20 45  1  0  0  0  0
 21 22  2  0  0  0  0
 21 23  1  0  0  0  0
 23 24  1  0  0  0  0
 23 46  1  0  0  0  0
 23 47  1  0  0  0  0
 24 25  1  0  0  0  0
 24 29  2  0  0  0  0
 25 26  2  0  0  0  0
 25 48  1  0  0  0  0
 26 27  1  0  0  0  0
 26 49  1  0  0  0  0
 27 28  2  0  0  0  0
 27 50  1  0  0  0  0
 28 29  1  0  0  0  0
 28 51  1  0  0  0  0
 29 52  1  0  0  0  0
 30 31  1  0  0  0  0
 30 53  1  0  0  0  0
 31 32  1  0  0  0  0
 33 34  1  0  0  0  0
M  END
$$$$
