CHEMBL604483
 OpenBabel04072215383D

 70 75  0  0  0  0  0  0  0  0999 V2000
    3.1060    1.0968   -0.6956 C   0  0  0  0  0  0  0  0  0  0  0  0
    2.5656   -0.1552   -0.2677 O   0  0  0  0  0  0  0  0  0  0  0  0
    3.2777   -0.9519    0.5923 C   0  0  0  0  0  0  0  0  0  0  0  0
    4.4331   -0.5036    1.2305 C   0  0  0  0  0  0  0  0  0  0  0  0
    5.1760   -1.3100    2.1071 C   0  0  0  0  0  0  0  0  0  0  0  0
    6.3399   -0.9130    2.7724 C   0  0  0  0  0  0  0  0  0  0  0  0
    6.7491    0.4216    2.7102 O   0  0  0  0  0  0  0  0  0  0  0  0
    7.3709    0.9644    3.8255 C   0  0  0  0  0  0  0  0  0  0  0  0
    8.3327    1.9507    3.5972 C   0  0  0  0  0  0  0  0  0  0  0  0
    8.9071    2.6571    4.6729 C   0  0  0  0  0  0  0  0  0  0  0  0
    8.5323    2.3882    6.0001 C   0  0  0  0  0  0  0  0  0  0  0  0
    9.0417    3.2279    7.1037 C   0  0  0  0  0  0  0  0  0  0  0  0
    9.3482    4.5047    6.9850 N   0  0  0  0  0  0  0  0  0  0  0  0
    9.7201    5.0299    8.2158 C   0  0  0  0  0  0  0  0  0  0  0  0
   10.0749    6.3702    8.4787 C   0  0  0  0  0  0  0  0  0  0  0  0
   10.4358    6.7552    9.7766 C   0  0  0  0  0  0  0  0  0  0  0  0
   10.4447    5.8257   10.8116 C   0  0  0  0  0  0  0  0  0  0  0  0
   10.0917    4.4939   10.5779 C   0  0  0  0  0  0  0  0  0  0  0  0
    9.7323    4.1194    9.2720 C   0  0  0  0  0  0  0  0  0  0  0  0
    9.2539    2.5781    8.6854 S   0  0  0  0  0  0  0  0  0  0  0  0
    7.6010    1.3658    6.2202 C   0  0  0  0  0  0  0  0  0  0  0  0
    7.0189    0.6795    5.1500 C   0  0  0  0  0  0  0  0  0  0  0  0
    6.0750   -0.2232    5.4445 F   0  0  0  0  0  0  0  0  0  0  0  0
    7.1230   -1.7655    3.4615 N   0  0  0  0  0  0  0  0  0  0  0  0
    6.6381   -2.9865    3.5900 C   0  0  0  0  0  0  0  0  0  0  0  0
    5.4929   -3.4666    3.0825 N   0  0  0  0  0  0  0  0  0  0  0  0
    4.7706   -2.6259    2.3292 C   0  0  0  0  0  0  0  0  0  0  0  0
    3.5912   -3.0687    1.7340 C   0  0  0  0  0  0  0  0  0  0  0  0
    2.8342   -2.2639    0.8661 C   0  0  0  0  0  0  0  0  0  0  0  0
    1.7276   -2.9287    0.3757 O   0  0  0  0  0  0  0  0  0  0  0  0
    1.2593   -2.4904   -0.8923 C   0  0  0  0  0  0  0  0  0  0  0  0
    0.6121   -3.6286   -1.6808 C   0  0  0  0  0  0  0  0  0  0  0  0
    0.2463   -3.0850   -3.0708 C   0  0  0  0  0  0  0  0  0  0  0  0
   -0.4076   -4.0644   -3.9386 N   0  0  0  0  0  0  0  0  0  0  0  0
   -0.7797   -3.4522   -5.2316 C   0  0  0  0  0  0  0  0  0  0  0  0
   -1.5082   -4.4742   -6.1312 C   0  0  0  0  0  0  0  0  0  0  0  0
   -0.7284   -5.6960   -6.4176 N   0  0  0  0  0  0  0  0  0  0  0  0
    0.3766   -5.4215   -7.3328 C   0  0  0  0  0  0  0  0  0  0  0  0
   -0.2429   -6.2613   -5.1424 C   0  0  0  0  0  0  0  0  0  0  0  0
    0.4329   -5.2508   -4.1873 C   0  0  0  0  0  0  0  0  0  0  0  0
    3.2407    1.0728   -1.7802 H   0  0  0  0  0  0  0  0  0  0  0  0
    4.0714    1.3959   -0.2867 H   0  0  0  0  0  0  0  0  0  0  0  0
    2.3985    1.8872   -0.4354 H   0  0  0  0  0  0  0  0  0  0  0  0
    4.8421    0.4832    1.0690 H   0  0  0  0  0  0  0  0  0  0  0  0
    8.6351    2.1984    2.5808 H   0  0  0  0  0  0  0  0  0  0  0  0
    9.6347    3.4429    4.4681 H   0  0  0  0  0  0  0  0  0  0  0  0
   10.0623    7.0961    7.6714 H   0  0  0  0  0  0  0  0  0  0  0  0
   10.7093    7.7891    9.9754 H   0  0  0  0  0  0  0  0  0  0  0  0
   10.7279    6.1353   11.8153 H   0  0  0  0  0  0  0  0  0  0  0  0
   10.0932    3.7688   11.3862 H   0  0  0  0  0  0  0  0  0  0  0  0
    7.2579    1.1144    7.2197 H   0  0  0  0  0  0  0  0  0  0  0  0
    7.2278   -3.6807    4.1784 H   0  0  0  0  0  0  0  0  0  0  0  0
    3.2641   -4.0911    1.9289 H   0  0  0  0  0  0  0  0  0  0  0  0
    2.1001   -2.1479   -1.5020 H   0  0  0  0  0  0  0  0  0  0  0  0
    0.5295   -1.6897   -0.7457 H   0  0  0  0  0  0  0  0  0  0  0  0
   -0.2707   -4.0246   -1.1652 H   0  0  0  0  0  0  0  0  0  0  0  0
    1.3283   -4.4571   -1.7461 H   0  0  0  0  0  0  0  0  0  0  0  0
    1.1476   -2.6876   -3.5569 H   0  0  0  0  0  0  0  0  0  0  0  0
   -0.4352   -2.2366   -2.9278 H   0  0  0  0  0  0  0  0  0  0  0  0
    0.1085   -3.0627   -5.7496 H   0  0  0  0  0  0  0  0  0  0  0  0
   -1.4478   -2.5976   -5.0687 H   0  0  0  0  0  0  0  0  0  0  0  0
   -1.8167   -3.9958   -7.0684 H   0  0  0  0  0  0  0  0  0  0  0  0
   -2.4406   -4.7717   -5.6321 H   0  0  0  0  0  0  0  0  0  0  0  0
    0.0010   -4.9732   -8.2590 H   0  0  0  0  0  0  0  0  0  0  0  0
    0.8732   -6.3559   -7.6155 H   0  0  0  0  0  0  0  0  0  0  0  0
    1.1340   -4.7503   -6.9155 H   0  0  0  0  0  0  0  0  0  0  0  0
    0.4437   -7.0958   -5.3301 H   0  0  0  0  0  0  0  0  0  0  0  0
   -1.1029   -6.6993   -4.6181 H   0  0  0  0  0  0  0  0  0  0  0  0
    1.4096   -4.9509   -4.5889 H   0  0  0  0  0  0  0  0  0  0  0  0
    0.6159   -5.7839   -3.2491 H   0  0  0  0  0  0  0  0  0  0  0  0
  1  2  1  0  0  0  0
  1 41  1  0  0  0  0
  1 42  1  0  0  0  0
  1 43  1  0  0  0  0
  2  3  1  0  0  0  0
  3  4  1  0  0  0  0
  3 29  2  0  0  0  0
  4  5  2  0  0  0  0
  4 44  1  0  0  0  0
  5  6  1  0  0  0  0
  5 27  1  0  0  0  0
  6  7  1  0  0  0  0
  6 24  2  0  0  0  0
  7  8  1  0  0  0  0
  8  9  1  0  0  0  0
  8 22  2  0  0  0  0
  9 10  2  0  0  0  0
  9 45  1  0  0  0  0
 10 11  1  0  0  0  0
 10 46  1  0  0  0  0
 11 12  1  0  0  0  0
 11 21  2  0  0  0  0
 12 13  2  0  0  0  0
 12 20  1  0  0  0  0
 13 14  1  0  0  0  0
 14 15  1  0  0  0  0
 14 19  2  0  0  0  0
 15 16  2  0  0  0  0
 15 47  1  0  0  0  0
 16 17  1  0  0  0  0
 16 48  1  0  0  0  0
 17 18  2  0  0  0  0
 17 49  1  0  0  0  0
 18 19  1  0  0  0  0
 18 50  1  0  0  0  0
 19 20  1  0  0  0  0
 21 22  1  0  0  0  0
 21 51  1  0  0  0  0
 22 23  1  0  0  0  0
 24 25  1  0  0  0  0
 25 26  2  0  0  0  0
 25 52  1  0  0  0  0
 26 27  1  0  0  0  0
 27 28  2  0  0  0  0
 28 29  1  0  0  0  0
 28 53  1  0  0  0  0
 29 30  1  0  0  0  0
 30 31  1  0  0  0  0
 31 32  1  0  0  0  0
 31 54  1  0  0  0  0
 31 55  1  0  0  0  0
 32 33  1  0  0  0  0
 32 56  1  0  0  0  0
 32 57  1  0  0  0  0
 33 34  1  0  0  0  0
 33 58  1  0  0  0  0
 33 59  1  0  0  0  0
 34 35  1  0  0  0  0
 34 40  1  0  0  0  0
 35 36  1  0  0  0  0
 35 60  1  0  0  0  0
 35 61  1  0  0  0  0
 36 37  1  0  0  0  0
 36 62  1  0  0  0  0
 36 63  1  0  0  0  0
 37 38  1  0  0  0  0
 37 39  1  0  0  0  0
 38 64  1  0  0  0  0
 38 65  1  0  0  0  0
 38 66  1  0  0  0  0
 39 40  1  0  0  0  0
 39 67  1  0  0  0  0
 39 68  1  0  0  0  0
 40 69  1  0  0  0  0
 40 70  1  0  0  0  0
M  END
$$$$
