CHEMBL1271642
 OpenBabel04072215363D

 37 39  0  0  0  0  0  0  0  0999 V2000
    1.0585    0.8302    0.2886 N   0  0  0  0  0  0  0  0  0  0  0  0
    0.3027   -0.3609    1.2015 S   0  0  0  0  0  0  0  0  0  0  0  0
   -0.9294    0.2098    1.7056 O   0  0  0  0  0  0  0  0  0  0  0  0
    0.3283   -1.5390    0.3723 O   0  0  0  0  0  0  0  0  0  0  0  0
    1.4402   -0.5643    2.5322 C   0  0  0  0  0  0  0  0  0  0  0  0
    1.7462    0.5342    3.3229 C   0  0  0  0  0  0  0  0  0  0  0  0
    2.7140    0.4019    4.3163 C   0  0  0  0  0  0  0  0  0  0  0  0
    3.4010   -0.8044    4.5358 C   0  0  0  0  0  0  0  0  0  0  0  0
    4.3662   -0.9532    5.5577 N   0  0  0  0  0  0  0  0  0  0  0  0
    4.6667    0.0108    6.4482 C   0  0  0  0  0  0  0  0  0  0  0  0
    3.9054    0.9632    6.9376 N   0  0  0  0  0  0  0  0  0  0  0  0
    4.7631    1.7499    7.6530 C   0  0  0  0  0  0  0  0  0  0  0  0
    6.0294    1.2139    7.6233 C   0  0  0  0  0  0  0  0  0  0  0  0
    7.3121    1.5973    8.1863 C   0  0  0  0  0  0  0  0  0  0  0  0
    8.4691    0.8318    7.9621 C   0  0  0  0  0  0  0  0  0  0  0  0
    9.6923    1.1868    8.5419 C   0  0  0  0  0  0  0  0  0  0  0  0
    9.7577    2.3191    9.3429 C   0  0  0  0  0  0  0  0  0  0  0  0
   10.9165    2.7063    9.9551 O   0  0  0  0  0  0  0  0  0  0  0  0
    8.6252    3.0979    9.5504 C   0  0  0  0  0  0  0  0  0  0  0  0
    8.6960    4.2168   10.3293 O   0  0  0  0  0  0  0  0  0  0  0  0
    7.4084    2.7493    8.9823 C   0  0  0  0  0  0  0  0  0  0  0  0
    5.9687    0.0683    6.8663 O   0  0  0  0  0  0  0  0  0  0  0  0
    3.0471   -1.9101    3.7488 C   0  0  0  0  0  0  0  0  0  0  0  0
    2.0780   -1.7918    2.7423 C   0  0  0  0  0  0  0  0  0  0  0  0
    0.3602    1.4908   -0.0551 H   0  0  0  0  0  0  0  0  0  0  0  0
    1.6308    0.4152   -0.4442 H   0  0  0  0  0  0  0  0  0  0  0  0
    1.2599    1.4916    3.1715 H   0  0  0  0  0  0  0  0  0  0  0  0
    2.9344    1.2909    4.8993 H   0  0  0  0  0  0  0  0  0  0  0  0
    5.0966   -1.6164    5.3408 H   0  0  0  0  0  0  0  0  0  0  0  0
    4.4241    2.6545    8.1369 H   0  0  0  0  0  0  0  0  0  0  0  0
    8.4244   -0.0564    7.3350 H   0  0  0  0  0  0  0  0  0  0  0  0
   10.5653    0.5702    8.3587 H   0  0  0  0  0  0  0  0  0  0  0  0
   11.5937    2.0327    9.7715 H   0  0  0  0  0  0  0  0  0  0  0  0
    9.6298    4.2585   10.6162 H   0  0  0  0  0  0  0  0  0  0  0  0
    6.5466    3.3816    9.1757 H   0  0  0  0  0  0  0  0  0  0  0  0
    3.5204   -2.8772    3.9090 H   0  0  0  0  0  0  0  0  0  0  0  0
    1.8337   -2.6558    2.1272 H   0  0  0  0  0  0  0  0  0  0  0  0
  1  2  1  0  0  0  0
  1 25  1  0  0  0  0
  1 26  1  0  0  0  0
  2  3  2  0  0  0  0
  2  4  2  0  0  0  0
  2  5  1  0  0  0  0
  5  6  1  0  0  0  0
  5 24  2  0  0  0  0
  6  7  2  0  0  0  0
  6 27  1  0  0  0  0
  7  8  1  0  0  0  0
  7 28  1  0  0  0  0
  8  9  1  0  0  0  0
  8 23  2  0  0  0  0
  9 10  1  0  0  0  0
  9 29  1  0  0  0  0
 10 11  2  0  0  0  0
 10 22  1  0  0  0  0
 11 12  1  0  0  0  0
 12 13  2  0  0  0  0
 12 30  1  0  0  0  0
 13 14  1  0  0  0  0
 13 22  1  0  0  0  0
 14 15  1  0  0  0  0
 14 21  2  0  0  0  0
 15 16  2  0  0  0  0
 15 31  1  0  0  0  0
 16 17  1  0  0  0  0
 16 32  1  0  0  0  0
 17 18  1  0  0  0  0
 17 19  2  0  0  0  0
 18 33  1  0  0  0  0
 19 20  1  0  0  0  0
 19 21  1  0  0  0  0
 20 34  1  0  0  0  0
 21 35  1  0  0  0  0
 23 24  1  0  0  0  0
 23 36  1  0  0  0  0
 24 37  1  0  0  0  0
M  END
$$$$
