CHEMBL494270
 OpenBabel04072215383D

 61 65  0  0  0  0  0  0  0  0999 V2000
    0.5884   -0.8891   -2.7315 C   0  0  0  0  0  0  0  0  0  0  0  0
    0.1150   -0.4273   -1.3753 C   0  0  0  0  0  0  0  0  0  0  0  0
   -0.4331    0.8762   -1.3174 C   0  0  0  0  0  0  0  0  0  0  0  0
   -0.8471    1.4431   -0.1088 C   0  0  0  0  0  0  0  0  0  0  0  0
   -0.7491    0.7013    1.0626 C   0  0  0  0  0  0  0  0  0  0  0  0
   -1.1165    1.2431    2.3996 C   0  0  0  0  0  0  0  0  0  0  0  0
   -0.5611    0.8107    3.4042 O   0  0  0  0  0  0  0  0  0  0  0  0
   -2.1070    2.2051    2.4304 N   0  0  0  0  0  0  0  0  0  0  0  0
   -2.5763    2.7556    3.6632 C   0  0  0  0  0  0  0  0  0  0  0  0
   -3.6783    2.0823    4.4323 C   0  0  0  0  0  0  0  0  0  0  0  0
   -3.9326    3.3954    3.7536 C   0  0  0  0  0  0  0  0  0  0  0  0
   -0.2247   -0.5989    1.0102 C   0  0  0  0  0  0  0  0  0  0  0  0
    0.2423   -1.1986   -0.1854 C   0  0  0  0  0  0  0  0  0  0  0  0
    0.8807   -2.5446   -0.0878 C   0  0  0  0  0  0  0  0  0  0  0  0
    1.6942   -2.8860    1.0152 C   0  0  0  0  0  0  0  0  0  0  0  0
    2.3199   -4.1348    1.1305 C   0  0  0  0  0  0  0  0  0  0  0  0
    2.2114   -5.1093    0.1127 C   0  0  0  0  0  0  0  0  0  0  0  0
    2.8824   -6.3548    0.0941 C   0  0  0  0  0  0  0  0  0  0  0  0
    3.6995   -6.7400    1.1900 N   0  0  0  0  0  0  0  0  0  0  0  0
    4.5676   -7.9090    0.9561 C   0  0  0  0  0  0  0  0  0  0  0  0
    6.0332   -7.4635    0.7239 C   0  0  0  0  0  0  0  0  0  0  0  0
    6.9589   -8.5550    0.3557 N   0  0  0  0  0  0  0  0  0  0  0  0
    7.1323   -9.6050    1.3797 C   0  0  0  0  0  0  0  0  0  0  0  0
    8.0702   -9.2429    2.5469 C   0  0  0  0  0  0  0  0  0  0  0  0
    9.3323   -8.7407    2.0924 O   0  0  0  0  0  0  0  0  0  0  0  0
    9.1449   -7.6281    1.2101 C   0  0  0  0  0  0  0  0  0  0  0  0
    8.2979   -8.0377   -0.0055 C   0  0  0  0  0  0  0  0  0  0  0  0
    2.7295   -7.2004   -0.9503 N   0  0  0  0  0  0  0  0  0  0  0  0
    1.9183   -6.8943   -2.0019 N   0  0  0  0  0  0  0  0  0  0  0  0
    1.2781   -5.7165   -2.0073 C   0  0  0  0  0  0  0  0  0  0  0  0
    1.3875   -4.7851   -0.9799 C   0  0  0  0  0  0  0  0  0  0  0  0
    0.7135   -3.5508   -1.0499 C   0  0  0  0  0  0  0  0  0  0  0  0
    0.4267   -0.1206   -3.4963 H   0  0  0  0  0  0  0  0  0  0  0  0
    0.0234   -1.7567   -3.0766 H   0  0  0  0  0  0  0  0  0  0  0  0
    1.6599   -1.1085   -2.7137 H   0  0  0  0  0  0  0  0  0  0  0  0
   -0.5051    1.4767   -2.2203 H   0  0  0  0  0  0  0  0  0  0  0  0
   -1.2010    2.4689   -0.1077 H   0  0  0  0  0  0  0  0  0  0  0  0
   -2.5972    2.4496    1.5811 H   0  0  0  0  0  0  0  0  0  0  0  0
   -1.7787    3.2036    4.2536 H   0  0  0  0  0  0  0  0  0  0  0  0
   -3.5954    2.0679    5.5129 H   0  0  0  0  0  0  0  0  0  0  0  0
   -4.1268    1.1899    4.0125 H   0  0  0  0  0  0  0  0  0  0  0  0
   -4.0334    4.2763    4.3785 H   0  0  0  0  0  0  0  0  0  0  0  0
   -4.5775    3.3922    2.8835 H   0  0  0  0  0  0  0  0  0  0  0  0
   -0.1692   -1.1542    1.9467 H   0  0  0  0  0  0  0  0  0  0  0  0
    1.8649   -2.1619    1.8125 H   0  0  0  0  0  0  0  0  0  0  0  0
    2.9329   -4.3299    2.0063 H   0  0  0  0  0  0  0  0  0  0  0  0
    3.0656   -6.8970    1.9721 H   0  0  0  0  0  0  0  0  0  0  0  0
    4.2389   -8.5476    0.1284 H   0  0  0  0  0  0  0  0  0  0  0  0
    4.5187   -8.5324    1.8547 H   0  0  0  0  0  0  0  0  0  0  0  0
    6.3856   -6.9174    1.6074 H   0  0  0  0  0  0  0  0  0  0  0  0
    6.0224   -6.7375   -0.1019 H   0  0  0  0  0  0  0  0  0  0  0  0
    7.5674  -10.4710    0.8632 H   0  0  0  0  0  0  0  0  0  0  0  0
    6.1718   -9.9563    1.7687 H   0  0  0  0  0  0  0  0  0  0  0  0
    8.2784  -10.1444    3.1338 H   0  0  0  0  0  0  0  0  0  0  0  0
    7.6130   -8.5085    3.2186 H   0  0  0  0  0  0  0  0  0  0  0  0
   10.1351   -7.2996    0.8789 H   0  0  0  0  0  0  0  0  0  0  0  0
    8.6927   -6.7985    1.7651 H   0  0  0  0  0  0  0  0  0  0  0  0
    8.8250   -8.8431   -0.5343 H   0  0  0  0  0  0  0  0  0  0  0  0
    8.2186   -7.2069   -0.7158 H   0  0  0  0  0  0  0  0  0  0  0  0
    0.6755   -5.5344   -2.8902 H   0  0  0  0  0  0  0  0  0  0  0  0
    0.0362   -3.3879   -1.8845 H   0  0  0  0  0  0  0  0  0  0  0  0
  1  2  1  0  0  0  0
  1 33  1  0  0  0  0
  1 34  1  0  0  0  0
  1 35  1  0  0  0  0
  2  3  1  0  0  0  0
  2 13  2  0  0  0  0
  3  4  2  0  0  0  0
  3 36  1  0  0  0  0
  4  5  1  0  0  0  0
  4 37  1  0  0  0  0
  5  6  1  0  0  0  0
  5 12  2  0  0  0  0
  6  7  2  0  0  0  0
  6  8  1  0  0  0  0
  8  9  1  0  0  0  0
  8 38  1  0  0  0  0
  9 10  1  0  0  0  0
  9 11  1  0  0  0  0
  9 39  1  0  0  0  0
 10 11  1  0  0  0  0
 10 40  1  0  0  0  0
 10 41  1  0  0  0  0
 11 42  1  0  0  0  0
 11 43  1  0  0  0  0
 12 13  1  0  0  0  0
 12 44  1  0  0  0  0
 13 14  1  0  0  0  0
 14 15  1  0  0  0  0
 14 32  2  0  0  0  0
 15 16  2  0  0  0  0
 15 45  1  0  0  0  0
 16 17  1  0  0  0  0
 16 46  1  0  0  0  0
 17 18  1  0  0  0  0
 17 31  2  0  0  0  0
 18 19  1  0  0  0  0
 18 28  2  0  0  0  0
 19 20  1  0  0  0  0
 19 47  1  0  0  0  0
 20 21  1  0  0  0  0
 20 48  1  0  0  0  0
 20 49  1  0  0  0  0
 21 22  1  0  0  0  0
 21 50  1  0  0  0  0
 21 51  1  0  0  0  0
 22 23  1  0  0  0  0
 22 27  1  0  0  0  0
 23 24  1  0  0  0  0
 23 52  1  0  0  0  0
 23 53  1  0  0  0  0
 24 25  1  0  0  0  0
 24 54  1  0  0  0  0
 24 55  1  0  0  0  0
 25 26  1  0  0  0  0
 26 27  1  0  0  0  0
 26 56  1  0  0  0  0
 26 57  1  0  0  0  0
 27 58  1  0  0  0  0
 27 59  1  0  0  0  0
 28 29  1  0  0  0  0
 29 30  2  0  0  0  0
 30 31  1  0  0  0  0
 30 60  1  0  0  0  0
 31 32  1  0  0  0  0
 32 61  1  0  0  0  0
M  END
$$$$
