CHEMBL3940976
 OpenBabel04072215373D

 67 71  0  0  0  0  0  0  0  0999 V2000
    2.6022    0.3477    0.0788 C   0  0  0  0  0  0  0  0  0  0  0  0
    1.1205    0.0894    0.1359 C   0  0  0  0  0  0  0  0  0  0  0  0
    0.3301    1.2642    0.2099 C   0  0  0  0  0  0  0  0  0  0  0  0
   -1.0598    1.2472    0.1468 C   0  0  0  0  0  0  0  0  0  0  0  0
   -1.8299    2.3911    0.2283 O   0  0  0  0  0  0  0  0  0  0  0  0
   -1.3439    3.5507   -0.3825 C   0  0  0  0  0  0  0  0  0  0  0  0
   -1.7620    4.7733    0.1154 C   0  0  0  0  0  0  0  0  0  0  0  0
   -1.3149    5.8878   -0.5692 C   0  0  0  0  0  0  0  0  0  0  0  0
   -1.7599    7.1707   -0.1962 N   0  0  0  0  0  0  0  0  0  0  0  0
   -1.4657    8.3264   -0.9098 C   0  0  0  0  0  0  0  0  0  0  0  0
   -0.7927    8.4289   -1.9234 O   0  0  0  0  0  0  0  0  0  0  0  0
   -2.0419    9.5706   -0.3046 C   0  0  0  0  0  0  0  0  0  0  0  0
   -1.9095   10.9165   -0.9992 C   0  0  0  0  0  0  0  0  0  0  0  0
   -1.0766   10.6158    0.2101 C   0  0  0  0  0  0  0  0  0  0  0  0
   -0.4689    5.7847   -1.6012 N   0  0  0  0  0  0  0  0  0  0  0  0
   -0.1107    4.5638   -1.9938 C   0  0  0  0  0  0  0  0  0  0  0  0
   -0.5345    3.4258   -1.4499 N   0  0  0  0  0  0  0  0  0  0  0  0
   -1.6877    0.0162    0.0732 C   0  0  0  0  0  0  0  0  0  0  0  0
   -0.9229   -1.1642    0.0430 C   0  0  0  0  0  0  0  0  0  0  0  0
    0.4856   -1.1720    0.0801 C   0  0  0  0  0  0  0  0  0  0  0  0
    1.2259   -2.4104    0.0977 N   0  0  0  0  0  0  0  0  0  0  0  0
    0.6492   -3.6913    0.0352 C   0  0  0  0  0  0  0  0  0  0  0  0
   -0.5411   -3.9288   -0.0762 O   0  0  0  0  0  0  0  0  0  0  0  0
    1.5691   -4.7316    0.1820 N   0  0  0  0  0  0  0  0  0  0  0  0
    1.0912   -6.0850    0.1547 C   0  0  0  0  0  0  0  0  0  0  0  0
    1.3759   -6.9368    1.2327 C   0  0  0  0  0  0  0  0  0  0  0  0
    0.9559   -8.2821    1.2634 C   0  0  0  0  0  0  0  0  0  0  0  0
    1.2303   -9.1004    2.3390 N   0  0  0  0  0  0  0  0  0  0  0  0
    1.4703  -10.5489    2.2194 C   0  0  0  0  0  0  0  0  0  0  0  0
    0.4962  -11.3333    3.1115 C   0  0  0  0  0  0  0  0  0  0  0  0
    0.5342  -10.8705    4.4723 O   0  0  0  0  0  0  0  0  0  0  0  0
    0.1860   -9.4772    4.5323 C   0  0  0  0  0  0  0  0  0  0  0  0
    1.1688   -8.6113    3.7247 C   0  0  0  0  0  0  0  0  0  0  0  0
    0.2509   -8.7560    0.1502 C   0  0  0  0  0  0  0  0  0  0  0  0
   -0.0595   -7.9319   -0.9457 C   0  0  0  0  0  0  0  0  0  0  0  0
   -0.8011   -8.5056   -2.1287 C   0  0  0  0  0  0  0  0  0  0  0  0
   -1.0671   -9.8405   -2.0069 F   0  0  0  0  0  0  0  0  0  0  0  0
   -2.0056   -7.9131   -2.3505 F   0  0  0  0  0  0  0  0  0  0  0  0
   -0.0994   -8.3837   -3.2902 F   0  0  0  0  0  0  0  0  0  0  0  0
    0.3528   -6.5873   -0.9254 C   0  0  0  0  0  0  0  0  0  0  0  0
    2.8136    1.4146    0.2473 H   0  0  0  0  0  0  0  0  0  0  0  0
    2.9956    0.1155   -0.9138 H   0  0  0  0  0  0  0  0  0  0  0  0
    3.1370   -0.1970    0.8574 H   0  0  0  0  0  0  0  0  0  0  0  0
    0.8289    2.2275    0.2986 H   0  0  0  0  0  0  0  0  0  0  0  0
   -2.4104    4.8280    0.9797 H   0  0  0  0  0  0  0  0  0  0  0  0
   -2.3569    7.2481    0.6145 H   0  0  0  0  0  0  0  0  0  0  0  0
   -2.9662    9.4333    0.2493 H   0  0  0  0  0  0  0  0  0  0  0  0
   -2.7057   11.6469   -0.8902 H   0  0  0  0  0  0  0  0  0  0  0  0
   -1.4079   10.9663   -1.9600 H   0  0  0  0  0  0  0  0  0  0  0  0
   -1.3193   11.1135    1.1402 H   0  0  0  0  0  0  0  0  0  0  0  0
   -0.0158   10.4522    0.0498 H   0  0  0  0  0  0  0  0  0  0  0  0
    0.5833    4.4987   -2.8223 H   0  0  0  0  0  0  0  0  0  0  0  0
   -2.7706   -0.0643    0.0390 H   0  0  0  0  0  0  0  0  0  0  0  0
   -1.5000   -2.0815   -0.0111 H   0  0  0  0  0  0  0  0  0  0  0  0
    2.2267   -2.3451    0.1025 H   0  0  0  0  0  0  0  0  0  0  0  0
    2.3051   -4.5509    0.8520 H   0  0  0  0  0  0  0  0  0  0  0  0
    1.9241   -6.5384    2.0800 H   0  0  0  0  0  0  0  0  0  0  0  0
    2.4951  -10.7405    2.5600 H   0  0  0  0  0  0  0  0  0  0  0  0
    1.4129  -10.9157    1.1896 H   0  0  0  0  0  0  0  0  0  0  0  0
    0.7735  -12.3925    3.1177 H   0  0  0  0  0  0  0  0  0  0  0  0
   -0.5321  -11.2598    2.7383 H   0  0  0  0  0  0  0  0  0  0  0  0
    0.2041   -9.1757    5.5841 H   0  0  0  0  0  0  0  0  0  0  0  0
   -0.8403   -9.3519    4.1657 H   0  0  0  0  0  0  0  0  0  0  0  0
    2.1718   -8.6883    4.1602 H   0  0  0  0  0  0  0  0  0  0  0  0
    0.8470   -7.5670    3.7935 H   0  0  0  0  0  0  0  0  0  0  0  0
   -0.0994   -9.7869    0.1328 H   0  0  0  0  0  0  0  0  0  0  0  0
    0.1128   -5.9440   -1.7710 H   0  0  0  0  0  0  0  0  0  0  0  0
  1  2  1  0  0  0  0
  1 41  1  0  0  0  0
  1 42  1  0  0  0  0
  1 43  1  0  0  0  0
  2  3  1  0  0  0  0
  2 20  2  0  0  0  0
  3  4  2  0  0  0  0
  3 44  1  0  0  0  0
  4  5  1  0  0  0  0
  4 18  1  0  0  0  0
  5  6  1  0  0  0  0
  6  7  1  0  0  0  0
  6 17  2  0  0  0  0
  7  8  2  0  0  0  0
  7 45  1  0  0  0  0
  8  9  1  0  0  0  0
  8 15  1  0  0  0  0
  9 10  1  0  0  0  0
  9 46  1  0  0  0  0
 10 11  2  0  0  0  0
 10 12  1  0  0  0  0
 12 13  1  0  0  0  0
 12 14  1  0  0  0  0
 12 47  1  0  0  0  0
 13 14  1  0  0  0  0
 13 48  1  0  0  0  0
 13 49  1  0  0  0  0
 14 50  1  0  0  0  0
 14 51  1  0  0  0  0
 15 16  2  0  0  0  0
 16 17  1  0  0  0  0
 16 52  1  0  0  0  0
 18 19  2  0  0  0  0
 18 53  1  0  0  0  0
 19 20  1  0  0  0  0
 19 54  1  0  0  0  0
 20 21  1  0  0  0  0
 21 22  1  0  0  0  0
 21 55  1  0  0  0  0
 22 23  2  0  0  0  0
 22 24  1  0  0  0  0
 24 25  1  0  0  0  0
 24 56  1  0  0  0  0
 25 26  1  0  0  0  0
 25 40  2  0  0  0  0
 26 27  2  0  0  0  0
 26 57  1  0  0  0  0
 27 28  1  0  0  0  0
 27 34  1  0  0  0  0
 28 29  1  0  0  0  0
 28 33  1  0  0  0  0
 29 30  1  0  0  0  0
 29 58  1  0  0  0  0
 29 59  1  0  0  0  0
 30 31  1  0  0  0  0
 30 60  1  0  0  0  0
 30 61  1  0  0  0  0
 31 32  1  0  0  0  0
 32 33  1  0  0  0  0
 32 62  1  0  0  0  0
 32 63  1  0  0  0  0
 33 64  1  0  0  0  0
 33 65  1  0  0  0  0
 34 35  2  0  0  0  0
 34 66  1  0  0  0  0
 35 36  1  0  0  0  0
 35 40  1  0  0  0  0
 36 37  1  0  0  0  0
 36 38  1  0  0  0  0
 36 39  1  0  0  0  0
 40 67  1  0  0  0  0
M  END
$$$$
