CHEMBL3739572
 OpenBabel04072215373D

 65 69  0  0  0  0  0  0  0  0999 V2000
   -5.1991   -6.3000    5.1262 C   0  0  0  0  0  0  0  0  0  0  0  0
   -4.2187   -5.6311    4.2086 C   0  0  0  0  0  0  0  0  0  0  0  0
   -2.8446   -5.8108    4.3889 C   0  0  0  0  0  0  0  0  0  0  0  0
   -1.9518   -5.1831    3.5384 C   0  0  0  0  0  0  0  0  0  0  0  0
   -2.4270   -4.3701    2.5009 C   0  0  0  0  0  0  0  0  0  0  0  0
   -3.8038   -4.1787    2.2826 C   0  0  0  0  0  0  0  0  0  0  0  0
   -4.3633   -3.3471    1.2606 N   0  0  0  0  0  0  0  0  0  0  0  0
   -3.6097   -2.6874    0.3162 C   0  0  0  0  0  0  0  0  0  0  0  0
   -2.3980   -2.8786    0.1824 O   0  0  0  0  0  0  0  0  0  0  0  0
   -4.2140   -1.6925   -0.6332 C   0  0  0  0  0  0  0  0  0  0  0  0
   -3.1848   -0.9189   -1.2528 C   0  0  0  0  0  0  0  0  0  0  0  0
   -3.4784    0.2122   -1.9977 C   0  0  0  0  0  0  0  0  0  0  0  0
   -4.7595    0.3336   -2.4427 C   0  0  0  0  0  0  0  0  0  0  0  0
   -5.6032   -0.7363   -2.2138 C   0  0  0  0  0  0  0  0  0  0  0  0
   -6.6630   -0.9377   -3.0510 C   0  0  0  0  0  0  0  0  0  0  0  0
   -7.7463   -0.3012   -2.5614 C   0  0  0  0  0  0  0  0  0  0  0  0
   -8.2155    0.5133   -3.5445 O   0  0  0  0  0  0  0  0  0  0  0  0
   -9.0273    1.5810   -3.3239 C   0  0  0  0  0  0  0  0  0  0  0  0
   -8.8438    2.7059   -4.1155 C   0  0  0  0  0  0  0  0  0  0  0  0
   -9.8241    3.6560   -4.0264 C   0  0  0  0  0  0  0  0  0  0  0  0
  -10.8978    3.5048   -3.2394 N   0  0  0  0  0  0  0  0  0  0  0  0
  -10.9955    2.3439   -2.5429 C   0  0  0  0  0  0  0  0  0  0  0  0
  -12.1294    2.1750   -1.7961 N   0  0  0  0  0  0  0  0  0  0  0  0
  -12.8168    1.0012   -1.4161 C   0  0  0  0  0  0  0  0  0  0  0  0
  -13.7783    1.1070   -0.4071 C   0  0  0  0  0  0  0  0  0  0  0  0
  -14.4646   -0.0143    0.0546 C   0  0  0  0  0  0  0  0  0  0  0  0
  -14.1888   -1.2735   -0.4754 C   0  0  0  0  0  0  0  0  0  0  0  0
  -13.2241   -1.4299   -1.4771 C   0  0  0  0  0  0  0  0  0  0  0  0
  -12.8258   -2.7963   -1.9818 C   0  0  0  0  0  0  0  0  0  0  0  0
  -14.1574   -3.6866   -2.7852 S   0  0  0  0  0  0  0  0  0  0  0  0
  -14.6548   -2.6623   -4.1486 C   0  0  0  0  0  0  0  0  0  0  0  0
  -13.5727   -4.8869   -3.3612 O   0  0  0  0  0  0  0  0  0  0  0  0
  -15.2848   -3.8092   -1.8794 O   0  0  0  0  0  0  0  0  0  0  0  0
  -12.5353   -0.2821   -1.9226 C   0  0  0  0  0  0  0  0  0  0  0  0
  -10.0905    1.3685   -2.5604 N   0  0  0  0  0  0  0  0  0  0  0  0
   -8.0123   -0.6138   -1.2316 C   0  0  0  0  0  0  0  0  0  0  0  0
   -6.9773   -1.3330   -0.4833 C   0  0  0  0  0  0  0  0  0  0  0  0
   -5.5891   -1.3661   -0.9939 C   0  0  0  0  0  0  0  0  0  0  0  0
   -4.6892   -4.8282    3.1506 C   0  0  0  0  0  0  0  0  0  0  0  0
   -4.6988   -6.7499    5.9899 H   0  0  0  0  0  0  0  0  0  0  0  0
   -5.7358   -7.0876    4.5885 H   0  0  0  0  0  0  0  0  0  0  0  0
   -5.9148   -5.5640    5.5059 H   0  0  0  0  0  0  0  0  0  0  0  0
   -2.4629   -6.4341    5.1936 H   0  0  0  0  0  0  0  0  0  0  0  0
   -0.8772   -5.3055    3.6711 H   0  0  0  0  0  0  0  0  0  0  0  0
   -1.6672   -3.8940    1.8889 H   0  0  0  0  0  0  0  0  0  0  0  0
   -5.3664   -3.2445    1.2396 H   0  0  0  0  0  0  0  0  0  0  0  0
   -2.1308   -1.1443   -1.1050 H   0  0  0  0  0  0  0  0  0  0  0  0
   -2.7183    0.9207   -2.2865 H   0  0  0  0  0  0  0  0  0  0  0  0
   -5.0760    1.1806   -3.0421 H   0  0  0  0  0  0  0  0  0  0  0  0
   -6.8932   -2.0163   -3.1899 H   0  0  0  0  0  0  0  0  0  0  0  0
   -8.0030    2.8100   -4.7905 H   0  0  0  0  0  0  0  0  0  0  0  0
   -9.7973    4.5657   -4.6203 H   0  0  0  0  0  0  0  0  0  0  0  0
  -12.6318    3.0398   -1.6921 H   0  0  0  0  0  0  0  0  0  0  0  0
  -13.9839    2.0745    0.0435 H   0  0  0  0  0  0  0  0  0  0  0  0
  -15.2026    0.0943    0.8452 H   0  0  0  0  0  0  0  0  0  0  0  0
  -14.7230   -2.1325   -0.0725 H   0  0  0  0  0  0  0  0  0  0  0  0
  -12.4802   -3.4171   -1.1482 H   0  0  0  0  0  0  0  0  0  0  0  0
  -12.0119   -2.7348   -2.7126 H   0  0  0  0  0  0  0  0  0  0  0  0
  -13.7820   -2.4537   -4.7696 H   0  0  0  0  0  0  0  0  0  0  0  0
  -15.1026   -1.7428   -3.7717 H   0  0  0  0  0  0  0  0  0  0  0  0
  -15.3930   -3.2206   -4.7311 H   0  0  0  0  0  0  0  0  0  0  0  0
  -11.7616   -0.4010   -2.6790 H   0  0  0  0  0  0  0  0  0  0  0  0
   -8.9300   -0.2872   -0.7503 H   0  0  0  0  0  0  0  0  0  0  0  0
   -7.2011   -1.6380    0.5379 H   0  0  0  0  0  0  0  0  0  0  0  0
   -5.7654   -4.7125    3.0178 H   0  0  0  0  0  0  0  0  0  0  0  0
  1  2  1  0  0  0  0
  1 40  1  0  0  0  0
  1 41  1  0  0  0  0
  1 42  1  0  0  0  0
  2  3  1  0  0  0  0
  2 39  2  0  0  0  0
  3  4  2  0  0  0  0
  3 43  1  0  0  0  0
  4  5  1  0  0  0  0
  4 44  1  0  0  0  0
  5  6  2  0  0  0  0
  5 45  1  0  0  0  0
  6  7  1  0  0  0  0
  6 39  1  0  0  0  0
  7  8  1  0  0  0  0
  7 46  1  0  0  0  0
  8  9  2  0  0  0  0
  8 10  1  0  0  0  0
 10 11  1  0  0  0  0
 10 38  2  0  0  0  0
 11 12  2  0  0  0  0
 11 47  1  0  0  0  0
 12 13  1  0  0  0  0
 12 48  1  0  0  0  0
 13 14  2  0  0  0  0
 13 49  1  0  0  0  0
 14 15  1  0  0  0  0
 14 38  1  0  0  0  0
 15 16  2  0  0  0  0
 15 50  1  0  0  0  0
 16 17  1  0  0  0  0
 16 36  1  0  0  0  0
 17 18  1  0  0  0  0
 18 19  1  0  0  0  0
 18 35  2  0  0  0  0
 19 20  2  0  0  0  0
 19 51  1  0  0  0  0
 20 21  1  0  0  0  0
 20 52  1  0  0  0  0
 21 22  2  0  0  0  0
 22 23  1  0  0  0  0
 22 35  1  0  0  0  0
 23 24  1  0  0  0  0
 23 53  1  0  0  0  0
 24 25  1  0  0  0  0
 24 34  2  0  0  0  0
 25 26  2  0  0  0  0
 25 54  1  0  0  0  0
 26 27  1  0  0  0  0
 26 55  1  0  0  0  0
 27 28  2  0  0  0  0
 27 56  1  0  0  0  0
 28 29  1  0  0  0  0
 28 34  1  0  0  0  0
 29 30  1  0  0  0  0
 29 57  1  0  0  0  0
 29 58  1  0  0  0  0
 30 31  1  0  0  0  0
 30 32  2  0  0  0  0
 30 33  2  0  0  0  0
 31 59  1  0  0  0  0
 31 60  1  0  0  0  0
 31 61  1  0  0  0  0
 34 62  1  0  0  0  0
 36 37  2  0  0  0  0
 36 63  1  0  0  0  0
 37 38  1  0  0  0  0
 37 64  1  0  0  0  0
 39 65  1  0  0  0  0
M  END
$$$$
