CHEMBL3961927
 OpenBabel04072215373D

 68 71  0  0  0  0  0  0  0  0999 V2000
    4.6575    1.6872   -1.1415 C   0  0  0  0  0  0  0  0  0  0  0  0
    4.2780    1.4099    0.3102 C   0  0  0  0  0  0  0  0  0  0  0  0
    4.6376    2.4782    1.2608 N   0  0  0  0  0  0  0  0  0  0  0  0
    4.1132    3.8072    0.8813 C   0  0  0  0  0  0  0  0  0  0  0  0
    2.5940    3.9752    0.9072 C   0  0  0  0  0  0  0  0  0  0  0  0
    4.2334    2.1351    2.6450 C   0  0  0  0  0  0  0  0  0  0  0  0
    4.8680    0.8631    3.2348 C   0  0  0  0  0  0  0  0  0  0  0  0
    6.3111    0.9378    3.3079 N   0  0  0  0  0  0  0  0  0  0  0  0
    7.0254    0.1238    4.1626 C   0  0  0  0  0  0  0  0  0  0  0  0
    6.4561   -0.6376    4.9429 O   0  0  0  0  0  0  0  0  0  0  0  0
    8.4745    0.2197    4.0944 C   0  0  0  0  0  0  0  0  0  0  0  0
    9.3756   -0.4764    4.8780 C   0  0  0  0  0  0  0  0  0  0  0  0
   10.7303   -0.1644    4.5827 C   0  0  0  0  0  0  0  0  0  0  0  0
   11.8131   -0.7073    5.2024 N   0  0  0  0  0  0  0  0  0  0  0  0
   13.0125   -0.2976    4.7524 C   0  0  0  0  0  0  0  0  0  0  0  0
   13.2107    0.6312    3.7520 C   0  0  0  0  0  0  0  0  0  0  0  0
   12.0959    1.2464    3.1804 C   0  0  0  0  0  0  0  0  0  0  0  0
   12.1829    2.2266    2.2220 O   0  0  0  0  0  0  0  0  0  0  0  0
   13.1426    3.2014    2.3595 C   0  0  0  0  0  0  0  0  0  0  0  0
   13.6169    3.7367    1.1742 C   0  0  0  0  0  0  0  0  0  0  0  0
   14.6263    4.6969    1.2021 C   0  0  0  0  0  0  0  0  0  0  0  0
   15.1652    5.1446    2.4159 C   0  0  0  0  0  0  0  0  0  0  0  0
   16.2103    6.0932    2.5025 N   0  0  0  0  0  0  0  0  0  0  0  0
   16.7090    6.8114    1.4397 C   0  0  0  0  0  0  0  0  0  0  0  0
   16.2575    6.7772    0.2975 O   0  0  0  0  0  0  0  0  0  0  0  0
   17.8177    7.5787    1.7850 N   0  0  0  0  0  0  0  0  0  0  0  0
   18.4305    8.3129    0.7360 C   0  0  0  0  0  0  0  0  0  0  0  0
   17.6614    9.1331   -0.1002 C   0  0  0  0  0  0  0  0  0  0  0  0
   18.1973    9.6404   -1.2876 C   0  0  0  0  0  0  0  0  0  0  0  0
   17.3306   10.4177   -2.2338 C   0  0  0  0  0  0  0  0  0  0  0  0
   19.5229    9.3310   -1.6202 C   0  0  0  0  0  0  0  0  0  0  0  0
   20.3150    8.5743   -0.7504 C   0  0  0  0  0  0  0  0  0  0  0  0
   19.7713    8.0884    0.4337 C   0  0  0  0  0  0  0  0  0  0  0  0
   20.5139    7.3027    1.2288 F   0  0  0  0  0  0  0  0  0  0  0  0
   14.6540    4.6292    3.6040 C   0  0  0  0  0  0  0  0  0  0  0  0
   13.6248    3.6810    3.5814 C   0  0  0  0  0  0  0  0  0  0  0  0
   10.8317    0.7930    3.5772 C   0  0  0  0  0  0  0  0  0  0  0  0
    9.2792    1.2581    3.0035 S   0  0  0  0  0  0  0  0  0  0  0  0
    4.5776    0.7641   -1.7257 H   0  0  0  0  0  0  0  0  0  0  0  0
    5.6894    2.0439   -1.2237 H   0  0  0  0  0  0  0  0  0  0  0  0
    3.9911    2.4235   -1.6013 H   0  0  0  0  0  0  0  0  0  0  0  0
    4.8187    0.4984    0.5857 H   0  0  0  0  0  0  0  0  0  0  0  0
    3.2088    1.1734    0.3645 H   0  0  0  0  0  0  0  0  0  0  0  0
    4.4842    4.0816   -0.1127 H   0  0  0  0  0  0  0  0  0  0  0  0
    4.5521    4.5605    1.5488 H   0  0  0  0  0  0  0  0  0  0  0  0
    2.0749    3.1577    0.3992 H   0  0  0  0  0  0  0  0  0  0  0  0
    2.3130    4.9050    0.4009 H   0  0  0  0  0  0  0  0  0  0  0  0
    2.2197    4.0371    1.9342 H   0  0  0  0  0  0  0  0  0  0  0  0
    3.1443    2.0250    2.7101 H   0  0  0  0  0  0  0  0  0  0  0  0
    4.5160    2.9684    3.3023 H   0  0  0  0  0  0  0  0  0  0  0  0
    4.6098   -0.0297    2.6565 H   0  0  0  0  0  0  0  0  0  0  0  0
    4.4732    0.7061    4.2449 H   0  0  0  0  0  0  0  0  0  0  0  0
    6.7991    1.4395    2.5734 H   0  0  0  0  0  0  0  0  0  0  0  0
    9.0748   -1.1838    5.6410 H   0  0  0  0  0  0  0  0  0  0  0  0
   13.8656   -0.7526    5.2506 H   0  0  0  0  0  0  0  0  0  0  0  0
   14.2188    0.8912    3.4469 H   0  0  0  0  0  0  0  0  0  0  0  0
   13.2150    3.4116    0.2185 H   0  0  0  0  0  0  0  0  0  0  0  0
   14.9676    5.0639    0.2404 H   0  0  0  0  0  0  0  0  0  0  0  0
   16.5206    6.3701    3.4227 H   0  0  0  0  0  0  0  0  0  0  0  0
   18.4661    7.0974    2.3973 H   0  0  0  0  0  0  0  0  0  0  0  0
   16.6149    9.3147    0.1397 H   0  0  0  0  0  0  0  0  0  0  0  0
   16.3852   10.7111   -1.7628 H   0  0  0  0  0  0  0  0  0  0  0  0
   17.0972    9.8112   -3.1147 H   0  0  0  0  0  0  0  0  0  0  0  0
   17.8389   11.3337   -2.5493 H   0  0  0  0  0  0  0  0  0  0  0  0
   19.9354    9.6599   -2.5715 H   0  0  0  0  0  0  0  0  0  0  0  0
   21.3350    8.3183   -1.0166 H   0  0  0  0  0  0  0  0  0  0  0  0
   15.0416    4.9510    4.5692 H   0  0  0  0  0  0  0  0  0  0  0  0
   13.2238    3.3187    4.5229 H   0  0  0  0  0  0  0  0  0  0  0  0
  1  2  1  0  0  0  0
  1 39  1  0  0  0  0
  1 40  1  0  0  0  0
  1 41  1  0  0  0  0
  2  3  1  0  0  0  0
  2 42  1  0  0  0  0
  2 43  1  0  0  0  0
  3  4  1  0  0  0  0
  3  6  1  0  0  0  0
  4  5  1  0  0  0  0
  4 44  1  0  0  0  0
  4 45  1  0  0  0  0
  5 46  1  0  0  0  0
  5 47  1  0  0  0  0
  5 48  1  0  0  0  0
  6  7  1  0  0  0  0
  6 49  1  0  0  0  0
  6 50  1  0  0  0  0
  7  8  1  0  0  0  0
  7 51  1  0  0  0  0
  7 52  1  0  0  0  0
  8  9  1  0  0  0  0
  8 53  1  0  0  0  0
  9 10  2  0  0  0  0
  9 11  1  0  0  0  0
 11 12  2  0  0  0  0
 11 38  1  0  0  0  0
 12 13  1  0  0  0  0
 12 54  1  0  0  0  0
 13 14  1  0  0  0  0
 13 37  2  0  0  0  0
 14 15  2  0  0  0  0
 15 16  1  0  0  0  0
 15 55  1  0  0  0  0
 16 17  2  0  0  0  0
 16 56  1  0  0  0  0
 17 18  1  0  0  0  0
 17 37  1  0  0  0  0
 18 19  1  0  0  0  0
 19 20  1  0  0  0  0
 19 36  2  0  0  0  0
 20 21  2  0  0  0  0
 20 57  1  0  0  0  0
 21 22  1  0  0  0  0
 21 58  1  0  0  0  0
 22 23  1  0  0  0  0
 22 35  2  0  0  0  0
 23 24  1  0  0  0  0
 23 59  1  0  0  0  0
 24 25  2  0  0  0  0
 24 26  1  0  0  0  0
 26 27  1  0  0  0  0
 26 60  1  0  0  0  0
 27 28  1  0  0  0  0
 27 33  2  0  0  0  0
 28 29  2  0  0  0  0
 28 61  1  0  0  0  0
 29 30  1  0  0  0  0
 29 31  1  0  0  0  0
 30 62  1  0  0  0  0
 30 63  1  0  0  0  0
 30 64  1  0  0  0  0
 31 32  2  0  0  0  0
 31 65  1  0  0  0  0
 32 33  1  0  0  0  0
 32 66  1  0  0  0  0
 33 34  1  0  0  0  0
 35 36  1  0  0  0  0
 35 67  1  0  0  0  0
 36 68  1  0  0  0  0
 37 38  1  0  0  0  0
M  END
$$$$
