CHEMBL4570955
 OpenBabel04072215383D

 51 54  0  0  0  0  0  0  0  0999 V2000
    0.3851    0.2623    6.6807 O   0  0  0  0  0  0  0  0  0  0  0  0
    1.1716    1.0425    6.1388 C   0  0  0  0  0  0  0  0  0  0  0  0
    2.5921    1.2663    6.6229 C   0  0  0  0  0  0  0  0  0  0  0  0
    3.2958   -0.2386    7.3515 S   0  0  0  0  0  0  0  0  0  0  0  0
    3.2724   -1.3006    5.9297 C   0  0  0  0  0  0  0  0  0  0  0  0
    3.3887   -0.7542    4.7082 N   0  0  0  0  0  0  0  0  0  0  0  0
    3.5190   -1.6259    3.6935 C   0  0  0  0  0  0  0  0  0  0  0  0
    3.5356   -2.9912    3.8575 C   0  0  0  0  0  0  0  0  0  0  0  0
    3.3991   -3.4618    5.1483 C   0  0  0  0  0  0  0  0  0  0  0  0
    3.5106   -4.8520    5.3580 N   0  0  0  0  0  0  0  0  0  0  0  0
    3.8153   -5.5592    6.5378 C   0  0  0  0  0  0  0  0  0  0  0  0
    4.3354   -4.9529    7.6830 C   0  0  0  0  0  0  0  0  0  0  0  0
    4.7867   -5.7068    8.7729 C   0  0  0  0  0  0  0  0  0  0  0  0
    4.7716   -7.1033    8.7566 C   0  0  0  0  0  0  0  0  0  0  0  0
    5.2826   -7.8559    9.7879 N   0  0  0  0  0  0  0  0  0  0  0  0
    5.3014   -7.4134   11.1892 C   0  0  0  0  0  0  0  0  0  0  0  0
    6.7336   -7.4398   11.7449 C   0  0  0  0  0  0  0  0  0  0  0  0
    7.3606   -8.7197   11.5490 O   0  0  0  0  0  0  0  0  0  0  0  0
    7.4119   -9.0330   10.1481 C   0  0  0  0  0  0  0  0  0  0  0  0
    6.0054   -9.1115    9.5328 C   0  0  0  0  0  0  0  0  0  0  0  0
    4.2263   -7.7057    7.6133 C   0  0  0  0  0  0  0  0  0  0  0  0
    3.7606   -6.9548    6.5253 C   0  0  0  0  0  0  0  0  0  0  0  0
    3.2699   -2.6160    6.1799 N   0  0  0  0  0  0  0  0  0  0  0  0
    0.6455    1.8861    5.0303 C   0  0  0  0  0  0  0  0  0  0  0  0
   -0.7251    2.1869    5.0371 C   0  0  0  0  0  0  0  0  0  0  0  0
   -1.2882    2.9478    4.0117 C   0  0  0  0  0  0  0  0  0  0  0  0
   -0.4826    3.4036    2.9718 C   0  0  0  0  0  0  0  0  0  0  0  0
   -1.1768    4.3212    1.6940 Cl  0  0  0  0  0  0  0  0  0  0  0  0
    0.8802    3.1068    2.9520 C   0  0  0  0  0  0  0  0  0  0  0  0
    1.4481    2.3464    3.9807 C   0  0  0  0  0  0  0  0  0  0  0  0
    2.5565    2.0348    7.4022 H   0  0  0  0  0  0  0  0  0  0  0  0
    3.2620    1.6248    5.8409 H   0  0  0  0  0  0  0  0  0  0  0  0
    3.6458   -1.1816    2.7101 H   0  0  0  0  0  0  0  0  0  0  0  0
    3.6985   -3.6553    3.0196 H   0  0  0  0  0  0  0  0  0  0  0  0
    2.9560   -5.3869    4.7016 H   0  0  0  0  0  0  0  0  0  0  0  0
    4.4272   -3.8749    7.7559 H   0  0  0  0  0  0  0  0  0  0  0  0
    5.2106   -5.1633    9.6115 H   0  0  0  0  0  0  0  0  0  0  0  0
    4.6836   -8.1147   11.7624 H   0  0  0  0  0  0  0  0  0  0  0  0
    4.8635   -6.4209   11.3381 H   0  0  0  0  0  0  0  0  0  0  0  0
    6.7138   -7.2468   12.8224 H   0  0  0  0  0  0  0  0  0  0  0  0
    7.3537   -6.6656   11.2781 H   0  0  0  0  0  0  0  0  0  0  0  0
    7.9157   -9.9987   10.0401 H   0  0  0  0  0  0  0  0  0  0  0  0
    8.0235   -8.2791    9.6370 H   0  0  0  0  0  0  0  0  0  0  0  0
    5.4416   -9.9306    9.9919 H   0  0  0  0  0  0  0  0  0  0  0  0
    6.1153   -9.3314    8.4655 H   0  0  0  0  0  0  0  0  0  0  0  0
    4.1459   -8.7878    7.5554 H   0  0  0  0  0  0  0  0  0  0  0  0
    3.3705   -7.4862    5.6616 H   0  0  0  0  0  0  0  0  0  0  0  0
   -1.3616    1.8209    5.8424 H   0  0  0  0  0  0  0  0  0  0  0  0
   -2.3523    3.1680    4.0280 H   0  0  0  0  0  0  0  0  0  0  0  0
    1.5028    3.4513    2.1297 H   0  0  0  0  0  0  0  0  0  0  0  0
    2.5036    2.0984    3.9157 H   0  0  0  0  0  0  0  0  0  0  0  0
  1  2  2  0  0  0  0
  2  3  1  0  0  0  0
  2 24  1  0  0  0  0
  3  4  1  0  0  0  0
  3 31  1  0  0  0  0
  3 32  1  0  0  0  0
  4  5  1  0  0  0  0
  5  6  1  0  0  0  0
  5 23  2  0  0  0  0
  6  7  2  0  0  0  0
  7  8  1  0  0  0  0
  7 33  1  0  0  0  0
  8  9  2  0  0  0  0
  8 34  1  0  0  0  0
  9 10  1  0  0  0  0
  9 23  1  0  0  0  0
 10 11  1  0  0  0  0
 10 35  1  0  0  0  0
 11 12  1  0  0  0  0
 11 22  2  0  0  0  0
 12 13  2  0  0  0  0
 12 36  1  0  0  0  0
 13 14  1  0  0  0  0
 13 37  1  0  0  0  0
 14 15  1  0  0  0  0
 14 21  2  0  0  0  0
 15 16  1  0  0  0  0
 15 20  1  0  0  0  0
 16 17  1  0  0  0  0
 16 38  1  0  0  0  0
 16 39  1  0  0  0  0
 17 18  1  0  0  0  0
 17 40  1  0  0  0  0
 17 41  1  0  0  0  0
 18 19  1  0  0  0  0
 19 20  1  0  0  0  0
 19 42  1  0  0  0  0
 19 43  1  0  0  0  0
 20 44  1  0  0  0  0
 20 45  1  0  0  0  0
 21 22  1  0  0  0  0
 21 46  1  0  0  0  0
 22 47  1  0  0  0  0
 24 25  1  0  0  0  0
 24 30  2  0  0  0  0
 25 26  2  0  0  0  0
 25 48  1  0  0  0  0
 26 27  1  0  0  0  0
 26 49  1  0  0  0  0
 27 28  1  0  0  0  0
 27 29  2  0  0  0  0
 29 30  1  0  0  0  0
 29 50  1  0  0  0  0
 30 51  1  0  0  0  0
M  END
$$$$
