CHEMBL3919501
 OpenBabel04072215373D

 46 49  0  0  0  0  0  0  0  0999 V2000
    2.4234    1.1413   -0.1268 C   0  0  0  0  0  0  0  0  0  0  0  0
    2.2637   -0.2747   -0.2544 O   0  0  0  0  0  0  0  0  0  0  0  0
    3.1028   -1.0747    0.4778 C   0  0  0  0  0  0  0  0  0  0  0  0
    4.2601   -0.5899    1.1075 C   0  0  0  0  0  0  0  0  0  0  0  0
    5.0561   -1.4180    1.9361 C   0  0  0  0  0  0  0  0  0  0  0  0
    6.1867   -1.0133    2.6573 C   0  0  0  0  0  0  0  0  0  0  0  0
    6.5498    0.3652    2.6596 N   0  0  0  0  0  0  0  0  0  0  0  0
    7.8285    0.8067    3.0571 C   0  0  0  0  0  0  0  0  0  0  0  0
    8.9720    0.1890    2.5303 C   0  0  0  0  0  0  0  0  0  0  0  0
   10.2435    0.5342    2.9785 C   0  0  0  0  0  0  0  0  0  0  0  0
   10.3892    1.5197    3.9529 C   0  0  0  0  0  0  0  0  0  0  0  0
   11.9878    1.8602    4.5085 Cl  0  0  0  0  0  0  0  0  0  0  0  0
    9.2587    2.1785    4.4524 C   0  0  0  0  0  0  0  0  0  0  0  0
    9.3700    3.4183    5.6519 Cl  0  0  0  0  0  0  0  0  0  0  0  0
    7.9815    1.8288    3.9979 C   0  0  0  0  0  0  0  0  0  0  0  0
    6.9312   -1.8737    3.3709 N   0  0  0  0  0  0  0  0  0  0  0  0
    6.5319   -3.1425    3.3993 C   0  0  0  0  0  0  0  0  0  0  0  0
    5.4473   -3.6267    2.7960 N   0  0  0  0  0  0  0  0  0  0  0  0
    4.7303   -2.7639    2.0752 C   0  0  0  0  0  0  0  0  0  0  0  0
    3.6192   -3.2401    1.4256 C   0  0  0  0  0  0  0  0  0  0  0  0
    2.7916   -2.4423    0.6088 C   0  0  0  0  0  0  0  0  0  0  0  0
    1.7029   -2.9844   -0.0716 O   0  0  0  0  0  0  0  0  0  0  0  0
    1.5545   -4.4018    0.1641 C   0  0  0  0  0  0  0  0  0  0  0  0
    0.4348   -5.0714   -0.6104 C   0  0  0  0  0  0  0  0  0  0  0  0
    0.4007   -6.5875   -0.2314 C   0  0  0  0  0  0  0  0  0  0  0  0
    0.0509   -6.8910   -1.6931 C   0  0  0  0  0  0  0  0  0  0  0  0
    0.7085   -5.5437   -2.0643 C   0  0  0  0  0  0  0  0  0  0  0  0
    3.0830    1.5157   -0.9164 H   0  0  0  0  0  0  0  0  0  0  0  0
    2.7916    1.4641    0.8536 H   0  0  0  0  0  0  0  0  0  0  0  0
    1.4426    1.6113   -0.2467 H   0  0  0  0  0  0  0  0  0  0  0  0
    4.5934    0.4323    0.9470 H   0  0  0  0  0  0  0  0  0  0  0  0
    5.7939    0.9014    3.0780 H   0  0  0  0  0  0  0  0  0  0  0  0
    8.8664   -0.5976    1.7849 H   0  0  0  0  0  0  0  0  0  0  0  0
   11.1067    0.0118    2.5757 H   0  0  0  0  0  0  0  0  0  0  0  0
    7.1095    2.3280    4.4119 H   0  0  0  0  0  0  0  0  0  0  0  0
    7.1396   -3.8435    3.9580 H   0  0  0  0  0  0  0  0  0  0  0  0
    3.4303   -4.2957    1.5939 H   0  0  0  0  0  0  0  0  0  0  0  0
    1.3393   -4.5454    1.2311 H   0  0  0  0  0  0  0  0  0  0  0  0
    2.4882   -4.9077   -0.1153 H   0  0  0  0  0  0  0  0  0  0  0  0
   -0.5425   -4.5899   -0.4828 H   0  0  0  0  0  0  0  0  0  0  0  0
   -0.3428   -6.8812    0.5141 H   0  0  0  0  0  0  0  0  0  0  0  0
    1.3699   -7.0116    0.0689 H   0  0  0  0  0  0  0  0  0  0  0  0
   -1.0270   -6.9366   -1.8797 H   0  0  0  0  0  0  0  0  0  0  0  0
    0.5243   -7.7849   -2.1096 H   0  0  0  0  0  0  0  0  0  0  0  0
    0.1990   -4.9836   -2.8514 H   0  0  0  0  0  0  0  0  0  0  0  0
    1.7702   -5.6368   -2.3215 H   0  0  0  0  0  0  0  0  0  0  0  0
  1  2  1  0  0  0  0
  1 28  1  0  0  0  0
  1 29  1  0  0  0  0
  1 30  1  0  0  0  0
  2  3  1  0  0  0  0
  3  4  1  0  0  0  0
  3 21  2  0  0  0  0
  4  5  2  0  0  0  0
  4 31  1  0  0  0  0
  5  6  1  0  0  0  0
  5 19  1  0  0  0  0
  6  7  1  0  0  0  0
  6 16  2  0  0  0  0
  7  8  1  0  0  0  0
  7 32  1  0  0  0  0
  8  9  1  0  0  0  0
  8 15  2  0  0  0  0
  9 10  2  0  0  0  0
  9 33  1  0  0  0  0
 10 11  1  0  0  0  0
 10 34  1  0  0  0  0
 11 12  1  0  0  0  0
 11 13  2  0  0  0  0
 13 14  1  0  0  0  0
 13 15  1  0  0  0  0
 15 35  1  0  0  0  0
 16 17  1  0  0  0  0
 17 18  2  0  0  0  0
 17 36  1  0  0  0  0
 18 19  1  0  0  0  0
 19 20  2  0  0  0  0
 20 21  1  0  0  0  0
 20 37  1  0  0  0  0
 21 22  1  0  0  0  0
 22 23  1  0  0  0  0
 23 24  1  0  0  0  0
 23 38  1  0  0  0  0
 23 39  1  0  0  0  0
 24 25  1  0  0  0  0
 24 27  1  0  0  0  0
 24 40  1  0  0  0  0
 25 26  1  0  0  0  0
 25 41  1  0  0  0  0
 25 42  1  0  0  0  0
 26 27  1  0  0  0  0
 26 43  1  0  0  0  0
 26 44  1  0  0  0  0
 27 45  1  0  0  0  0
 27 46  1  0  0  0  0
M  END
$$$$
