CHEMBL3676363
 OpenBabel04072215373D

 58 60  0  0  0  0  0  0  0  0999 V2000
    3.1760   -3.4285    1.5383 C   0  0  0  0  0  0  0  0  0  0  0  0
    3.3288   -2.9126    0.3124 C   0  0  0  0  0  0  0  0  0  0  0  0
    3.5599   -1.4516    0.1528 C   0  0  0  0  0  0  0  0  0  0  0  0
    3.1192   -0.6290    0.9515 O   0  0  0  0  0  0  0  0  0  0  0  0
    4.3393   -1.0419   -0.9048 N   0  0  0  0  0  0  0  0  0  0  0  0
    5.2022   -1.9188   -1.5877 C   0  0  0  0  0  0  0  0  0  0  0  0
    6.2774   -2.4610   -0.8794 C   0  0  0  0  0  0  0  0  0  0  0  0
    6.9742   -3.5746   -1.3914 C   0  0  0  0  0  0  0  0  0  0  0  0
    7.9480   -4.2969   -0.6869 C   0  0  0  0  0  0  0  0  0  0  0  0
    8.2463   -3.9649    0.6631 N   0  0  0  0  0  0  0  0  0  0  0  0
    8.8946   -4.8626    1.5474 C   0  0  0  0  0  0  0  0  0  0  0  0
    8.5022   -6.2070    1.6081 C   0  0  0  0  0  0  0  0  0  0  0  0
    9.2376   -7.1335    2.3449 C   0  0  0  0  0  0  0  0  0  0  0  0
   10.3595   -6.7177    3.0642 C   0  0  0  0  0  0  0  0  0  0  0  0
   11.3711   -8.0673    3.9384 Br  0  0  0  0  0  0  0  0  0  0  0  0
   10.7124   -5.3631    3.0931 C   0  0  0  0  0  0  0  0  0  0  0  0
   12.0611   -4.7803    4.0038 Cl  0  0  0  0  0  0  0  0  0  0  0  0
    9.9690   -4.4469    2.3411 C   0  0  0  0  0  0  0  0  0  0  0  0
   10.3059   -3.1445    2.3303 F   0  0  0  0  0  0  0  0  0  0  0  0
    8.5578   -5.3695   -1.2235 N   0  0  0  0  0  0  0  0  0  0  0  0
    8.1810   -5.7418   -2.4454 C   0  0  0  0  0  0  0  0  0  0  0  0
    7.2364   -5.1542   -3.1838 N   0  0  0  0  0  0  0  0  0  0  0  0
    6.6350   -4.0865   -2.6539 C   0  0  0  0  0  0  0  0  0  0  0  0
    5.6044   -3.4849   -3.3667 C   0  0  0  0  0  0  0  0  0  0  0  0
    4.8892   -2.3932   -2.8655 C   0  0  0  0  0  0  0  0  0  0  0  0
    3.8791   -1.9406   -3.6787 O   0  0  0  0  0  0  0  0  0  0  0  0
    3.6397   -0.5283   -3.6256 C   0  0  0  0  0  0  0  0  0  0  0  0
    3.1946   -0.0060   -4.9962 C   0  0  0  0  0  0  0  0  0  0  0  0
    3.0499    1.4422   -5.0061 N   0  0  0  0  0  0  0  0  0  0  0  0
    4.1550    2.2685   -5.0131 C   0  0  0  0  0  0  0  0  0  0  0  0
    5.2985    1.8595   -5.2033 O   0  0  0  0  0  0  0  0  0  0  0  0
    3.8454    3.7556   -4.7844 C   0  0  0  0  0  0  0  0  0  0  0  0
    2.7747    3.9536   -3.7696 N   0  0  0  0  0  0  0  0  0  0  0  0
    3.2065    3.4894   -2.4442 C   0  0  0  0  0  0  0  0  0  0  0  0
    2.4676    5.3891   -3.6839 C   0  0  0  0  0  0  0  0  0  0  0  0
    3.0681   -4.4982    1.6814 H   0  0  0  0  0  0  0  0  0  0  0  0
    3.1753   -2.7972    2.4227 H   0  0  0  0  0  0  0  0  0  0  0  0
    3.3459   -3.5482   -0.5637 H   0  0  0  0  0  0  0  0  0  0  0  0
    4.7092   -0.1201   -0.6972 H   0  0  0  0  0  0  0  0  0  0  0  0
    6.5083   -2.0814    0.1132 H   0  0  0  0  0  0  0  0  0  0  0  0
    8.6212   -3.0210    0.7291 H   0  0  0  0  0  0  0  0  0  0  0  0
    7.6428   -6.5485    1.0337 H   0  0  0  0  0  0  0  0  0  0  0  0
    8.9402   -8.1793    2.3194 H   0  0  0  0  0  0  0  0  0  0  0  0
    8.6741   -6.6104   -2.8680 H   0  0  0  0  0  0  0  0  0  0  0  0
    5.3271   -3.9021   -4.3330 H   0  0  0  0  0  0  0  0  0  0  0  0
    4.5402    0.0183   -3.3205 H   0  0  0  0  0  0  0  0  0  0  0  0
    2.8400   -0.3346   -2.9007 H   0  0  0  0  0  0  0  0  0  0  0  0
    2.2327   -0.4449   -5.2812 H   0  0  0  0  0  0  0  0  0  0  0  0
    3.9247   -0.2969   -5.7602 H   0  0  0  0  0  0  0  0  0  0  0  0
    2.1941    1.8676   -4.6580 H   0  0  0  0  0  0  0  0  0  0  0  0
    3.5288    4.1566   -5.7499 H   0  0  0  0  0  0  0  0  0  0  0  0
    4.7711    4.2583   -4.4835 H   0  0  0  0  0  0  0  0  0  0  0  0
    3.4203    2.4133   -2.4460 H   0  0  0  0  0  0  0  0  0  0  0  0
    2.4022    3.6347   -1.7146 H   0  0  0  0  0  0  0  0  0  0  0  0
    4.0985    4.0131   -2.0892 H   0  0  0  0  0  0  0  0  0  0  0  0
    2.1465    5.7808   -4.6562 H   0  0  0  0  0  0  0  0  0  0  0  0
    3.3315    5.9775   -3.3478 H   0  0  0  0  0  0  0  0  0  0  0  0
    1.6420    5.5637   -2.9854 H   0  0  0  0  0  0  0  0  0  0  0  0
  1  2  2  0  0  0  0
  1 36  1  0  0  0  0
  1 37  1  0  0  0  0
  2  3  1  0  0  0  0
  2 38  1  0  0  0  0
  3  4  2  0  0  0  0
  3  5  1  0  0  0  0
  5  6  1  0  0  0  0
  5 39  1  0  0  0  0
  6  7  1  0  0  0  0
  6 25  2  0  0  0  0
  7  8  2  0  0  0  0
  7 40  1  0  0  0  0
  8  9  1  0  0  0  0
  8 23  1  0  0  0  0
  9 10  1  0  0  0  0
  9 20  2  0  0  0  0
 10 11  1  0  0  0  0
 10 41  1  0  0  0  0
 11 12  1  0  0  0  0
 11 18  2  0  0  0  0
 12 13  2  0  0  0  0
 12 42  1  0  0  0  0
 13 14  1  0  0  0  0
 13 43  1  0  0  0  0
 14 15  1  0  0  0  0
 14 16  2  0  0  0  0
 16 17  1  0  0  0  0
 16 18  1  0  0  0  0
 18 19  1  0  0  0  0
 20 21  1  0  0  0  0
 21 22  2  0  0  0  0
 21 44  1  0  0  0  0
 22 23  1  0  0  0  0
 23 24  2  0  0  0  0
 24 25  1  0  0  0  0
 24 45  1  0  0  0  0
 25 26  1  0  0  0  0
 26 27  1  0  0  0  0
 27 28  1  0  0  0  0
 27 46  1  0  0  0  0
 27 47  1  0  0  0  0
 28 29  1  0  0  0  0
 28 48  1  0  0  0  0
 28 49  1  0  0  0  0
 29 30  1  0  0  0  0
 29 50  1  0  0  0  0
 30 31  2  0  0  0  0
 30 32  1  0  0  0  0
 32 33  1  0  0  0  0
 32 51  1  0  0  0  0
 32 52  1  0  0  0  0
 33 34  1  0  0  0  0
 33 35  1  0  0  0  0
 34 53  1  0  0  0  0
 34 54  1  0  0  0  0
 34 55  1  0  0  0  0
 35 56  1  0  0  0  0
 35 57  1  0  0  0  0
 35 58  1  0  0  0  0
M  END
$$$$
