CHEMBL206403
 OpenBabel04072215363D

 44 47  0  0  0  0  0  0  0  0999 V2000
    2.3219   -0.3639   -3.9955 C   0  0  0  0  0  0  0  0  0  0  0  0
    1.2395   -1.1756   -3.3462 C   0  0  0  0  0  0  0  0  0  0  0  0
    1.3097   -1.4932   -1.9851 C   0  0  0  0  0  0  0  0  0  0  0  0
    0.2741   -2.1865   -1.3513 C   0  0  0  0  0  0  0  0  0  0  0  0
   -0.8506   -2.5843   -2.0785 C   0  0  0  0  0  0  0  0  0  0  0  0
   -1.9563   -3.2501   -1.5045 N   0  0  0  0  0  0  0  0  0  0  0  0
   -2.2143   -3.4517   -0.1571 C   0  0  0  0  0  0  0  0  0  0  0  0
   -1.5416   -3.0327    0.7769 O   0  0  0  0  0  0  0  0  0  0  0  0
   -3.4467   -4.2501    0.1254 C   0  0  0  0  0  0  0  0  0  0  0  0
   -4.5860   -3.9978   -0.6655 C   0  0  0  0  0  0  0  0  0  0  0  0
   -5.7282   -4.7857   -0.5460 C   0  0  0  0  0  0  0  0  0  0  0  0
   -5.7478   -5.8312    0.3669 C   0  0  0  0  0  0  0  0  0  0  0  0
   -4.6531   -6.0438    1.2071 C   0  0  0  0  0  0  0  0  0  0  0  0
   -3.4983   -5.2357    1.1347 C   0  0  0  0  0  0  0  0  0  0  0  0
   -2.4062   -5.4695    2.1646 C   0  0  0  0  0  0  0  0  0  0  0  0
   -1.4108   -6.4615    1.7257 N   0  0  0  0  0  0  0  0  0  0  0  0
   -0.2012   -6.0590    1.1445 C   0  0  0  0  0  0  0  0  0  0  0  0
    0.7427   -6.8850    0.6680 C   0  0  0  0  0  0  0  0  0  0  0  0
    0.4552   -8.3154    0.7917 C   0  0  0  0  0  0  0  0  0  0  0  0
    1.1259   -9.3584    0.4128 N   0  0  0  0  0  0  0  0  0  0  0  0
    0.3249  -10.4134    0.8328 C   0  0  0  0  0  0  0  0  0  0  0  0
   -0.7861  -10.1190    1.4521 N   0  0  0  0  0  0  0  0  0  0  0  0
   -0.7761   -8.7574    1.4511 C   0  0  0  0  0  0  0  0  0  0  0  0
   -1.6343   -7.8337    1.8870 C   0  0  0  0  0  0  0  0  0  0  0  0
   -0.8888   -2.3151   -3.4527 C   0  0  0  0  0  0  0  0  0  0  0  0
   -1.9468   -2.7156   -4.1758 F   0  0  0  0  0  0  0  0  0  0  0  0
    0.1383   -1.6194   -4.0864 C   0  0  0  0  0  0  0  0  0  0  0  0
    3.0326    0.0116   -3.2527 H   0  0  0  0  0  0  0  0  0  0  0  0
    1.8848    0.5048   -4.4983 H   0  0  0  0  0  0  0  0  0  0  0  0
    2.8708   -0.9684   -4.7223 H   0  0  0  0  0  0  0  0  0  0  0  0
    2.1691   -1.1883   -1.3911 H   0  0  0  0  0  0  0  0  0  0  0  0
    0.3734   -2.4055   -0.2967 H   0  0  0  0  0  0  0  0  0  0  0  0
   -2.6355   -3.5784   -2.1824 H   0  0  0  0  0  0  0  0  0  0  0  0
   -4.6024   -3.1711   -1.3727 H   0  0  0  0  0  0  0  0  0  0  0  0
   -6.5972   -4.5869   -1.1688 H   0  0  0  0  0  0  0  0  0  0  0  0
   -6.6233   -6.4711    0.4434 H   0  0  0  0  0  0  0  0  0  0  0  0
   -4.7097   -6.8513    1.9349 H   0  0  0  0  0  0  0  0  0  0  0  0
   -2.8771   -5.8249    3.0944 H   0  0  0  0  0  0  0  0  0  0  0  0
   -1.9318   -4.5326    2.4751 H   0  0  0  0  0  0  0  0  0  0  0  0
   -0.0553   -4.9839    1.1059 H   0  0  0  0  0  0  0  0  0  0  0  0
    1.6688   -6.5568    0.2210 H   0  0  0  0  0  0  0  0  0  0  0  0
    0.6331  -11.4533    0.6389 H   0  0  0  0  0  0  0  0  0  0  0  0
   -2.5541   -8.1148    2.3844 H   0  0  0  0  0  0  0  0  0  0  0  0
    0.0620   -1.4148   -5.1511 H   0  0  0  0  0  0  0  0  0  0  0  0
  1  2  1  0  0  0  0
  1 28  1  0  0  0  0
  1 29  1  0  0  0  0
  1 30  1  0  0  0  0
  2  3  1  0  0  0  0
  2 27  2  0  0  0  0
  3  4  2  0  0  0  0
  3 31  1  0  0  0  0
  4  5  1  0  0  0  0
  4 32  1  0  0  0  0
  5  6  1  0  0  0  0
  5 25  2  0  0  0  0
  6  7  1  0  0  0  0
  6 33  1  0  0  0  0
  7  8  2  0  0  0  0
  7  9  1  0  0  0  0
  9 10  1  0  0  0  0
  9 14  2  0  0  0  0
 10 11  2  0  0  0  0
 10 34  1  0  0  0  0
 11 12  1  0  0  0  0
 11 35  1  0  0  0  0
 12 13  2  0  0  0  0
 12 36  1  0  0  0  0
 13 14  1  0  0  0  0
 13 37  1  0  0  0  0
 14 15  1  0  0  0  0
 15 16  1  0  0  0  0
 15 38  1  0  0  0  0
 15 39  1  0  0  0  0
 16 17  1  0  0  0  0
 16 24  1  0  0  0  0
 17 18  2  0  0  0  0
 17 40  1  0  0  0  0
 18 19  1  0  0  0  0
 18 41  1  0  0  0  0
 19 20  2  0  0  0  0
 19 23  1  0  0  0  0
 20 21  1  0  0  0  0
 21 22  2  0  0  0  0
 21 42  1  0  0  0  0
 22 23  1  0  0  0  0
 23 24  2  0  0  0  0
 24 43  1  0  0  0  0
 25 26  1  0  0  0  0
 25 27  1  0  0  0  0
 27 44  1  0  0  0  0
M  END
$$$$
