CHEMBL271042
 OpenBabel04072215363D

 50 55  0  0  0  0  0  0  0  0999 V2000
    3.9699   -0.3610   -3.0694 C   0  0  0  0  0  0  0  0  0  0  0  0
    3.3585    0.5377   -2.0041 C   0  0  0  0  0  0  0  0  0  0  0  0
    3.7946    0.1858   -0.5696 C   0  0  0  0  0  0  0  0  0  0  0  0
    5.2242    0.3515   -0.3240 N   0  0  0  0  0  0  0  0  0  0  0  0
    5.8804    1.5946   -0.4366 C   0  0  0  0  0  0  0  0  0  0  0  0
    5.3732    2.9021   -0.5691 C   0  0  0  0  0  0  0  0  0  0  0  0
    6.2735    3.9464   -0.8159 C   0  0  0  0  0  0  0  0  0  0  0  0
    7.6427    3.7160   -0.8757 C   0  0  0  0  0  0  0  0  0  0  0  0
    8.1470    2.4246   -0.7280 C   0  0  0  0  0  0  0  0  0  0  0  0
    7.2587    1.3494   -0.5441 C   0  0  0  0  0  0  0  0  0  0  0  0
    7.3151   -0.0317   -0.5423 C   0  0  0  0  0  0  0  0  0  0  0  0
    8.4055   -0.7539   -1.0508 C   0  0  0  0  0  0  0  0  0  0  0  0
    8.1138   -2.0604   -1.4964 C   0  0  0  0  0  0  0  0  0  0  0  0
    6.8736   -2.6930   -1.3078 C   0  0  0  0  0  0  0  0  0  0  0  0
    6.0963   -2.0999   -0.2615 C   0  0  0  0  0  0  0  0  0  0  0  0
    6.1517   -0.6883   -0.2504 C   0  0  0  0  0  0  0  0  0  0  0  0
    6.0964   -2.9713    1.0596 C   0  0  0  0  0  0  0  0  0  0  0  0
    7.1300   -4.1709    1.0405 C   0  0  0  0  0  0  0  0  0  0  0  0
    6.9160   -4.8978   -0.2398 C   0  0  0  0  0  0  0  0  0  0  0  0
    6.5177   -6.1580   -0.4023 N   0  0  0  0  0  0  0  0  0  0  0  0
    6.0583   -6.1581   -1.6794 N   0  0  0  0  0  0  0  0  0  0  0  0
    5.3950   -7.3304   -2.1972 C   0  0  0  0  0  0  0  0  0  0  0  0
    6.0847   -4.9186   -2.2737 C   0  0  0  0  0  0  0  0  0  0  0  0
    6.7996   -4.1298   -1.4085 C   0  0  0  0  0  0  0  0  0  0  0  0
    9.3407   -2.6248   -2.0081 C   0  0  0  0  0  0  0  0  0  0  0  0
    9.6361   -3.7052   -2.4911 O   0  0  0  0  0  0  0  0  0  0  0  0
   10.2857   -1.6256   -1.8043 N   0  0  0  0  0  0  0  0  0  0  0  0
    9.7963   -0.3780   -1.2622 C   0  0  0  0  0  0  0  0  0  0  0  0
    3.5930   -0.0795   -4.0586 H   0  0  0  0  0  0  0  0  0  0  0  0
    3.7116   -1.4091   -2.8928 H   0  0  0  0  0  0  0  0  0  0  0  0
    5.0596   -0.2681   -3.0966 H   0  0  0  0  0  0  0  0  0  0  0  0
    2.2663    0.4659   -2.0690 H   0  0  0  0  0  0  0  0  0  0  0  0
    3.6077    1.5759   -2.2473 H   0  0  0  0  0  0  0  0  0  0  0  0
    3.5193   -0.8470   -0.3296 H   0  0  0  0  0  0  0  0  0  0  0  0
    3.2766    0.8373    0.1440 H   0  0  0  0  0  0  0  0  0  0  0  0
    4.3074    3.1053   -0.5424 H   0  0  0  0  0  0  0  0  0  0  0  0
    5.8963    4.9533   -0.9798 H   0  0  0  0  0  0  0  0  0  0  0  0
    8.3279    4.5385   -1.0663 H   0  0  0  0  0  0  0  0  0  0  0  0
    9.2182    2.2660   -0.7858 H   0  0  0  0  0  0  0  0  0  0  0  0
    5.0898   -3.3811    1.1940 H   0  0  0  0  0  0  0  0  0  0  0  0
    6.3352   -2.3333    1.9179 H   0  0  0  0  0  0  0  0  0  0  0  0
    7.0297   -4.8239    1.9106 H   0  0  0  0  0  0  0  0  0  0  0  0
    8.1577   -3.7731    1.0470 H   0  0  0  0  0  0  0  0  0  0  0  0
    5.6262   -8.1888   -1.5615 H   0  0  0  0  0  0  0  0  0  0  0  0
    5.7501   -7.5126   -3.2140 H   0  0  0  0  0  0  0  0  0  0  0  0
    4.3184   -7.1410   -2.1942 H   0  0  0  0  0  0  0  0  0  0  0  0
    5.5607   -4.7157   -3.1973 H   0  0  0  0  0  0  0  0  0  0  0  0
   11.2537   -1.8169   -2.0127 H   0  0  0  0  0  0  0  0  0  0  0  0
    9.9226    0.4033   -2.0122 H   0  0  0  0  0  0  0  0  0  0  0  0
   10.3118   -0.1496   -0.3259 H   0  0  0  0  0  0  0  0  0  0  0  0
  1  2  1  0  0  0  0
  1 29  1  0  0  0  0
  1 30  1  0  0  0  0
  1 31  1  0  0  0  0
  2  3  1  0  0  0  0
  2 32  1  0  0  0  0
  2 33  1  0  0  0  0
  3  4  1  0  0  0  0
  3 34  1  0  0  0  0
  3 35  1  0  0  0  0
  4  5  1  0  0  0  0
  4 16  1  0  0  0  0
  5  6  1  0  0  0  0
  5 10  2  0  0  0  0
  6  7  2  0  0  0  0
  6 36  1  0  0  0  0
  7  8  1  0  0  0  0
  7 37  1  0  0  0  0
  8  9  2  0  0  0  0
  8 38  1  0  0  0  0
  9 10  1  0  0  0  0
  9 39  1  0  0  0  0
 10 11  1  0  0  0  0
 11 12  1  0  0  0  0
 11 16  2  0  0  0  0
 12 13  2  0  0  0  0
 12 28  1  0  0  0  0
 13 14  1  0  0  0  0
 13 25  1  0  0  0  0
 14 15  2  0  0  0  0
 14 24  1  0  0  0  0
 15 16  1  0  0  0  0
 15 17  1  0  0  0  0
 17 18  1  0  0  0  0
 17 40  1  0  0  0  0
 17 41  1  0  0  0  0
 18 19  1  0  0  0  0
 18 42  1  0  0  0  0
 18 43  1  0  0  0  0
 19 20  2  0  0  0  0
 19 24  1  0  0  0  0
 20 21  1  0  0  0  0
 21 22  1  0  0  0  0
 21 23  1  0  0  0  0
 22 44  1  0  0  0  0
 22 45  1  0  0  0  0
 22 46  1  0  0  0  0
 23 24  2  0  0  0  0
 23 47  1  0  0  0  0
 25 26  2  0  0  0  0
 25 27  1  0  0  0  0
 27 28  1  0  0  0  0
 27 48  1  0  0  0  0
 28 49  1  0  0  0  0
 28 50  1  0  0  0  0
M  END
$$$$
