CHEMBL452827
 OpenBabel04072215383D

 50 53  0  0  0  0  0  0  0  0999 V2000
    1.1355   -0.3099   -0.0106 C   0  0  0  0  0  0  0  0  0  0  0  0
    2.6543   -0.3148   -0.0024 C   0  0  0  0  0  0  0  0  0  0  0  0
    3.1687   -0.2416   -1.3647 N   0  0  0  0  0  0  0  0  0  0  0  0
    4.5127   -0.2878   -1.5376 C   0  0  0  0  0  0  0  0  0  0  0  0
    5.3666   -0.8785   -0.6989 N   0  0  0  0  0  0  0  0  0  0  0  0
    6.5713   -0.6569   -1.2437 N   0  0  0  0  0  0  0  0  0  0  0  0
    7.7362   -1.3101   -0.6952 C   0  0  0  0  0  0  0  0  0  0  0  0
    6.5427    0.1188   -2.3722 C   0  0  0  0  0  0  0  0  0  0  0  0
    7.5645    0.6240   -3.1836 C   0  0  0  0  0  0  0  0  0  0  0  0
    7.1924    1.2437   -4.3822 C   0  0  0  0  0  0  0  0  0  0  0  0
    8.1238    1.6788   -5.3064 O   0  0  0  0  0  0  0  0  0  0  0  0
    9.2443    0.8961   -5.5531 C   0  0  0  0  0  0  0  0  0  0  0  0
    9.2141   -0.4945   -5.4533 C   0  0  0  0  0  0  0  0  0  0  0  0
   10.3846   -1.1843   -5.6760 C   0  0  0  0  0  0  0  0  0  0  0  0
   11.5377   -0.5993   -6.0623 N   0  0  0  0  0  0  0  0  0  0  0  0
   11.5455    0.7345   -6.2618 C   0  0  0  0  0  0  0  0  0  0  0  0
   12.6809    1.3355   -6.8057 C   0  0  0  0  0  0  0  0  0  0  0  0
   12.7551    2.7122   -7.1180 C   0  0  0  0  0  0  0  0  0  0  0  0
   13.7985    3.0272   -7.9491 O   0  0  0  0  0  0  0  0  0  0  0  0
   14.7945    3.9176   -7.4634 C   0  0  0  0  0  0  0  0  0  0  0  0
   11.6707    3.5283   -6.7964 C   0  0  0  0  0  0  0  0  0  0  0  0
   11.4278    4.8545   -6.9909 O   0  0  0  0  0  0  0  0  0  0  0  0
   12.3684    5.7194   -7.5808 C   0  0  0  0  0  0  0  0  0  0  0  0
   10.5311    2.9264   -6.2228 C   0  0  0  0  0  0  0  0  0  0  0  0
   10.4266    1.5367   -5.9957 C   0  0  0  0  0  0  0  0  0  0  0  0
    5.8459    1.4702   -4.6762 C   0  0  0  0  0  0  0  0  0  0  0  0
    4.8341    1.0265   -3.8058 C   0  0  0  0  0  0  0  0  0  0  0  0
    5.1915    0.3171   -2.6396 C   0  0  0  0  0  0  0  0  0  0  0  0
    0.7525   -0.3109    1.0150 H   0  0  0  0  0  0  0  0  0  0  0  0
    0.7436   -1.1937   -0.5240 H   0  0  0  0  0  0  0  0  0  0  0  0
    0.7453    0.5778   -0.5193 H   0  0  0  0  0  0  0  0  0  0  0  0
    3.0017   -1.2252    0.5008 H   0  0  0  0  0  0  0  0  0  0  0  0
    3.0109    0.5491    0.5717 H   0  0  0  0  0  0  0  0  0  0  0  0
    2.6451    0.3829   -1.9669 H   0  0  0  0  0  0  0  0  0  0  0  0
    7.4696   -1.8242    0.2313 H   0  0  0  0  0  0  0  0  0  0  0  0
    8.5004   -0.5547   -0.4995 H   0  0  0  0  0  0  0  0  0  0  0  0
    8.0947   -2.0359   -1.4314 H   0  0  0  0  0  0  0  0  0  0  0  0
    8.6066    0.4885   -2.9155 H   0  0  0  0  0  0  0  0  0  0  0  0
    8.3134   -1.0399   -5.1924 H   0  0  0  0  0  0  0  0  0  0  0  0
   10.4265   -2.2635   -5.5520 H   0  0  0  0  0  0  0  0  0  0  0  0
   13.5187    0.6882   -7.0609 H   0  0  0  0  0  0  0  0  0  0  0  0
   15.7833    3.4727   -7.6182 H   0  0  0  0  0  0  0  0  0  0  0  0
   14.6846    4.1866   -6.4090 H   0  0  0  0  0  0  0  0  0  0  0  0
   14.7775    4.8138   -8.0919 H   0  0  0  0  0  0  0  0  0  0  0  0
   11.8720    6.6841   -7.7294 H   0  0  0  0  0  0  0  0  0  0  0  0
   12.6859    5.3687   -8.5650 H   0  0  0  0  0  0  0  0  0  0  0  0
   13.2023    5.9091   -6.9001 H   0  0  0  0  0  0  0  0  0  0  0  0
    9.6690    3.5595   -6.0160 H   0  0  0  0  0  0  0  0  0  0  0  0
    5.5702    1.9874   -5.5922 H   0  0  0  0  0  0  0  0  0  0  0  0
    3.7896    1.2043   -4.0457 H   0  0  0  0  0  0  0  0  0  0  0  0
  1  2  1  0  0  0  0
  1 29  1  0  0  0  0
  1 30  1  0  0  0  0
  1 31  1  0  0  0  0
  2  3  1  0  0  0  0
  2 32  1  0  0  0  0
  2 33  1  0  0  0  0
  3  4  1  0  0  0  0
  3 34  1  0  0  0  0
  4  5  2  0  0  0  0
  4 28  1  0  0  0  0
  5  6  1  0  0  0  0
  6  7  1  0  0  0  0
  6  8  1  0  0  0  0
  7 35  1  0  0  0  0
  7 36  1  0  0  0  0
  7 37  1  0  0  0  0
  8  9  1  0  0  0  0
  8 28  2  0  0  0  0
  9 10  2  0  0  0  0
  9 38  1  0  0  0  0
 10 11  1  0  0  0  0
 10 26  1  0  0  0  0
 11 12  1  0  0  0  0
 12 13  1  0  0  0  0
 12 25  2  0  0  0  0
 13 14  2  0  0  0  0
 13 39  1  0  0  0  0
 14 15  1  0  0  0  0
 14 40  1  0  0  0  0
 15 16  2  0  0  0  0
 16 17  1  0  0  0  0
 16 25  1  0  0  0  0
 17 18  2  0  0  0  0
 17 41  1  0  0  0  0
 18 19  1  0  0  0  0
 18 21  1  0  0  0  0
 19 20  1  0  0  0  0
 20 42  1  0  0  0  0
 20 43  1  0  0  0  0
 20 44  1  0  0  0  0
 21 22  1  0  0  0  0
 21 24  2  0  0  0  0
 22 23  1  0  0  0  0
 23 45  1  0  0  0  0
 23 46  1  0  0  0  0
 23 47  1  0  0  0  0
 24 25  1  0  0  0  0
 24 48  1  0  0  0  0
 26 27  2  0  0  0  0
 26 49  1  0  0  0  0
 27 28  1  0  0  0  0
 27 50  1  0  0  0  0
M  END
$$$$
