CHEMBL3694650
 OpenBabel04072215373D

 46 49  0  0  0  0  0  0  0  0999 V2000
    1.0897    0.2266   -0.0006 N   0  0  0  0  0  0  0  0  0  0  0  0
    2.2482    0.1643    0.0047 C   0  0  0  0  0  0  0  0  0  0  0  0
    3.6763    0.1054   -0.0444 C   0  0  0  0  0  0  0  0  0  0  0  0
    4.3738    0.3215   -1.2188 C   0  0  0  0  0  0  0  0  0  0  0  0
    5.7641    0.2658   -1.1786 C   0  0  0  0  0  0  0  0  0  0  0  0
    6.3961   -0.0096    0.0268 C   0  0  0  0  0  0  0  0  0  0  0  0
    7.8694   -0.0088    0.1890 C   0  0  0  0  0  0  0  0  0  0  0  0
    8.4873    0.4158    1.4518 C   0  0  0  0  0  0  0  0  0  0  0  0
    9.8221    0.4422    1.5744 C   0  0  0  0  0  0  0  0  0  0  0  0
   10.6265    0.0246    0.5124 N   0  0  0  0  0  0  0  0  0  0  0  0
   12.0065   -0.1300    0.4098 C   0  0  0  0  0  0  0  0  0  0  0  0
   12.9805   -0.0629    1.5080 C   0  0  0  0  0  0  0  0  0  0  0  0
   12.6230   -0.4857    2.7958 C   0  0  0  0  0  0  0  0  0  0  0  0
   13.5395   -0.4721    3.8364 C   0  0  0  0  0  0  0  0  0  0  0  0
   14.8539   -0.0981    3.5886 C   0  0  0  0  0  0  0  0  0  0  0  0
   15.2680    0.2842    2.3117 C   0  0  0  0  0  0  0  0  0  0  0  0
   16.6122    0.6243    2.0184 N   0  0  0  0  0  0  0  0  0  0  0  0
   17.6687    0.5233    2.8866 C   0  0  0  0  0  0  0  0  0  0  0  0
   17.6501    0.0883    4.0347 O   0  0  0  0  0  0  0  0  0  0  0  0
   18.8454    1.0235    2.3715 N   0  0  0  0  0  0  0  0  0  0  0  0
   20.0363    0.9571    3.2282 C   0  0  0  0  0  0  0  0  0  0  0  0
   20.7089   -0.4200    3.3424 C   0  0  0  0  0  0  0  0  0  0  0  0
   20.1924   -1.3120    2.4656 F   0  0  0  0  0  0  0  0  0  0  0  0
   22.0301   -0.3089    3.0515 F   0  0  0  0  0  0  0  0  0  0  0  0
   20.6150   -0.9421    4.5823 F   0  0  0  0  0  0  0  0  0  0  0  0
   14.3161    0.3270    1.2793 C   0  0  0  0  0  0  0  0  0  0  0  0
   12.2030   -0.4460   -0.9266 C   0  0  0  0  0  0  0  0  0  0  0  0
   11.0228   -0.5859   -1.6066 N   0  0  0  0  0  0  0  0  0  0  0  0
   10.0879   -0.3488   -0.7152 C   0  0  0  0  0  0  0  0  0  0  0  0
    8.6692   -0.3908   -0.8359 C   0  0  0  0  0  0  0  0  0  0  0  0
    5.6704   -0.2110    1.1534 N   0  0  0  0  0  0  0  0  0  0  0  0
    4.3002   -0.1552    1.1215 N   0  0  0  0  0  0  0  0  0  0  0  0
    3.8593    0.5445   -2.1474 H   0  0  0  0  0  0  0  0  0  0  0  0
    6.3308    0.4660   -2.0831 H   0  0  0  0  0  0  0  0  0  0  0  0
    7.8466    0.7112    2.2786 H   0  0  0  0  0  0  0  0  0  0  0  0
   10.2980    0.7830    2.4832 H   0  0  0  0  0  0  0  0  0  0  0  0
   11.6305   -0.8680    3.0166 H   0  0  0  0  0  0  0  0  0  0  0  0
   13.2436   -0.7803    4.8348 H   0  0  0  0  0  0  0  0  0  0  0  0
   15.5324   -0.1322    4.4342 H   0  0  0  0  0  0  0  0  0  0  0  0
   16.8124    0.9514    1.0869 H   0  0  0  0  0  0  0  0  0  0  0  0
   18.9829    0.9036    1.3801 H   0  0  0  0  0  0  0  0  0  0  0  0
   19.7594    1.2990    4.2334 H   0  0  0  0  0  0  0  0  0  0  0  0
   20.7439    1.6877    2.8264 H   0  0  0  0  0  0  0  0  0  0  0  0
   14.6167    0.6392    0.2812 H   0  0  0  0  0  0  0  0  0  0  0  0
   13.1452   -0.6361   -1.4245 H   0  0  0  0  0  0  0  0  0  0  0  0
    8.2843   -0.7395   -1.7873 H   0  0  0  0  0  0  0  0  0  0  0  0
  1  2  3  0  0  0  0
  2  3  1  0  0  0  0
  3  4  1  0  0  0  0
  3 32  2  0  0  0  0
  4  5  2  0  0  0  0
  4 33  1  0  0  0  0
  5  6  1  0  0  0  0
  5 34  1  0  0  0  0
  6  7  1  0  0  0  0
  6 31  2  0  0  0  0
  7  8  1  0  0  0  0
  7 30  2  0  0  0  0
  8  9  2  0  0  0  0
  8 35  1  0  0  0  0
  9 10  1  0  0  0  0
  9 36  1  0  0  0  0
 10 11  1  0  0  0  0
 10 29  1  0  0  0  0
 11 12  1  0  0  0  0
 11 27  2  0  0  0  0
 12 13  1  0  0  0  0
 12 26  2  0  0  0  0
 13 14  2  0  0  0  0
 13 37  1  0  0  0  0
 14 15  1  0  0  0  0
 14 38  1  0  0  0  0
 15 16  2  0  0  0  0
 15 39  1  0  0  0  0
 16 17  1  0  0  0  0
 16 26  1  0  0  0  0
 17 18  1  0  0  0  0
 17 40  1  0  0  0  0
 18 19  2  0  0  0  0
 18 20  1  0  0  0  0
 20 21  1  0  0  0  0
 20 41  1  0  0  0  0
 21 22  1  0  0  0  0
 21 42  1  0  0  0  0
 21 43  1  0  0  0  0
 22 23  1  0  0  0  0
 22 24  1  0  0  0  0
 22 25  1  0  0  0  0
 26 44  1  0  0  0  0
 27 28  1  0  0  0  0
 27 45  1  0  0  0  0
 28 29  2  0  0  0  0
 29 30  1  0  0  0  0
 30 46  1  0  0  0  0
 31 32  1  0  0  0  0
M  END
$$$$
