CHEMBL1969537
 OpenBabel04072215363D

 28 32  0  0  0  0  0  0  0  0999 V2000
    1.0852    0.2506    0.7124 S   0  0  0  0  0  0  0  0  0  0  0  0
    2.6927    0.1777    0.3312 C   0  0  0  0  0  0  0  0  0  0  0  0
    3.3927   -1.0202    0.1309 N   0  0  0  0  0  0  0  0  0  0  0  0
    4.6888   -0.7736   -0.2464 N   0  0  0  0  0  0  0  0  0  0  0  0
    4.7545    0.5240   -0.2766 C   0  0  0  0  0  0  0  0  0  0  0  0
    5.9051    1.3199   -0.5680 C   0  0  0  0  0  0  0  0  0  0  0  0
    7.2836    1.0436   -0.5105 C   0  0  0  0  0  0  0  0  0  0  0  0
    8.0328    2.1836   -0.6505 C   0  0  0  0  0  0  0  0  0  0  0  0
    7.1532    3.5568   -0.9778 S   0  0  0  0  0  0  0  0  0  0  0  0
    5.7081    2.6758   -0.7686 C   0  0  0  0  0  0  0  0  0  0  0  0
    4.4800    3.2697   -0.5953 N   0  0  0  0  0  0  0  0  0  0  0  0
    4.1185    4.5927   -0.4942 C   0  0  0  0  0  0  0  0  0  0  0  0
    4.6443    5.9571   -1.2762 S   0  0  0  0  0  0  0  0  0  0  0  0
    3.0633    4.6050    0.4260 N   0  0  0  0  0  0  0  0  0  0  0  0
    2.7042    3.3101    0.7562 N   0  0  0  0  0  0  0  0  0  0  0  0
    3.5407    2.5687    0.0950 C   0  0  0  0  0  0  0  0  0  0  0  0
    3.6010    1.1872    0.0659 N   0  0  0  0  0  0  0  0  0  0  0  0
    9.4833    1.9884   -0.4064 C   0  0  0  0  0  0  0  0  0  0  0  0
    9.5745    0.4408   -0.5326 C   0  0  0  0  0  0  0  0  0  0  0  0
    8.1524   -0.1139   -0.1838 C   0  0  0  0  0  0  0  0  0  0  0  0
    3.0124   -1.9597    0.1807 H   0  0  0  0  0  0  0  0  0  0  0  0
    3.0207    5.3290    1.1391 H   0  0  0  0  0  0  0  0  0  0  0  0
    9.7436    2.3039    0.6131 H   0  0  0  0  0  0  0  0  0  0  0  0
   10.1270    2.5042   -1.1226 H   0  0  0  0  0  0  0  0  0  0  0  0
   10.3627    0.0112    0.0932 H   0  0  0  0  0  0  0  0  0  0  0  0
    9.8006    0.1930   -1.5780 H   0  0  0  0  0  0  0  0  0  0  0  0
    8.0907   -0.3499    0.8842 H   0  0  0  0  0  0  0  0  0  0  0  0
    7.9191   -1.0062   -0.7697 H   0  0  0  0  0  0  0  0  0  0  0  0
  1  2  2  0  0  0  0
  2  3  1  0  0  0  0
  2 17  1  0  0  0  0
  3  4  1  0  0  0  0
  3 21  1  0  0  0  0
  4  5  2  0  0  0  0
  5  6  1  0  0  0  0
  5 17  1  0  0  0  0
  6  7  1  0  0  0  0
  6 10  2  0  0  0  0
  7  8  2  0  0  0  0
  7 20  1  0  0  0  0
  8  9  1  0  0  0  0
  8 18  1  0  0  0  0
  9 10  1  0  0  0  0
 10 11  1  0  0  0  0
 11 12  1  0  0  0  0
 11 16  1  0  0  0  0
 12 13  2  0  0  0  0
 12 14  1  0  0  0  0
 14 15  1  0  0  0  0
 14 22  1  0  0  0  0
 15 16  2  0  0  0  0
 16 17  1  0  0  0  0
 18 19  1  0  0  0  0
 18 23  1  0  0  0  0
 18 24  1  0  0  0  0
 19 20  1  0  0  0  0
 19 25  1  0  0  0  0
 19 26  1  0  0  0  0
 20 27  1  0  0  0  0
 20 28  1  0  0  0  0
M  END
$$$$
