CHEMBL3763790
 OpenBabel04072215373D

 70 74  0  0  1  0  0  0  0  0999 V2000
   -4.1985   -1.9504  -10.6398 C   0  0  0  0  0  0  0  0  0  0  0  0
   -3.5393   -1.4958  -11.8168 O   0  0  0  0  0  0  0  0  0  0  0  0
   -2.1975   -1.7647  -11.9124 C   0  0  0  0  0  0  0  0  0  0  0  0
   -1.6069   -2.8406  -11.2460 C   0  0  0  0  0  0  0  0  0  0  0  0
   -0.2545   -3.1272  -11.4263 C   0  0  0  0  0  0  0  0  0  0  0  0
    0.5455   -2.3617  -12.2863 C   0  0  0  0  0  0  0  0  0  0  0  0
    1.9287   -2.8249  -12.4175 C   0  0  0  0  0  0  0  0  0  0  0  0
    2.9256   -2.5135  -11.5851 C   0  0  0  0  0  0  0  0  0  0  0  0
    4.2334   -3.1564  -11.8699 C   0  0  0  0  0  0  0  0  0  0  0  0
    4.5821   -3.3679  -13.0248 O   0  0  0  0  0  0  0  0  0  0  0  0
    4.9376   -3.4852  -10.7359 N   0  0  0  0  0  0  0  0  0  0  0  0
    6.2610   -3.9907  -10.6868 C   0  0  0  0  0  0  0  0  0  0  0  0
    7.0179   -4.3476  -11.8134 C   0  0  0  0  0  0  0  0  0  0  0  0
    8.4299   -4.3412  -11.7185 C   0  0  0  0  0  0  0  0  0  0  0  0
    9.3711   -4.6169  -12.7345 C   0  0  0  0  0  0  0  0  0  0  0  0
    9.6169   -6.0084  -13.0270 N   0  0  0  0  0  0  0  0  0  0  0  0
   10.6377   -6.5326  -13.8791 C   0  0  0  0  0  0  0  0  0  0  0  0
   11.1737   -7.8109  -13.6137 C   0  0  0  0  0  0  0  0  0  0  0  0
   11.9545   -8.4802  -14.5648 C   0  0  0  0  0  0  0  0  0  0  0  0
   12.2037   -7.8757  -15.7901 C   0  0  0  0  0  0  0  0  0  0  0  0
   12.8670   -8.5690  -16.7285 F   0  0  0  0  0  0  0  0  0  0  0  0
   11.7434   -6.5869  -16.0441 C   0  0  0  0  0  0  0  0  0  0  0  0
   12.0528   -5.8338  -17.5622 Cl  0  0  0  0  0  0  0  0  0  0  0  0
   10.9750   -5.9134  -15.0888 C   0  0  0  0  0  0  0  0  0  0  0  0
   10.3743   -3.7644  -12.9440 N   0  0  0  0  0  0  0  0  0  0  0  0
   10.6789   -3.0160  -11.8898 C   0  0  0  0  0  0  0  0  0  0  0  0
   10.1710   -3.1700  -10.6534 N   0  0  0  0  0  0  0  0  0  0  0  0
    9.0011   -3.8103  -10.5808 C   0  0  0  0  0  0  0  0  0  0  0  0
    8.2750   -3.8727   -9.3921 C   0  0  0  0  0  0  0  0  0  0  0  0
    6.8909   -3.9927   -9.4408 C   0  0  0  0  0  0  0  0  0  0  0  0
    6.1046   -3.8737   -8.3241 O   0  0  0  0  0  0  0  0  0  0  0  0
    6.3929   -4.8013   -7.2679 C   0  0  1  0  0  0  0  0  0  0  0  0
    6.7783   -4.0532   -6.0105 C   0  0  0  0  0  0  0  0  0  0  0  0
    6.2587   -4.9249   -4.8898 C   0  0  0  0  0  0  0  0  0  0  0  0
    5.1673   -5.6899   -5.4076 O   0  0  0  0  0  0  0  0  0  0  0  0
    5.1166   -5.5153   -6.8294 C   0  0  0  0  0  0  0  0  0  0  0  0
   -0.0306   -1.2935  -12.9767 C   0  0  0  0  0  0  0  0  0  0  0  0
    0.6343   -0.4144  -13.8112 O   0  0  0  0  0  0  0  0  0  0  0  0
    1.6168   -0.9545  -14.6851 C   0  0  0  0  0  0  0  0  0  0  0  0
   -1.4096   -0.9709  -12.7752 C   0  0  0  0  0  0  0  0  0  0  0  0
   -1.8932    0.0736  -13.5309 O   0  0  0  0  0  0  0  0  0  0  0  0
   -2.8774    0.8999  -12.9198 C   0  0  0  0  0  0  0  0  0  0  0  0
   -5.1908   -1.4930  -10.6167 H   0  0  0  0  0  0  0  0  0  0  0  0
   -3.6626   -1.6355   -9.7375 H   0  0  0  0  0  0  0  0  0  0  0  0
   -4.3356   -3.0367  -10.6582 H   0  0  0  0  0  0  0  0  0  0  0  0
   -2.1809   -3.5050  -10.6036 H   0  0  0  0  0  0  0  0  0  0  0  0
    0.1668   -3.9864  -10.9056 H   0  0  0  0  0  0  0  0  0  0  0  0
    2.0863   -3.5205  -13.2463 H   0  0  0  0  0  0  0  0  0  0  0  0
    2.8187   -1.8299  -10.7532 H   0  0  0  0  0  0  0  0  0  0  0  0
    4.5708   -3.1770   -9.8415 H   0  0  0  0  0  0  0  0  0  0  0  0
    6.5701   -4.4513  -12.7972 H   0  0  0  0  0  0  0  0  0  0  0  0
    9.7125   -6.4616  -12.1174 H   0  0  0  0  0  0  0  0  0  0  0  0
   10.9729   -8.3158  -12.6710 H   0  0  0  0  0  0  0  0  0  0  0  0
   12.3325   -9.4811  -14.3764 H   0  0  0  0  0  0  0  0  0  0  0  0
   10.6046   -4.9165  -15.3085 H   0  0  0  0  0  0  0  0  0  0  0  0
   11.3844   -2.2096  -12.0476 H   0  0  0  0  0  0  0  0  0  0  0  0
    8.7836   -3.6718   -8.4575 H   0  0  0  0  0  0  0  0  0  0  0  0
    7.1535   -5.5502   -7.5289 H   0  0  0  0  0  0  0  0  0  0  0  0
    6.2923   -3.0709   -5.9849 H   0  0  0  0  0  0  0  0  0  0  0  0
    7.8556   -3.8796   -5.9316 H   0  0  0  0  0  0  0  0  0  0  0  0
    5.9121   -4.3312   -4.0372 H   0  0  0  0  0  0  0  0  0  0  0  0
    7.0209   -5.6240   -4.5315 H   0  0  0  0  0  0  0  0  0  0  0  0
    4.2153   -4.9432   -7.0732 H   0  0  0  0  0  0  0  0  0  0  0  0
    5.0202   -6.5007   -7.2972 H   0  0  0  0  0  0  0  0  0  0  0  0
    1.5935   -0.3776  -15.6155 H   0  0  0  0  0  0  0  0  0  0  0  0
    1.4339   -1.9996  -14.9530 H   0  0  0  0  0  0  0  0  0  0  0  0
    2.6102   -0.8231  -14.2456 H   0  0  0  0  0  0  0  0  0  0  0  0
   -2.8255    1.8855  -13.3929 H   0  0  0  0  0  0  0  0  0  0  0  0
   -2.6993    1.0396  -11.8479 H   0  0  0  0  0  0  0  0  0  0  0  0
   -3.8808    0.5074  -13.1104 H   0  0  0  0  0  0  0  0  0  0  0  0
  1  2  1  0  0  0  0
  1 43  1  0  0  0  0
  1 44  1  0  0  0  0
  1 45  1  0  0  0  0
  2  3  1  0  0  0  0
  3  4  1  0  0  0  0
  3 40  2  0  0  0  0
  4  5  2  0  0  0  0
  4 46  1  0  0  0  0
  5  6  1  0  0  0  0
  5 47  1  0  0  0  0
  6  7  1  0  0  0  0
  6 37  2  0  0  0  0
  7  8  2  0  0  0  0
  7 48  1  0  0  0  0
  8  9  1  0  0  0  0
  8 49  1  0  0  0  0
  9 10  2  0  0  0  0
  9 11  1  0  0  0  0
 11 12  1  0  0  0  0
 11 50  1  0  0  0  0
 12 13  1  0  0  0  0
 12 30  2  0  0  0  0
 13 14  2  0  0  0  0
 13 51  1  0  0  0  0
 14 15  1  0  0  0  0
 14 28  1  0  0  0  0
 15 16  1  0  0  0  0
 15 25  2  0  0  0  0
 16 17  1  0  0  0  0
 16 52  1  0  0  0  0
 17 18  1  0  0  0  0
 17 24  2  0  0  0  0
 18 19  2  0  0  0  0
 18 53  1  0  0  0  0
 19 20  1  0  0  0  0
 19 54  1  0  0  0  0
 20 21  1  0  0  0  0
 20 22  2  0  0  0  0
 22 23  1  0  0  0  0
 22 24  1  0  0  0  0
 24 55  1  0  0  0  0
 25 26  1  0  0  0  0
 26 27  2  0  0  0  0
 26 56  1  0  0  0  0
 27 28  1  0  0  0  0
 28 29  2  0  0  0  0
 29 30  1  0  0  0  0
 29 57  1  0  0  0  0
 30 31  1  0  0  0  0
 32 33  1  0  0  0  0
 32 36  1  0  0  0  0
 32 31  1  0  0  0  0
 32 58  1  6  0  0  0
 33 34  1  0  0  0  0
 33 59  1  0  0  0  0
 33 60  1  0  0  0  0
 34 35  1  0  0  0  0
 34 61  1  0  0  0  0
 34 62  1  0  0  0  0
 35 36  1  0  0  0  0
 36 63  1  0  0  0  0
 36 64  1  0  0  0  0
 37 38  1  0  0  0  0
 37 40  1  0  0  0  0
 38 39  1  0  0  0  0
 39 65  1  0  0  0  0
 39 66  1  0  0  0  0
 39 67  1  0  0  0  0
 40 41  1  0  0  0  0
 41 42  1  0  0  0  0
 42 68  1  0  0  0  0
 42 69  1  0  0  0  0
 42 70  1  0  0  0  0
M  END
$$$$
