CHEMBL3903645
 OpenBabel04072215373D

 71 75  0  0  1  0  0  0  0  0999 V2000
    4.2843   -1.0675   -3.7268 C   0  0  0  0  0  0  0  0  0  0  0  0
    3.7773   -1.2175   -2.2921 C   0  0  3  0  0  0  0  0  0  0  0  0
    2.3363   -0.6860   -2.1105 C   0  0  0  0  0  0  0  0  0  0  0  0
    2.3177    0.7843   -2.1028 N   0  0  0  0  0  0  0  0  0  0  0  0
    1.6742    1.5108   -3.0812 C   0  0  0  0  0  0  0  0  0  0  0  0
    2.1915    2.7183   -3.5630 C   0  0  0  0  0  0  0  0  0  0  0  0
    1.5847    3.4982   -4.5575 C   0  0  0  0  0  0  0  0  0  0  0  0
    2.1797    4.6958   -5.0542 N   0  0  0  0  0  0  0  0  0  0  0  0
    3.4240    5.1866   -4.6714 C   0  0  0  0  0  0  0  0  0  0  0  0
    4.1659    4.6631   -3.8499 O   0  0  0  0  0  0  0  0  0  0  0  0
    3.7653    6.3850   -5.2924 N   0  0  0  0  0  0  0  0  0  0  0  0
    5.0291    6.9503   -4.9579 C   0  0  0  0  0  0  0  0  0  0  0  0
    6.1947    6.1818   -5.0743 C   0  0  0  0  0  0  0  0  0  0  0  0
    7.4236    6.6654   -4.6180 C   0  0  0  0  0  0  0  0  0  0  0  0
    7.5245    7.9603   -4.1028 C   0  0  0  0  0  0  0  0  0  0  0  0
    8.7118    8.5143   -3.6527 O   0  0  0  0  0  0  0  0  0  0  0  0
    9.9029    8.2091   -4.3012 C   0  0  0  0  0  0  0  0  0  0  0  0
    9.9612    7.8806   -5.6504 C   0  0  0  0  0  0  0  0  0  0  0  0
   11.1826    7.5225   -6.1705 C   0  0  0  0  0  0  0  0  0  0  0  0
   12.3206    7.5425   -5.4599 N   0  0  0  0  0  0  0  0  0  0  0  0
   12.2868    7.9379   -4.1750 C   0  0  0  0  0  0  0  0  0  0  0  0
   13.4998    7.9963   -3.4585 N   0  0  0  0  0  0  0  0  0  0  0  0
   14.7266    7.6485   -4.0078 C   0  0  0  0  0  0  0  0  0  0  0  0
   14.9379    7.2499   -5.1389 O   0  0  0  0  0  0  0  0  0  0  0  0
   15.9269    7.7573   -3.1286 C   0  0  0  0  0  0  0  0  0  0  0  0
   16.0247    6.9046   -1.8815 C   0  0  0  0  0  0  0  0  0  0  0  0
   16.0253    8.4035   -1.7730 C   0  0  0  0  0  0  0  0  0  0  0  0
   11.0876    8.2795   -3.5552 C   0  0  0  0  0  0  0  0  0  0  0  0
    6.3545    8.7187   -3.9827 C   0  0  0  0  0  0  0  0  0  0  0  0
    6.3994    9.9346   -3.4174 F   0  0  0  0  0  0  0  0  0  0  0  0
    5.1131    8.2340   -4.4201 C   0  0  0  0  0  0  0  0  0  0  0  0
    0.3710    3.0503   -5.0825 C   0  0  0  0  0  0  0  0  0  0  0  0
   -0.1888    1.8356   -4.6367 C   0  0  0  0  0  0  0  0  0  0  0  0
   -1.4636    1.2713   -5.2076 C   0  0  0  0  0  0  0  0  0  0  0  0
   -2.0082    2.0374   -6.1915 F   0  0  0  0  0  0  0  0  0  0  0  0
   -1.2778    0.0367   -5.7563 F   0  0  0  0  0  0  0  0  0  0  0  0
   -2.4390    1.1144   -4.2694 F   0  0  0  0  0  0  0  0  0  0  0  0
    0.4695    1.0914   -3.6386 C   0  0  0  0  0  0  0  0  0  0  0  0
    3.2874    1.3804   -1.1669 C   0  0  0  0  0  0  0  0  0  0  0  0
    4.6999    0.8084   -1.3957 C   0  0  3  0  0  0  0  0  0  0  0  0
    5.6487    1.3086   -0.3125 C   0  0  0  0  0  0  0  0  0  0  0  0
    4.6952   -0.6323   -1.3464 O   0  0  0  0  0  0  0  0  0  0  0  0
    3.6483   -1.6193   -4.4259 H   0  0  0  0  0  0  0  0  0  0  0  0
    5.3077   -1.4482   -3.8091 H   0  0  0  0  0  0  0  0  0  0  0  0
    4.3079   -0.0233   -4.0523 H   0  0  0  0  0  0  0  0  0  0  0  0
    3.7620   -2.2907   -2.0671 H   0  0  0  0  0  0  0  0  0  0  0  0
    1.9524   -1.0186   -1.1389 H   0  0  0  0  0  0  0  0  0  0  0  0
    1.6941   -1.1270   -2.8802 H   0  0  0  0  0  0  0  0  0  0  0  0
    3.1426    3.0231   -3.1567 H   0  0  0  0  0  0  0  0  0  0  0  0
    1.7170    5.1541   -5.8260 H   0  0  0  0  0  0  0  0  0  0  0  0
    2.9955    7.0279   -5.4070 H   0  0  0  0  0  0  0  0  0  0  0  0
    6.1507    5.1777   -5.4941 H   0  0  0  0  0  0  0  0  0  0  0  0
    8.2898    6.0122   -4.6796 H   0  0  0  0  0  0  0  0  0  0  0  0
    9.0912    7.8641   -6.2931 H   0  0  0  0  0  0  0  0  0  0  0  0
   11.2874    7.1918   -7.1994 H   0  0  0  0  0  0  0  0  0  0  0  0
   13.4636    8.2892   -2.4921 H   0  0  0  0  0  0  0  0  0  0  0  0
   16.8414    7.8203   -3.7229 H   0  0  0  0  0  0  0  0  0  0  0  0
   16.9527    6.3683   -1.7238 H   0  0  0  0  0  0  0  0  0  0  0  0
   15.1442    6.3666   -1.5502 H   0  0  0  0  0  0  0  0  0  0  0  0
   16.9678    8.8846   -1.5240 H   0  0  0  0  0  0  0  0  0  0  0  0
   15.1667    8.8951   -1.3382 H   0  0  0  0  0  0  0  0  0  0  0  0
   11.0539    8.5909   -2.5171 H   0  0  0  0  0  0  0  0  0  0  0  0
    4.2280    8.8392   -4.2571 H   0  0  0  0  0  0  0  0  0  0  0  0
   -0.1479    3.6214   -5.8490 H   0  0  0  0  0  0  0  0  0  0  0  0
    0.0020    0.1761   -3.2819 H   0  0  0  0  0  0  0  0  0  0  0  0
    2.9491    1.1244   -0.1556 H   0  0  0  0  0  0  0  0  0  0  0  0
    3.3105    2.4752   -1.1988 H   0  0  0  0  0  0  0  0  0  0  0  0
    5.0958    1.1267   -2.3663 H   0  0  0  0  0  0  0  0  0  0  0  0
    5.3086    0.9967    0.6812 H   0  0  0  0  0  0  0  0  0  0  0  0
    5.7223    2.4008   -0.3291 H   0  0  0  0  0  0  0  0  0  0  0  0
    6.6503    0.8885   -0.4506 H   0  0  0  0  0  0  0  0  0  0  0  0
  1  2  1  0  0  0  0
  1 43  1  0  0  0  0
  1 44  1  0  0  0  0
  1 45  1  0  0  0  0
  2  3  1  0  0  0  0
  2 42  1  0  0  0  0
  2 46  1  0  0  0  0
  3  4  1  0  0  0  0
  3 47  1  0  0  0  0
  3 48  1  0  0  0  0
  4  5  1  0  0  0  0
  4 39  1  0  0  0  0
  5  6  1  0  0  0  0
  5 38  2  0  0  0  0
  6  7  2  0  0  0  0
  6 49  1  0  0  0  0
  7  8  1  0  0  0  0
  7 32  1  0  0  0  0
  8  9  1  0  0  0  0
  8 50  1  0  0  0  0
  9 10  2  0  0  0  0
  9 11  1  0  0  0  0
 11 12  1  0  0  0  0
 11 51  1  0  0  0  0
 12 13  1  0  0  0  0
 12 31  2  0  0  0  0
 13 14  2  0  0  0  0
 13 52  1  0  0  0  0
 14 15  1  0  0  0  0
 14 53  1  0  0  0  0
 15 16  1  0  0  0  0
 15 29  2  0  0  0  0
 16 17  1  0  0  0  0
 17 18  1  0  0  0  0
 17 28  2  0  0  0  0
 18 19  2  0  0  0  0
 18 54  1  0  0  0  0
 19 20  1  0  0  0  0
 19 55  1  0  0  0  0
 20 21  2  0  0  0  0
 21 22  1  0  0  0  0
 21 28  1  0  0  0  0
 22 23  1  0  0  0  0
 22 56  1  0  0  0  0
 23 24  2  0  0  0  0
 23 25  1  0  0  0  0
 25 26  1  0  0  0  0
 25 27  1  0  0  0  0
 25 57  1  0  0  0  0
 26 27  1  0  0  0  0
 26 58  1  0  0  0  0
 26 59  1  0  0  0  0
 27 60  1  0  0  0  0
 27 61  1  0  0  0  0
 28 62  1  0  0  0  0
 29 30  1  0  0  0  0
 29 31  1  0  0  0  0
 31 63  1  0  0  0  0
 32 33  2  0  0  0  0
 32 64  1  0  0  0  0
 33 34  1  0  0  0  0
 33 38  1  0  0  0  0
 34 35  1  0  0  0  0
 34 36  1  0  0  0  0
 34 37  1  0  0  0  0
 38 65  1  0  0  0  0
 39 40  1  0  0  0  0
 39 66  1  0  0  0  0
 39 67  1  0  0  0  0
 40 41  1  0  0  0  0
 40 42  1  0  0  0  0
 40 68  1  0  0  0  0
 41 69  1  0  0  0  0
 41 70  1  0  0  0  0
 41 71  1  0  0  0  0
M  END
$$$$
