CHEMBL178248
 OpenBabel04072215363D

 42 44  0  0  0  0  0  0  0  0999 V2000
    3.9505    1.0152    4.0773 C   0  0  0  0  0  0  0  0  0  0  0  0
    3.7258    0.7262    2.6003 C   0  0  0  0  0  0  0  0  0  0  0  0
    3.8630    1.9570    1.7394 C   0  0  0  0  0  0  0  0  0  0  0  0
    5.1069    2.3082    1.1946 C   0  0  0  0  0  0  0  0  0  0  0  0
    5.2442    3.4521    0.3950 C   0  0  0  0  0  0  0  0  0  0  0  0
    4.1457    4.2801    0.1384 C   0  0  0  0  0  0  0  0  0  0  0  0
    4.3141    5.4601   -0.6201 N   0  0  0  0  0  0  0  0  0  0  0  0
    3.5359    6.5939   -0.4798 C   0  0  0  0  0  0  0  0  0  0  0  0
    3.0272    6.8817    0.6869 N   0  0  0  0  0  0  0  0  0  0  0  0
    2.2422    7.9858    0.8508 C   0  0  0  0  0  0  0  0  0  0  0  0
    1.9125    8.8367   -0.0621 N   0  0  0  0  0  0  0  0  0  0  0  0
    2.4367    8.5637   -1.2622 N   0  0  0  0  0  0  0  0  0  0  0  0
    2.2255    9.3091   -2.3781 C   0  0  0  0  0  0  0  0  0  0  0  0
    2.9140    8.7470   -3.4393 C   0  0  0  0  0  0  0  0  0  0  0  0
    2.9058    9.2981   -4.7958 C   0  0  0  0  0  0  0  0  0  0  0  0
    3.5189    8.8102   -5.7365 O   0  0  0  0  0  0  0  0  0  0  0  0
    2.1304   10.4198   -4.8865 O   0  0  0  0  0  0  0  0  0  0  0  0
    2.0748   11.0082   -6.1839 C   0  0  0  0  0  0  0  0  0  0  0  0
    3.5783    7.5763   -2.9101 C   0  0  0  0  0  0  0  0  0  0  0  0
    4.4445    6.6276   -3.6687 C   0  0  0  0  0  0  0  0  0  0  0  0
    3.2443    7.5041   -1.5582 C   0  0  0  0  0  0  0  0  0  0  0  0
    2.9057    3.9249    0.6872 C   0  0  0  0  0  0  0  0  0  0  0  0
    2.7698    2.7835    1.4758 C   0  0  0  0  0  0  0  0  0  0  0  0
    1.5493    2.4642    2.0001 O   0  0  0  0  0  0  0  0  0  0  0  0
    3.7556    0.1145    4.6688 H   0  0  0  0  0  0  0  0  0  0  0  0
    3.2885    1.8082    4.4409 H   0  0  0  0  0  0  0  0  0  0  0  0
    4.9836    1.3252    4.2668 H   0  0  0  0  0  0  0  0  0  0  0  0
    2.7327    0.2830    2.4597 H   0  0  0  0  0  0  0  0  0  0  0  0
    4.4380   -0.0369    2.2639 H   0  0  0  0  0  0  0  0  0  0  0  0
    5.9825    1.6952    1.3980 H   0  0  0  0  0  0  0  0  0  0  0  0
    6.2272    3.7074    0.0072 H   0  0  0  0  0  0  0  0  0  0  0  0
    4.7742    5.2954   -1.5056 H   0  0  0  0  0  0  0  0  0  0  0  0
    1.8502    8.1421    1.8706 H   0  0  0  0  0  0  0  0  0  0  0  0
    1.5957   10.1865   -2.3270 H   0  0  0  0  0  0  0  0  0  0  0  0
    1.4383   11.8955   -6.1219 H   0  0  0  0  0  0  0  0  0  0  0  0
    1.6292   10.3127   -6.9011 H   0  0  0  0  0  0  0  0  0  0  0  0
    3.0720   11.3203   -6.5078 H   0  0  0  0  0  0  0  0  0  0  0  0
    4.5535    6.8970   -4.7205 H   0  0  0  0  0  0  0  0  0  0  0  0
    4.0217    5.6181   -3.6342 H   0  0  0  0  0  0  0  0  0  0  0  0
    5.4494    6.6021   -3.2347 H   0  0  0  0  0  0  0  0  0  0  0  0
    2.0353    4.5417    0.4869 H   0  0  0  0  0  0  0  0  0  0  0  0
    0.9151    3.1585    1.7544 H   0  0  0  0  0  0  0  0  0  0  0  0
  1  2  1  0  0  0  0
  1 25  1  0  0  0  0
  1 26  1  0  0  0  0
  1 27  1  0  0  0  0
  2  3  1  0  0  0  0
  2 28  1  0  0  0  0
  2 29  1  0  0  0  0
  3  4  1  0  0  0  0
  3 23  2  0  0  0  0
  4  5  2  0  0  0  0
  4 30  1  0  0  0  0
  5  6  1  0  0  0  0
  5 31  1  0  0  0  0
  6  7  1  0  0  0  0
  6 22  2  0  0  0  0
  7  8  1  0  0  0  0
  7 32  1  0  0  0  0
  8  9  2  0  0  0  0
  8 21  1  0  0  0  0
  9 10  1  0  0  0  0
 10 11  2  0  0  0  0
 10 33  1  0  0  0  0
 11 12  1  0  0  0  0
 12 13  1  0  0  0  0
 12 21  1  0  0  0  0
 13 14  2  0  0  0  0
 13 34  1  0  0  0  0
 14 15  1  0  0  0  0
 14 19  1  0  0  0  0
 15 16  2  0  0  0  0
 15 17  1  0  0  0  0
 17 18  1  0  0  0  0
 18 35  1  0  0  0  0
 18 36  1  0  0  0  0
 18 37  1  0  0  0  0
 19 20  1  0  0  0  0
 19 21  2  0  0  0  0
 20 38  1  0  0  0  0
 20 39  1  0  0  0  0
 20 40  1  0  0  0  0
 22 23  1  0  0  0  0
 22 41  1  0  0  0  0
 23 24  1  0  0  0  0
 24 42  1  0  0  0  0
M  END
$$$$
