CHEMBL1972840
 OpenBabel04072215363D

 49 53  0  0  1  0  0  0  0  0999 V2000
    1.0264   -0.3234    0.2333 N   0  0  0  0  0  0  0  0  0  0  0  0
    2.4155   -0.0720   -0.2014 C   0  0  3  0  0  0  0  0  0  0  0  0
    2.7626   -0.9322   -1.4452 C   0  0  0  0  0  0  0  0  0  0  0  0
    2.5853   -2.3194   -1.1260 O   0  0  0  0  0  0  0  0  0  0  0  0
    2.8697   -3.2089   -2.1243 C   0  0  0  0  0  0  0  0  0  0  0  0
    2.1179   -4.3767   -2.1399 C   0  0  0  0  0  0  0  0  0  0  0  0
    2.2964   -5.3839   -3.0198 N   0  0  0  0  0  0  0  0  0  0  0  0
    3.3079   -5.2323   -3.9089 C   0  0  0  0  0  0  0  0  0  0  0  0
    4.1510   -4.1199   -3.9782 C   0  0  0  0  0  0  0  0  0  0  0  0
    5.2991   -4.0676   -4.9106 C   0  0  0  0  0  0  0  0  0  0  0  0
    6.5014   -3.3923   -4.7852 C   0  0  0  0  0  0  0  0  0  0  0  0
    7.4386   -3.6727   -5.8436 C   0  0  0  0  0  0  0  0  0  0  0  0
    8.7596   -3.2403   -6.0459 C   0  0  0  0  0  0  0  0  0  0  0  0
    9.4850   -3.6717   -7.1072 N   0  0  0  0  0  0  0  0  0  0  0  0
    8.9199   -4.5266   -7.9812 C   0  0  0  0  0  0  0  0  0  0  0  0
    7.6248   -4.9964   -7.8807 C   0  0  0  0  0  0  0  0  0  0  0  0
    6.8888   -4.5432   -6.7797 C   0  0  0  0  0  0  0  0  0  0  0  0
    5.2675   -4.9420   -6.3861 S   0  0  0  0  0  0  0  0  0  0  0  0
    3.8996   -3.0867   -3.0617 C   0  0  0  0  0  0  0  0  0  0  0  0
    2.6815    1.4098   -0.5390 C   0  0  0  0  0  0  0  0  0  0  0  0
    2.4684    2.3955    0.5724 C   0  0  0  0  0  0  0  0  0  0  0  0
    1.2733    3.0294    0.8609 C   0  0  0  0  0  0  0  0  0  0  0  0
    1.4938    3.9417    1.8543 N   0  0  0  0  0  0  0  0  0  0  0  0
    2.8211    3.9451    2.2104 C   0  0  0  0  0  0  0  0  0  0  0  0
    3.5018    4.7604    3.1226 C   0  0  0  0  0  0  0  0  0  0  0  0
    4.8658    4.5283    3.3071 C   0  0  0  0  0  0  0  0  0  0  0  0
    5.5153    3.5065    2.6192 C   0  0  0  0  0  0  0  0  0  0  0  0
    4.8218    2.7087    1.6973 C   0  0  0  0  0  0  0  0  0  0  0  0
    3.4480    2.9408    1.4694 C   0  0  0  0  0  0  0  0  0  0  0  0
    0.9397   -1.3158    0.4600 H   0  0  0  0  0  0  0  0  0  0  0  0
    0.3828   -0.1577   -0.5378 H   0  0  0  0  0  0  0  0  0  0  0  0
    3.0647   -0.3774    0.6291 H   0  0  0  0  0  0  0  0  0  0  0  0
    3.8061   -0.7346   -1.7183 H   0  0  0  0  0  0  0  0  0  0  0  0
    2.1102   -0.6694   -2.2846 H   0  0  0  0  0  0  0  0  0  0  0  0
    1.3226   -4.5356   -1.4145 H   0  0  0  0  0  0  0  0  0  0  0  0
    3.4308   -6.0901   -4.5646 H   0  0  0  0  0  0  0  0  0  0  0  0
    6.7458   -2.7620   -3.9376 H   0  0  0  0  0  0  0  0  0  0  0  0
    9.2681   -2.5628   -5.3688 H   0  0  0  0  0  0  0  0  0  0  0  0
    9.5623   -4.8400   -8.7979 H   0  0  0  0  0  0  0  0  0  0  0  0
    7.2118   -5.6848   -8.6070 H   0  0  0  0  0  0  0  0  0  0  0  0
    4.5356   -2.2098   -3.0657 H   0  0  0  0  0  0  0  0  0  0  0  0
    2.0504    1.7071   -1.3884 H   0  0  0  0  0  0  0  0  0  0  0  0
    3.7163    1.5125   -0.8921 H   0  0  0  0  0  0  0  0  0  0  0  0
    0.2893    2.9119    0.4290 H   0  0  0  0  0  0  0  0  0  0  0  0
    0.7921    4.5484    2.2526 H   0  0  0  0  0  0  0  0  0  0  0  0
    2.9945    5.5527    3.6633 H   0  0  0  0  0  0  0  0  0  0  0  0
    5.4263    5.1536    3.9980 H   0  0  0  0  0  0  0  0  0  0  0  0
    6.5743    3.3308    2.7907 H   0  0  0  0  0  0  0  0  0  0  0  0
    5.3435    1.9202    1.1653 H   0  0  0  0  0  0  0  0  0  0  0  0
  1  2  1  0  0  0  0
  1 30  1  0  0  0  0
  1 31  1  0  0  0  0
  2  3  1  0  0  0  0
  2 20  1  0  0  0  0
  2 32  1  0  0  0  0
  3  4  1  0  0  0  0
  3 33  1  0  0  0  0
  3 34  1  0  0  0  0
  4  5  1  0  0  0  0
  5  6  1  0  0  0  0
  5 19  2  0  0  0  0
  6  7  2  0  0  0  0
  6 35  1  0  0  0  0
  7  8  1  0  0  0  0
  8  9  2  0  0  0  0
  8 36  1  0  0  0  0
  9 10  1  0  0  0  0
  9 19  1  0  0  0  0
 10 11  2  0  0  0  0
 10 18  1  0  0  0  0
 11 12  1  0  0  0  0
 11 37  1  0  0  0  0
 12 13  1  0  0  0  0
 12 17  2  0  0  0  0
 13 14  2  0  0  0  0
 13 38  1  0  0  0  0
 14 15  1  0  0  0  0
 15 16  2  0  0  0  0
 15 39  1  0  0  0  0
 16 17  1  0  0  0  0
 16 40  1  0  0  0  0
 17 18  1  0  0  0  0
 19 41  1  0  0  0  0
 20 21  1  0  0  0  0
 20 42  1  0  0  0  0
 20 43  1  0  0  0  0
 21 22  2  0  0  0  0
 21 29  1  0  0  0  0
 22 23  1  0  0  0  0
 22 44  1  0  0  0  0
 23 24  1  0  0  0  0
 23 45  1  0  0  0  0
 24 25  1  0  0  0  0
 24 29  2  0  0  0  0
 25 26  2  0  0  0  0
 25 46  1  0  0  0  0
 26 27  1  0  0  0  0
 26 47  1  0  0  0  0
 27 28  2  0  0  0  0
 27 48  1  0  0  0  0
 28 29  1  0  0  0  0
 28 49  1  0  0  0  0
M  END
$$$$
