CHEMBL4103267
 OpenBabel04072215383D

 53 56  0  0  0  0  0  0  0  0999 V2000
    2.9670   -0.7301    1.7391 C   0  0  0  0  0  0  0  0  0  0  0  0
    2.5680    0.6652    1.9061 N   0  0  0  0  0  0  0  0  0  0  0  0
    3.3691    1.3290    2.9444 C   0  0  0  0  0  0  0  0  0  0  0  0
    4.8417    1.4417    2.6041 C   0  0  0  0  0  0  0  0  0  0  0  0
    5.2299    2.0914    1.4484 C   0  0  0  0  0  0  0  0  0  0  0  0
    6.5851    2.2478    1.2538 C   0  0  0  0  0  0  0  0  0  0  0  0
    7.1193    2.9596    0.1998 O   0  0  0  0  0  0  0  0  0  0  0  0
    6.4550    4.0619   -0.2982 C   0  0  0  0  0  0  0  0  0  0  0  0
    5.6740    4.9344    0.4618 C   0  0  0  0  0  0  0  0  0  0  0  0
    4.9583    5.9857   -0.1350 C   0  0  0  0  0  0  0  0  0  0  0  0
    5.1055    6.1912   -1.5185 C   0  0  0  0  0  0  0  0  0  0  0  0
    5.9480    5.3658   -2.2815 C   0  0  0  0  0  0  0  0  0  0  0  0
    5.8803    5.8052   -3.6264 C   0  0  0  0  0  0  0  0  0  0  0  0
    4.9469    6.8057   -3.6812 C   0  0  0  0  0  0  0  0  0  0  0  0
    4.4628    7.0599   -2.4065 N   0  0  0  0  0  0  0  0  0  0  0  0
    3.3874    7.9392   -2.1667 C   0  0  0  0  0  0  0  0  0  0  0  0
    2.4217    7.8515   -2.9142 O   0  0  0  0  0  0  0  0  0  0  0  0
    3.7054    8.8992   -1.2275 N   0  0  0  0  0  0  0  0  0  0  0  0
    2.8250    9.9330   -0.9384 C   0  0  0  0  0  0  0  0  0  0  0  0
    3.1678   11.1954   -0.3845 C   0  0  0  0  0  0  0  0  0  0  0  0
    1.9830   11.9083   -0.3064 C   0  0  0  0  0  0  0  0  0  0  0  0
    1.6269   13.2931    0.1493 C   0  0  0  0  0  0  0  0  0  0  0  0
    2.0285   13.5160    1.6060 C   0  0  0  0  0  0  0  0  0  0  0  0
    2.2425   14.3597   -0.7555 C   0  0  0  0  0  0  0  0  0  0  0  0
    1.0288   11.0492   -0.7758 N   0  0  0  0  0  0  0  0  0  0  0  0
    1.5086    9.8584   -1.1410 N   0  0  0  0  0  0  0  0  0  0  0  0
    6.6313    4.3003   -1.6611 C   0  0  0  0  0  0  0  0  0  0  0  0
    7.5044    1.6845    2.0590 N   0  0  0  0  0  0  0  0  0  0  0  0
    7.0254    1.0156    3.1152 C   0  0  0  0  0  0  0  0  0  0  0  0
    5.7336    0.8882    3.4532 N   0  0  0  0  0  0  0  0  0  0  0  0
    2.3464   -1.1891    0.9671 H   0  0  0  0  0  0  0  0  0  0  0  0
    2.8374   -1.2952    2.6664 H   0  0  0  0  0  0  0  0  0  0  0  0
    4.0073   -0.8184    1.4068 H   0  0  0  0  0  0  0  0  0  0  0  0
    1.5901    0.6913    2.1918 H   0  0  0  0  0  0  0  0  0  0  0  0
    3.2419    0.8235    3.9090 H   0  0  0  0  0  0  0  0  0  0  0  0
    2.9782    2.3461    3.0780 H   0  0  0  0  0  0  0  0  0  0  0  0
    4.4915    2.4731    0.7558 H   0  0  0  0  0  0  0  0  0  0  0  0
    5.5738    4.7896    1.5352 H   0  0  0  0  0  0  0  0  0  0  0  0
    4.2796    6.5864    0.4644 H   0  0  0  0  0  0  0  0  0  0  0  0
    6.4107    5.3893   -4.4732 H   0  0  0  0  0  0  0  0  0  0  0  0
    4.5596    7.3729   -4.5176 H   0  0  0  0  0  0  0  0  0  0  0  0
    4.6656    9.0166   -0.9394 H   0  0  0  0  0  0  0  0  0  0  0  0
    4.1491   11.5601   -0.1178 H   0  0  0  0  0  0  0  0  0  0  0  0
    0.5361   13.4124    0.0920 H   0  0  0  0  0  0  0  0  0  0  0  0
    3.1076   13.3972    1.7513 H   0  0  0  0  0  0  0  0  0  0  0  0
    1.5211   12.8002    2.2625 H   0  0  0  0  0  0  0  0  0  0  0  0
    1.7523   14.5238    1.9355 H   0  0  0  0  0  0  0  0  0  0  0  0
    3.3369   14.3165   -0.7446 H   0  0  0  0  0  0  0  0  0  0  0  0
    1.9432   15.3639   -0.4308 H   0  0  0  0  0  0  0  0  0  0  0  0
    1.9132   14.2353   -1.7927 H   0  0  0  0  0  0  0  0  0  0  0  0
    0.0311   11.2074   -0.8719 H   0  0  0  0  0  0  0  0  0  0  0  0
    7.2620    3.6395   -2.2540 H   0  0  0  0  0  0  0  0  0  0  0  0
    7.7509    0.5350    3.7628 H   0  0  0  0  0  0  0  0  0  0  0  0
  1  2  1  0  0  0  0
  1 31  1  0  0  0  0
  1 32  1  0  0  0  0
  1 33  1  0  0  0  0
  2  3  1  0  0  0  0
  2 34  1  0  0  0  0
  3  4  1  0  0  0  0
  3 35  1  0  0  0  0
  3 36  1  0  0  0  0
  4  5  1  0  0  0  0
  4 30  2  0  0  0  0
  5  6  2  0  0  0  0
  5 37  1  0  0  0  0
  6  7  1  0  0  0  0
  6 28  1  0  0  0  0
  7  8  1  0  0  0  0
  8  9  1  0  0  0  0
  8 27  2  0  0  0  0
  9 10  2  0  0  0  0
  9 38  1  0  0  0  0
 10 11  1  0  0  0  0
 10 39  1  0  0  0  0
 11 12  2  0  0  0  0
 11 15  1  0  0  0  0
 12 13  1  0  0  0  0
 12 27  1  0  0  0  0
 13 14  2  0  0  0  0
 13 40  1  0  0  0  0
 14 15  1  0  0  0  0
 14 41  1  0  0  0  0
 15 16  1  0  0  0  0
 16 17  2  0  0  0  0
 16 18  1  0  0  0  0
 18 19  1  0  0  0  0
 18 42  1  0  0  0  0
 19 20  1  0  0  0  0
 19 26  2  0  0  0  0
 20 21  2  0  0  0  0
 20 43  1  0  0  0  0
 21 22  1  0  0  0  0
 21 25  1  0  0  0  0
 22 23  1  0  0  0  0
 22 24  1  0  0  0  0
 22 44  1  0  0  0  0
 23 45  1  0  0  0  0
 23 46  1  0  0  0  0
 23 47  1  0  0  0  0
 24 48  1  0  0  0  0
 24 49  1  0  0  0  0
 24 50  1  0  0  0  0
 25 26  1  0  0  0  0
 25 51  1  0  0  0  0
 27 52  1  0  0  0  0
 28 29  2  0  0  0  0
 29 30  1  0  0  0  0
 29 53  1  0  0  0  0
M  END
$$$$
