CHEMBL505637
 OpenBabel04072215383D

 80 83  0  0  0  0  0  0  0  0999 V2000
    2.8441    1.6679    4.1415 O   0  0  0  0  0  0  0  0  0  0  0  0
    3.1843    0.5749    4.5877 C   0  0  0  0  0  0  0  0  0  0  0  0
    3.8579    0.4224    5.7757 N   0  0  0  0  0  0  0  0  0  0  0  0
    4.1737    1.5517    6.6269 C   0  0  0  0  0  0  0  0  0  0  0  0
    4.8204    1.1460    7.9514 C   0  0  0  0  0  0  0  0  0  0  0  0
    5.0757    2.3506    8.8252 C   0  0  0  0  0  0  0  0  0  0  0  0
    4.0934    2.7831    9.7286 C   0  0  0  0  0  0  0  0  0  0  0  0
    4.2936    3.9212   10.5110 C   0  0  0  0  0  0  0  0  0  0  0  0
    5.4819    4.6432   10.3922 C   0  0  0  0  0  0  0  0  0  0  0  0
    5.6738    5.7619   11.1525 O   0  0  0  0  0  0  0  0  0  0  0  0
    6.4667    4.2277    9.4944 C   0  0  0  0  0  0  0  0  0  0  0  0
    8.0903    5.1867    9.2922 Br  0  0  0  0  0  0  0  0  0  0  0  0
    6.2657    3.0846    8.7113 C   0  0  0  0  0  0  0  0  0  0  0  0
    2.8843   -0.6904    3.7720 C   0  0  0  0  0  0  0  0  0  0  0  0
    2.2677   -0.4603    2.4015 C   0  0  0  0  0  0  0  0  0  0  0  0
    0.7551   -0.4938    2.3322 C   0  0  0  0  0  0  0  0  0  0  0  0
    0.0759   -1.7052    2.1890 C   0  0  0  0  0  0  0  0  0  0  0  0
   -1.3024   -1.7118    1.9810 C   0  0  0  0  0  0  0  0  0  0  0  0
   -2.1738   -3.3748    1.6885 Br  0  0  0  0  0  0  0  0  0  0  0  0
   -2.0276   -0.5118    1.9326 C   0  0  0  0  0  0  0  0  0  0  0  0
   -3.3842   -0.5586    1.7050 O   0  0  0  0  0  0  0  0  0  0  0  0
   -1.3906    0.7354    2.0892 C   0  0  0  0  0  0  0  0  0  0  0  0
   -2.1202    2.0357    1.9517 C   0  0  0  0  0  0  0  0  0  0  0  0
   -3.1051    2.1887    0.9454 C   0  0  0  0  0  0  0  0  0  0  0  0
   -3.8138    3.3840    0.7273 C   0  0  0  0  0  0  0  0  0  0  0  0
   -4.8020    3.4770   -0.4127 C   0  0  0  0  0  0  0  0  0  0  0  0
   -6.2370    3.1326   -0.0507 C   0  0  0  0  0  0  0  0  0  0  0  0
   -6.6141    1.8807   -0.1170 N   0  0  0  0  0  0  0  0  0  0  0  0
   -7.9648    1.6634    0.1593 O   0  0  0  0  0  0  0  0  0  0  0  0
   -7.1245    4.3217    0.3308 C   0  0  0  0  0  0  0  0  0  0  0  0
   -6.8287    5.4435   -0.0590 O   0  0  0  0  0  0  0  0  0  0  0  0
   -8.2155    4.0374    1.1204 N   0  0  0  0  0  0  0  0  0  0  0  0
   -9.1876    5.0513    1.4762 C   0  0  0  0  0  0  0  0  0  0  0  0
  -10.2723    4.5078    2.4133 C   0  0  0  0  0  0  0  0  0  0  0  0
  -11.3056    5.5493    2.7747 C   0  0  0  0  0  0  0  0  0  0  0  0
  -10.9483    6.6709    3.5365 C   0  0  0  0  0  0  0  0  0  0  0  0
  -11.8844    7.6682    3.8232 C   0  0  0  0  0  0  0  0  0  0  0  0
  -13.1930    7.5473    3.3551 C   0  0  0  0  0  0  0  0  0  0  0  0
  -14.0958    8.5413    3.6086 O   0  0  0  0  0  0  0  0  0  0  0  0
  -13.5721    6.4191    2.6280 C   0  0  0  0  0  0  0  0  0  0  0  0
  -15.3433    6.2092    1.9818 Br  0  0  0  0  0  0  0  0  0  0  0  0
  -12.6347    5.4202    2.3434 C   0  0  0  0  0  0  0  0  0  0  0  0
   -3.5340    4.4792    1.5449 C   0  0  0  0  0  0  0  0  0  0  0  0
   -2.5616    4.3702    2.5432 C   0  0  0  0  0  0  0  0  0  0  0  0
   -2.1835    5.8972    3.6082 Br  0  0  0  0  0  0  0  0  0  0  0  0
   -1.8648    3.1665    2.7495 C   0  0  0  0  0  0  0  0  0  0  0  0
   -0.9258    3.0852    3.7496 O   0  0  0  0  0  0  0  0  0  0  0  0
    0.0107    0.7053    2.3005 C   0  0  0  0  0  0  0  0  0  0  0  0
    3.1504   -1.9264    4.1128 N   0  0  0  0  0  0  0  0  0  0  0  0
    3.7815   -2.0804    5.3462 O   0  0  0  0  0  0  0  0  0  0  0  0
    4.1661   -0.5203    6.0015 H   0  0  0  0  0  0  0  0  0  0  0  0
    3.2378    2.0948    6.8079 H   0  0  0  0  0  0  0  0  0  0  0  0
    4.8303    2.2234    6.0617 H   0  0  0  0  0  0  0  0  0  0  0  0
    5.7625    0.6091    7.7720 H   0  0  0  0  0  0  0  0  0  0  0  0
    4.1760    0.4368    8.4847 H   0  0  0  0  0  0  0  0  0  0  0  0
    3.1571    2.2347    9.8211 H   0  0  0  0  0  0  0  0  0  0  0  0
    3.5134    4.2333   11.1980 H   0  0  0  0  0  0  0  0  0  0  0  0
    4.8895    5.9086   11.7112 H   0  0  0  0  0  0  0  0  0  0  0  0
    7.0331    2.7714    8.0081 H   0  0  0  0  0  0  0  0  0  0  0  0
    2.6540   -1.2393    1.7288 H   0  0  0  0  0  0  0  0  0  0  0  0
    2.6419    0.4800    1.9778 H   0  0  0  0  0  0  0  0  0  0  0  0
    0.6281   -2.6434    2.1967 H   0  0  0  0  0  0  0  0  0  0  0  0
   -3.6110   -1.4715    1.4556 H   0  0  0  0  0  0  0  0  0  0  0  0
   -3.3229    1.3480    0.2865 H   0  0  0  0  0  0  0  0  0  0  0  0
   -4.4879    2.7858   -1.2092 H   0  0  0  0  0  0  0  0  0  0  0  0
   -4.7492    4.4709   -0.8674 H   0  0  0  0  0  0  0  0  0  0  0  0
   -8.0377    0.6908    0.0818 H   0  0  0  0  0  0  0  0  0  0  0  0
   -8.4739    3.0530    1.1308 H   0  0  0  0  0  0  0  0  0  0  0  0
   -9.6283    5.4444    0.5520 H   0  0  0  0  0  0  0  0  0  0  0  0
   -8.6396    5.8763    1.9467 H   0  0  0  0  0  0  0  0  0  0  0  0
   -9.8179    4.1220    3.3349 H   0  0  0  0  0  0  0  0  0  0  0  0
  -10.7603    3.6469    1.9383 H   0  0  0  0  0  0  0  0  0  0  0  0
   -9.9304    6.7817    3.9061 H   0  0  0  0  0  0  0  0  0  0  0  0
  -11.5728    8.5309    4.4045 H   0  0  0  0  0  0  0  0  0  0  0  0
  -13.6457    9.2794    4.0501 H   0  0  0  0  0  0  0  0  0  0  0  0
  -12.9410    4.5451    1.7746 H   0  0  0  0  0  0  0  0  0  0  0  0
   -4.0519    5.4237    1.3869 H   0  0  0  0  0  0  0  0  0  0  0  0
   -0.8605    3.9584    4.1751 H   0  0  0  0  0  0  0  0  0  0  0  0
    0.5548    1.6473    2.4044 H   0  0  0  0  0  0  0  0  0  0  0  0
    3.8800   -3.0520    5.4083 H   0  0  0  0  0  0  0  0  0  0  0  0
  1  2  2  0  0  0  0
  2  3  1  0  0  0  0
  2 14  1  0  0  0  0
  3  4  1  0  0  0  0
  3 51  1  0  0  0  0
  4  5  1  0  0  0  0
  4 52  1  0  0  0  0
  4 53  1  0  0  0  0
  5  6  1  0  0  0  0
  5 54  1  0  0  0  0
  5 55  1  0  0  0  0
  6  7  1  0  0  0  0
  6 13  2  0  0  0  0
  7  8  2  0  0  0  0
  7 56  1  0  0  0  0
  8  9  1  0  0  0  0
  8 57  1  0  0  0  0
  9 10  1  0  0  0  0
  9 11  2  0  0  0  0
 10 58  1  0  0  0  0
 11 12  1  0  0  0  0
 11 13  1  0  0  0  0
 13 59  1  0  0  0  0
 14 15  1  0  0  0  0
 14 49  2  0  0  0  0
 15 16  1  0  0  0  0
 15 60  1  0  0  0  0
 15 61  1  0  0  0  0
 16 17  1  0  0  0  0
 16 48  2  0  0  0  0
 17 18  2  0  0  0  0
 17 62  1  0  0  0  0
 18 19  1  0  0  0  0
 18 20  1  0  0  0  0
 20 21  1  0  0  0  0
 20 22  2  0  0  0  0
 21 63  1  0  0  0  0
 22 23  1  0  0  0  0
 22 48  1  0  0  0  0
 23 24  1  0  0  0  0
 23 46  2  0  0  0  0
 24 25  2  0  0  0  0
 24 64  1  0  0  0  0
 25 26  1  0  0  0  0
 25 43  1  0  0  0  0
 26 27  1  0  0  0  0
 26 65  1  0  0  0  0
 26 66  1  0  0  0  0
 27 28  2  0  0  0  0
 27 30  1  0  0  0  0
 28 29  1  0  0  0  0
 29 67  1  0  0  0  0
 30 31  2  0  0  0  0
 30 32  1  0  0  0  0
 32 33  1  0  0  0  0
 32 68  1  0  0  0  0
 33 34  1  0  0  0  0
 33 69  1  0  0  0  0
 33 70  1  0  0  0  0
 34 35  1  0  0  0  0
 34 71  1  0  0  0  0
 34 72  1  0  0  0  0
 35 36  1  0  0  0  0
 35 42  2  0  0  0  0
 36 37  2  0  0  0  0
 36 73  1  0  0  0  0
 37 38  1  0  0  0  0
 37 74  1  0  0  0  0
 38 39  1  0  0  0  0
 38 40  2  0  0  0  0
 39 75  1  0  0  0  0
 40 41  1  0  0  0  0
 40 42  1  0  0  0  0
 42 76  1  0  0  0  0
 43 44  2  0  0  0  0
 43 77  1  0  0  0  0
 44 45  1  0  0  0  0
 44 46  1  0  0  0  0
 46 47  1  0  0  0  0
 47 78  1  0  0  0  0
 48 79  1  0  0  0  0
 49 50  1  0  0  0  0
 50 80  1  0  0  0  0
M  END
$$$$
