CHEMBL3671534
 OpenBabel04072215373D

 55 57  0  0  0  0  0  0  0  0999 V2000
    3.4439   -3.7477   -1.0938 C   0  0  0  0  0  0  0  0  0  0  0  0
    3.5144   -2.5286   -1.6415 C   0  0  0  0  0  0  0  0  0  0  0  0
    3.7164   -1.3437   -0.7642 C   0  0  0  0  0  0  0  0  0  0  0  0
    3.2909   -1.3014    0.3859 O   0  0  0  0  0  0  0  0  0  0  0  0
    4.4483   -0.2966   -1.2772 N   0  0  0  0  0  0  0  0  0  0  0  0
    5.2849   -0.4301   -2.4010 C   0  0  0  0  0  0  0  0  0  0  0  0
    6.3836   -1.2844   -2.3010 C   0  0  0  0  0  0  0  0  0  0  0  0
    7.0714   -1.6962   -3.4610 C   0  0  0  0  0  0  0  0  0  0  0  0
    8.0783   -2.6731   -3.4839 C   0  0  0  0  0  0  0  0  0  0  0  0
    8.4210   -3.3650   -2.2899 N   0  0  0  0  0  0  0  0  0  0  0  0
    9.1330   -4.5886   -2.2743 C   0  0  0  0  0  0  0  0  0  0  0  0
    8.8002   -5.6266   -3.1570 C   0  0  0  0  0  0  0  0  0  0  0  0
    9.5801   -6.7817   -3.2291 C   0  0  0  0  0  0  0  0  0  0  0  0
   10.6876   -6.9165   -2.3965 C   0  0  0  0  0  0  0  0  0  0  0  0
   11.7970   -8.4369   -2.5660 Br  0  0  0  0  0  0  0  0  0  0  0  0
   10.9956   -5.9318   -1.4608 C   0  0  0  0  0  0  0  0  0  0  0  0
   10.2099   -4.7835   -1.4018 C   0  0  0  0  0  0  0  0  0  0  0  0
   10.5221   -3.8243   -0.5159 F   0  0  0  0  0  0  0  0  0  0  0  0
    8.6847   -3.0374   -4.6302 N   0  0  0  0  0  0  0  0  0  0  0  0
    8.2673   -2.4506   -5.7510 C   0  0  0  0  0  0  0  0  0  0  0  0
    7.2887   -1.5509   -5.8493 N   0  0  0  0  0  0  0  0  0  0  0  0
    6.6925   -1.1854   -4.7119 C   0  0  0  0  0  0  0  0  0  0  0  0
    5.6335   -0.2869   -4.7763 C   0  0  0  0  0  0  0  0  0  0  0  0
    4.9323    0.1211   -3.6378 C   0  0  0  0  0  0  0  0  0  0  0  0
    3.9024    0.9988   -3.8757 O   0  0  0  0  0  0  0  0  0  0  0  0
    3.6668    1.9514   -2.8317 C   0  0  0  0  0  0  0  0  0  0  0  0
    3.1914    3.2830   -3.4168 C   0  0  0  0  0  0  0  0  0  0  0  0
    3.0380    4.3092   -2.3890 N   0  0  0  0  0  0  0  0  0  0  0  0
    4.1408    4.9343   -1.8504 C   0  0  0  0  0  0  0  0  0  0  0  0
    5.2855    4.7468   -2.2504 O   0  0  0  0  0  0  0  0  0  0  0  0
    3.8361    5.8643   -0.6923 C   0  0  0  0  0  0  0  0  0  0  0  0
    3.3628    7.2150   -1.2061 C   0  0  0  0  0  0  0  0  0  0  0  0
    3.0966    8.1304   -0.0988 N   0  0  0  0  0  0  0  0  0  0  0  0
    3.3640   -4.6330   -1.7149 H   0  0  0  0  0  0  0  0  0  0  0  0
    3.4878   -3.8868   -0.0171 H   0  0  0  0  0  0  0  0  0  0  0  0
    3.4924   -2.3939   -2.7160 H   0  0  0  0  0  0  0  0  0  0  0  0
    4.8138    0.2585   -0.5096 H   0  0  0  0  0  0  0  0  0  0  0  0
    6.6478   -1.7012   -1.3316 H   0  0  0  0  0  0  0  0  0  0  0  0
    8.7623   -2.7206   -1.5809 H   0  0  0  0  0  0  0  0  0  0  0  0
    7.9464   -5.5200   -3.8228 H   0  0  0  0  0  0  0  0  0  0  0  0
    9.3248   -7.5485   -3.9560 H   0  0  0  0  0  0  0  0  0  0  0  0
   11.8482   -6.0292   -0.7979 H   0  0  0  0  0  0  0  0  0  0  0  0
    8.7666   -2.7468   -6.6695 H   0  0  0  0  0  0  0  0  0  0  0  0
    5.3276    0.0882   -5.7512 H   0  0  0  0  0  0  0  0  0  0  0  0
    4.5727    2.1378   -2.2458 H   0  0  0  0  0  0  0  0  0  0  0  0
    2.8838    1.5603   -2.1712 H   0  0  0  0  0  0  0  0  0  0  0  0
    2.2223    3.1594   -3.9155 H   0  0  0  0  0  0  0  0  0  0  0  0
    3.9016    3.6387   -4.1728 H   0  0  0  0  0  0  0  0  0  0  0  0
    2.1456    4.3797   -1.9193 H   0  0  0  0  0  0  0  0  0  0  0  0
    4.7473    5.9696   -0.0910 H   0  0  0  0  0  0  0  0  0  0  0  0
    3.0813    5.3992   -0.0422 H   0  0  0  0  0  0  0  0  0  0  0  0
    2.4547    7.1033   -1.8084 H   0  0  0  0  0  0  0  0  0  0  0  0
    4.1281    7.6543   -1.8559 H   0  0  0  0  0  0  0  0  0  0  0  0
    2.3080    7.7997    0.4553 H   0  0  0  0  0  0  0  0  0  0  0  0
    2.8253    9.0417   -0.4682 H   0  0  0  0  0  0  0  0  0  0  0  0
  1  2  2  0  0  0  0
  1 34  1  0  0  0  0
  1 35  1  0  0  0  0
  2  3  1  0  0  0  0
  2 36  1  0  0  0  0
  3  4  2  0  0  0  0
  3  5  1  0  0  0  0
  5  6  1  0  0  0  0
  5 37  1  0  0  0  0
  6  7  1  0  0  0  0
  6 24  2  0  0  0  0
  7  8  2  0  0  0  0
  7 38  1  0  0  0  0
  8  9  1  0  0  0  0
  8 22  1  0  0  0  0
  9 10  1  0  0  0  0
  9 19  2  0  0  0  0
 10 11  1  0  0  0  0
 10 39  1  0  0  0  0
 11 12  1  0  0  0  0
 11 17  2  0  0  0  0
 12 13  2  0  0  0  0
 12 40  1  0  0  0  0
 13 14  1  0  0  0  0
 13 41  1  0  0  0  0
 14 15  1  0  0  0  0
 14 16  2  0  0  0  0
 16 17  1  0  0  0  0
 16 42  1  0  0  0  0
 17 18  1  0  0  0  0
 19 20  1  0  0  0  0
 20 21  2  0  0  0  0
 20 43  1  0  0  0  0
 21 22  1  0  0  0  0
 22 23  2  0  0  0  0
 23 24  1  0  0  0  0
 23 44  1  0  0  0  0
 24 25  1  0  0  0  0
 25 26  1  0  0  0  0
 26 27  1  0  0  0  0
 26 45  1  0  0  0  0
 26 46  1  0  0  0  0
 27 28  1  0  0  0  0
 27 47  1  0  0  0  0
 27 48  1  0  0  0  0
 28 29  1  0  0  0  0
 28 49  1  0  0  0  0
 29 30  2  0  0  0  0
 29 31  1  0  0  0  0
 31 32  1  0  0  0  0
 31 50  1  0  0  0  0
 31 51  1  0  0  0  0
 32 33  1  0  0  0  0
 32 52  1  0  0  0  0
 32 53  1  0  0  0  0
 33 54  1  0  0  0  0
 33 55  1  0  0  0  0
M  END
$$$$
