CHEMBL3322566
 OpenBabel04072215363D

 79 83  0  0  0  0  0  0  0  0999 V2000
    0.4714   -0.2389    0.5099 C   0  0  0  0  0  0  0  0  0  0  0  0
    0.4889   -0.8570    1.7963 O   0  0  0  0  0  0  0  0  0  0  0  0
    1.3564   -0.3184    2.7083 C   0  0  0  0  0  0  0  0  0  0  0  0
    2.1680    0.7883    2.4788 C   0  0  0  0  0  0  0  0  0  0  0  0
    3.0135    1.2692    3.4808 C   0  0  0  0  0  0  0  0  0  0  0  0
    3.0820    0.6506    4.7243 C   0  0  0  0  0  0  0  0  0  0  0  0
    3.9410    1.0975    5.7505 N   0  0  0  0  0  0  0  0  0  0  0  0
    4.8055    2.1827    5.7291 C   0  0  0  0  0  0  0  0  0  0  0  0
    4.9933    2.9254    4.7627 O   0  0  0  0  0  0  0  0  0  0  0  0
    5.6397    2.4235    6.9778 C   0  0  0  0  0  0  0  0  0  0  0  0
    5.0480    1.9189    8.2602 C   0  0  0  0  0  0  0  0  0  0  0  0
    4.3636    0.8981    8.2364 O   0  0  0  0  0  0  0  0  0  0  0  0
    5.3494    2.6594    9.3995 N   0  0  0  0  0  0  0  0  0  0  0  0
    4.9220    2.2958   10.7045 C   0  0  0  0  0  0  0  0  0  0  0  0
    4.4469    0.9952   10.9570 C   0  0  0  0  0  0  0  0  0  0  0  0
    3.8779    0.6358   12.1655 C   0  0  0  0  0  0  0  0  0  0  0  0
    3.8366    1.5827   13.1603 C   0  0  0  0  0  0  0  0  0  0  0  0
    4.3950    2.8471   12.9729 C   0  0  0  0  0  0  0  0  0  0  0  0
    4.9461    3.2347   11.7553 C   0  0  0  0  0  0  0  0  0  0  0  0
    4.2754    3.5798   14.1579 N   0  0  0  0  0  0  0  0  0  0  0  0
    3.6189    2.8477   15.1529 C   0  0  0  0  0  0  0  0  0  0  0  0
    3.3766    3.1998   16.2904 O   0  0  0  0  0  0  0  0  0  0  0  0
    3.2741    1.5322   14.5121 C   0  0  0  0  0  0  0  0  0  0  0  0
    2.5689    0.4623   14.9047 C   0  0  0  0  0  0  0  0  0  0  0  0
    1.8772    0.1922   16.1090 C   0  0  0  0  0  0  0  0  0  0  0  0
    1.8419    1.0671   17.1552 N   0  0  0  0  0  0  0  0  0  0  0  0
    1.0694    0.5595   18.1790 C   0  0  0  0  0  0  0  0  0  0  0  0
    0.9178    1.3492   19.4282 C   0  0  0  0  0  0  0  0  0  0  0  0
    0.6213   -0.7066   17.7991 C   0  0  0  0  0  0  0  0  0  0  0  0
   -0.1696   -1.6777   18.5735 C   0  0  0  0  0  0  0  0  0  0  0  0
   -0.0071   -2.8899   18.4524 O   0  0  0  0  0  0  0  0  0  0  0  0
   -1.1279   -1.1557   19.4149 N   0  0  0  0  0  0  0  0  0  0  0  0
   -1.9196   -2.0219   20.2784 C   0  0  0  0  0  0  0  0  0  0  0  0
   -3.2399   -1.3650   20.7270 C   0  0  0  0  0  0  0  0  0  0  0  0
   -4.1487   -2.2423   21.4913 N   0  0  0  0  0  0  0  0  0  0  0  0
   -5.4042   -1.5452   21.8239 C   0  0  0  0  0  0  0  0  0  0  0  0
   -5.1184   -0.8393   23.1356 C   0  0  0  0  0  0  0  0  0  0  0  0
   -4.2493   -1.8357   23.8766 C   0  0  0  0  0  0  0  0  0  0  0  0
   -3.6083   -2.6903   22.7862 C   0  0  0  0  0  0  0  0  0  0  0  0
    1.1374   -0.9266   16.4707 C   0  0  0  0  0  0  0  0  0  0  0  0
    0.9186   -2.1290   15.6054 C   0  0  0  0  0  0  0  0  0  0  0  0
    2.2607   -0.4624    4.9622 C   0  0  0  0  0  0  0  0  0  0  0  0
    1.4026   -0.9403    3.9564 C   0  0  0  0  0  0  0  0  0  0  0  0
   -0.3123   -0.7135   -0.0866 H   0  0  0  0  0  0  0  0  0  0  0  0
    1.4263   -0.3880   -0.0072 H   0  0  0  0  0  0  0  0  0  0  0  0
    0.2261    0.8267    0.5807 H   0  0  0  0  0  0  0  0  0  0  0  0
    2.1768    1.3172    1.5339 H   0  0  0  0  0  0  0  0  0  0  0  0
    3.6133    2.1373    3.2443 H   0  0  0  0  0  0  0  0  0  0  0  0
    3.8831    0.5816    6.6336 H   0  0  0  0  0  0  0  0  0  0  0  0
    5.8199    3.5003    7.0538 H   0  0  0  0  0  0  0  0  0  0  0  0
    6.6033    1.9196    6.8353 H   0  0  0  0  0  0  0  0  0  0  0  0
    5.7666    3.5748    9.2868 H   0  0  0  0  0  0  0  0  0  0  0  0
    4.4976    0.2056   10.2161 H   0  0  0  0  0  0  0  0  0  0  0  0
    3.4821   -0.3651   12.2853 H   0  0  0  0  0  0  0  0  0  0  0  0
    5.3387    4.2361   11.6191 H   0  0  0  0  0  0  0  0  0  0  0  0
    4.6181    4.5168   14.3116 H   0  0  0  0  0  0  0  0  0  0  0  0
    2.4679   -0.3474   14.1865 H   0  0  0  0  0  0  0  0  0  0  0  0
    2.3276    1.9604   17.1805 H   0  0  0  0  0  0  0  0  0  0  0  0
    1.4932    2.2807   19.3838 H   0  0  0  0  0  0  0  0  0  0  0  0
    1.2723    0.7766   20.2899 H   0  0  0  0  0  0  0  0  0  0  0  0
   -0.1276    1.6268   19.5873 H   0  0  0  0  0  0  0  0  0  0  0  0
   -1.1935   -0.1551   19.5096 H   0  0  0  0  0  0  0  0  0  0  0  0
   -1.2833   -2.2568   21.1373 H   0  0  0  0  0  0  0  0  0  0  0  0
   -2.1263   -2.9606   19.7513 H   0  0  0  0  0  0  0  0  0  0  0  0
   -3.7659   -1.0558   19.8131 H   0  0  0  0  0  0  0  0  0  0  0  0
   -3.0122   -0.4453   21.2793 H   0  0  0  0  0  0  0  0  0  0  0  0
   -6.1954   -2.2918   21.9692 H   0  0  0  0  0  0  0  0  0  0  0  0
   -5.7482   -0.8593   21.0426 H   0  0  0  0  0  0  0  0  0  0  0  0
   -6.0283   -0.5905   23.6892 H   0  0  0  0  0  0  0  0  0  0  0  0
   -4.5621    0.0900   22.9652 H   0  0  0  0  0  0  0  0  0  0  0  0
   -4.8681   -2.4626   24.5296 H   0  0  0  0  0  0  0  0  0  0  0  0
   -3.5038   -1.3310   24.4988 H   0  0  0  0  0  0  0  0  0  0  0  0
   -3.8956   -3.7382   22.9385 H   0  0  0  0  0  0  0  0  0  0  0  0
   -2.5177   -2.6591   22.8545 H   0  0  0  0  0  0  0  0  0  0  0  0
    0.2989   -2.8937   16.0754 H   0  0  0  0  0  0  0  0  0  0  0  0
    1.8778   -2.5895   15.3449 H   0  0  0  0  0  0  0  0  0  0  0  0
    0.4173   -1.8354   14.6761 H   0  0  0  0  0  0  0  0  0  0  0  0
    2.2681   -0.9736    5.9239 H   0  0  0  0  0  0  0  0  0  0  0  0
    0.7701   -1.8049    4.1506 H   0  0  0  0  0  0  0  0  0  0  0  0
  1  2  1  0  0  0  0
  1 44  1  0  0  0  0
  1 45  1  0  0  0  0
  1 46  1  0  0  0  0
  2  3  1  0  0  0  0
  3  4  1  0  0  0  0
  3 43  2  0  0  0  0
  4  5  2  0  0  0  0
  4 47  1  0  0  0  0
  5  6  1  0  0  0  0
  5 48  1  0  0  0  0
  6  7  1  0  0  0  0
  6 42  2  0  0  0  0
  7  8  1  0  0  0  0
  7 49  1  0  0  0  0
  8  9  2  0  0  0  0
  8 10  1  0  0  0  0
 10 11  1  0  0  0  0
 10 50  1  0  0  0  0
 10 51  1  0  0  0  0
 11 12  2  0  0  0  0
 11 13  1  0  0  0  0
 13 14  1  0  0  0  0
 13 52  1  0  0  0  0
 14 15  1  0  0  0  0
 14 19  2  0  0  0  0
 15 16  2  0  0  0  0
 15 53  1  0  0  0  0
 16 17  1  0  0  0  0
 16 54  1  0  0  0  0
 17 18  2  0  0  0  0
 17 23  1  0  0  0  0
 18 19  1  0  0  0  0
 18 20  1  0  0  0  0
 19 55  1  0  0  0  0
 20 21  1  0  0  0  0
 20 56  1  0  0  0  0
 21 22  2  0  0  0  0
 21 23  1  0  0  0  0
 23 24  2  0  0  0  0
 24 25  1  0  0  0  0
 24 57  1  0  0  0  0
 25 26  1  0  0  0  0
 25 40  2  0  0  0  0
 26 27  1  0  0  0  0
 26 58  1  0  0  0  0
 27 28  1  0  0  0  0
 27 29  2  0  0  0  0
 28 59  1  0  0  0  0
 28 60  1  0  0  0  0
 28 61  1  0  0  0  0
 29 30  1  0  0  0  0
 29 40  1  0  0  0  0
 30 31  2  0  0  0  0
 30 32  1  0  0  0  0
 32 33  1  0  0  0  0
 32 62  1  0  0  0  0
 33 34  1  0  0  0  0
 33 63  1  0  0  0  0
 33 64  1  0  0  0  0
 34 35  1  0  0  0  0
 34 65  1  0  0  0  0
 34 66  1  0  0  0  0
 35 36  1  0  0  0  0
 35 39  1  0  0  0  0
 36 37  1  0  0  0  0
 36 67  1  0  0  0  0
 36 68  1  0  0  0  0
 37 38  1  0  0  0  0
 37 69  1  0  0  0  0
 37 70  1  0  0  0  0
 38 39  1  0  0  0  0
 38 71  1  0  0  0  0
 38 72  1  0  0  0  0
 39 73  1  0  0  0  0
 39 74  1  0  0  0  0
 40 41  1  0  0  0  0
 41 75  1  0  0  0  0
 41 76  1  0  0  0  0
 41 77  1  0  0  0  0
 42 43  1  0  0  0  0
 42 78  1  0  0  0  0
 43 79  1  0  0  0  0
M  END
$$$$
