CHEMBL3747266
 OpenBabel04072215373D

 54 58  0  0  1  0  0  0  0  0999 V2000
    4.5659   -1.5786    1.9989 C   0  0  0  0  0  0  0  0  0  0  0  0
    4.1210   -0.7142    0.8223 C   0  0  1  0  0  0  0  0  0  0  0  0
    4.4540    0.7660    1.0895 C   0  0  0  0  0  0  0  0  0  0  0  0
    4.2545    1.6142   -0.1302 C   0  0  0  0  0  0  0  0  0  0  0  0
    4.1709    1.0549   -1.3967 C   0  0  0  0  0  0  0  0  0  0  0  0
    4.0053    1.7982   -2.5133 N   0  0  0  0  0  0  0  0  0  0  0  0
    3.9248    3.1239   -2.3397 C   0  0  0  0  0  0  0  0  0  0  0  0
    4.0142    3.7681   -1.1748 N   0  0  0  0  0  0  0  0  0  0  0  0
    4.2228    2.9924   -0.0917 C   0  0  0  0  0  0  0  0  0  0  0  0
    4.4244    3.6039    1.1405 O   0  0  0  0  0  0  0  0  0  0  0  0
    5.1385    4.7846    1.1582 C   0  0  0  0  0  0  0  0  0  0  0  0
    6.1606    5.0794    0.2554 C   0  0  0  0  0  0  0  0  0  0  0  0
    6.8256    6.3052    0.2864 C   0  0  0  0  0  0  0  0  0  0  0  0
    6.4703    7.2208    1.2877 C   0  0  0  0  0  0  0  0  0  0  0  0
    5.5180    6.9074    2.2649 C   0  0  0  0  0  0  0  0  0  0  0  0
    5.4901    7.9823    3.1918 C   0  0  0  0  0  0  0  0  0  0  0  0
    6.4353    8.8938    2.7896 C   0  0  0  0  0  0  0  0  0  0  0  0
    6.9949    8.4723    1.5975 N   0  0  0  0  0  0  0  0  0  0  0  0
    8.0452    9.1433    0.9431 C   0  0  0  0  0  0  0  0  0  0  0  0
    8.9332    9.6184    1.6376 O   0  0  0  0  0  0  0  0  0  0  0  0
    7.8300    9.2803   -0.4225 N   0  0  0  0  0  0  0  0  0  0  0  0
    8.7526    9.9448   -1.2638 C   0  0  0  0  0  0  0  0  0  0  0  0
   10.1156    9.9920   -0.9323 C   0  0  0  0  0  0  0  0  0  0  0  0
   11.0306   10.7195   -1.6912 C   0  0  0  0  0  0  0  0  0  0  0  0
   10.5913   11.4149   -2.8138 C   0  0  0  0  0  0  0  0  0  0  0  0
    9.2482   11.3546   -3.2079 C   0  0  0  0  0  0  0  0  0  0  0  0
    8.7953   12.1249   -4.4259 C   0  0  0  0  0  0  0  0  0  0  0  0
    9.7920   12.8630   -5.0012 F   0  0  0  0  0  0  0  0  0  0  0  0
    8.3197   11.3197   -5.4125 F   0  0  0  0  0  0  0  0  0  0  0  0
    7.8012   13.0106   -4.1469 F   0  0  0  0  0  0  0  0  0  0  0  0
    8.3311   10.5926   -2.4370 C   0  0  0  0  0  0  0  0  0  0  0  0
    4.8375    5.6740    2.1947 C   0  0  0  0  0  0  0  0  0  0  0  0
    4.2218   -0.4504   -1.5691 C   0  0  0  0  0  0  0  0  0  0  0  0
    4.7736   -1.1807   -0.4126 N   0  0  0  0  0  0  0  0  0  0  0  0
    4.0567   -1.2630    2.9164 H   0  0  0  0  0  0  0  0  0  0  0  0
    5.6452   -1.5042    2.1709 H   0  0  0  0  0  0  0  0  0  0  0  0
    4.3195   -2.6320    1.8279 H   0  0  0  0  0  0  0  0  0  0  0  0
    3.0342   -0.8326    0.7137 H   0  0  0  0  0  0  0  0  0  0  0  0
    5.4991    0.8674    1.4104 H   0  0  0  0  0  0  0  0  0  0  0  0
    3.8152    1.1286    1.9041 H   0  0  0  0  0  0  0  0  0  0  0  0
    3.7867    3.7315   -3.2271 H   0  0  0  0  0  0  0  0  0  0  0  0
    6.4512    4.3619   -0.5075 H   0  0  0  0  0  0  0  0  0  0  0  0
    7.6156    6.5112   -0.4286 H   0  0  0  0  0  0  0  0  0  0  0  0
    4.8804    8.0594    4.0830 H   0  0  0  0  0  0  0  0  0  0  0  0
    6.7574    9.8284    3.2302 H   0  0  0  0  0  0  0  0  0  0  0  0
    6.8897    9.1385   -0.7701 H   0  0  0  0  0  0  0  0  0  0  0  0
   10.5034    9.4560   -0.0690 H   0  0  0  0  0  0  0  0  0  0  0  0
   12.0709   10.7618   -1.3886 H   0  0  0  0  0  0  0  0  0  0  0  0
   11.3134   12.0072   -3.3780 H   0  0  0  0  0  0  0  0  0  0  0  0
    7.2861   10.5620   -2.7395 H   0  0  0  0  0  0  0  0  0  0  0  0
    4.0955    5.4128    2.9440 H   0  0  0  0  0  0  0  0  0  0  0  0
    4.8320   -0.6874   -2.4482 H   0  0  0  0  0  0  0  0  0  0  0  0
    3.2067   -0.8105   -1.7742 H   0  0  0  0  0  0  0  0  0  0  0  0
    5.7749   -0.9899   -0.3608 H   0  0  0  0  0  0  0  0  0  0  0  0
  1  2  1  0  0  0  0
  1 35  1  0  0  0  0
  1 36  1  0  0  0  0
  1 37  1  0  0  0  0
  2  3  1  0  0  0  0
  2 34  1  0  0  0  0
  2 38  1  6  0  0  0
  3  4  1  0  0  0  0
  3 39  1  0  0  0  0
  3 40  1  0  0  0  0
  4  5  1  0  0  0  0
  4  9  2  0  0  0  0
  5  6  2  0  0  0  0
  5 33  1  0  0  0  0
  6  7  1  0  0  0  0
  7  8  2  0  0  0  0
  7 41  1  0  0  0  0
  8  9  1  0  0  0  0
  9 10  1  0  0  0  0
 10 11  1  0  0  0  0
 11 12  1  0  0  0  0
 11 32  2  0  0  0  0
 12 13  2  0  0  0  0
 12 42  1  0  0  0  0
 13 14  1  0  0  0  0
 13 43  1  0  0  0  0
 14 15  2  0  0  0  0
 14 18  1  0  0  0  0
 15 16  1  0  0  0  0
 15 32  1  0  0  0  0
 16 17  2  0  0  0  0
 16 44  1  0  0  0  0
 17 18  1  0  0  0  0
 17 45  1  0  0  0  0
 18 19  1  0  0  0  0
 19 20  2  0  0  0  0
 19 21  1  0  0  0  0
 21 22  1  0  0  0  0
 21 46  1  0  0  0  0
 22 23  1  0  0  0  0
 22 31  2  0  0  0  0
 23 24  2  0  0  0  0
 23 47  1  0  0  0  0
 24 25  1  0  0  0  0
 24 48  1  0  0  0  0
 25 26  2  0  0  0  0
 25 49  1  0  0  0  0
 26 27  1  0  0  0  0
 26 31  1  0  0  0  0
 27 28  1  0  0  0  0
 27 29  1  0  0  0  0
 27 30  1  0  0  0  0
 31 50  1  0  0  0  0
 32 51  1  0  0  0  0
 33 34  1  0  0  0  0
 33 52  1  0  0  0  0
 33 53  1  0  0  0  0
 34 54  1  0  0  0  0
M  END
$$$$
