CHEMBL319789
 OpenBabel04072215363D

 29 31  0  0  0  0  0  0  0  0999 V2000
   -0.5913    2.7438    3.9735 Cl  0  0  0  0  0  0  0  0  0  0  0  0
   -1.5434    1.8532    2.8612 C   0  0  0  0  0  0  0  0  0  0  0  0
   -2.3042    0.7812    3.2848 C   0  0  0  0  0  0  0  0  0  0  0  0
   -3.0679    0.0843    2.3527 C   0  0  0  0  0  0  0  0  0  0  0  0
   -3.0665    0.4681    1.0112 C   0  0  0  0  0  0  0  0  0  0  0  0
   -3.8275   -0.1653    0.0319 N   0  0  0  0  0  0  0  0  0  0  0  0
   -4.4799   -1.3411    0.1253 C   0  0  0  0  0  0  0  0  0  0  0  0
   -4.3177   -2.2363    1.0739 N   0  0  0  0  0  0  0  0  0  0  0  0
   -5.1492   -3.3122    0.8793 C   0  0  0  0  0  0  0  0  0  0  0  0
   -5.9786   -3.2489   -0.2224 C   0  0  0  0  0  0  0  0  0  0  0  0
   -6.9937   -4.2110   -0.6661 C   0  0  0  0  0  0  0  0  0  0  0  0
   -7.6495   -5.0203    0.2781 C   0  0  0  0  0  0  0  0  0  0  0  0
   -8.5869   -5.9760   -0.1198 C   0  0  0  0  0  0  0  0  0  0  0  0
   -8.8853   -6.1345   -1.4696 C   0  0  0  0  0  0  0  0  0  0  0  0
   -8.2516   -5.3379   -2.4195 C   0  0  0  0  0  0  0  0  0  0  0  0
   -7.3119   -4.3833   -2.0209 C   0  0  0  0  0  0  0  0  0  0  0  0
   -5.6455   -1.7872   -1.0666 S   0  0  0  0  0  0  0  0  0  0  0  0
   -2.3340    1.5273    0.5921 N   0  0  0  0  0  0  0  0  0  0  0  0
   -1.5871    2.1859    1.5179 C   0  0  0  0  0  0  0  0  0  0  0  0
   -2.3220    0.4757    4.3285 H   0  0  0  0  0  0  0  0  0  0  0  0
   -3.6780   -0.7410    2.7023 H   0  0  0  0  0  0  0  0  0  0  0  0
   -3.7685    0.3171   -0.8546 H   0  0  0  0  0  0  0  0  0  0  0  0
   -5.1088   -4.1306    1.5876 H   0  0  0  0  0  0  0  0  0  0  0  0
   -7.4446   -4.9136    1.3418 H   0  0  0  0  0  0  0  0  0  0  0  0
   -9.0800   -6.5972    0.6242 H   0  0  0  0  0  0  0  0  0  0  0  0
   -9.6107   -6.8805   -1.7828 H   0  0  0  0  0  0  0  0  0  0  0  0
   -8.4819   -5.4603   -3.4745 H   0  0  0  0  0  0  0  0  0  0  0  0
   -6.8226   -3.7910   -2.7894 H   0  0  0  0  0  0  0  0  0  0  0  0
   -1.0101    3.0199    1.1297 H   0  0  0  0  0  0  0  0  0  0  0  0
  1  2  1  0  0  0  0
  2  3  1  0  0  0  0
  2 19  2  0  0  0  0
  3  4  2  0  0  0  0
  3 20  1  0  0  0  0
  4  5  1  0  0  0  0
  4 21  1  0  0  0  0
  5  6  1  0  0  0  0
  5 18  2  0  0  0  0
  6  7  1  0  0  0  0
  6 22  1  0  0  0  0
  7  8  2  0  0  0  0
  7 17  1  0  0  0  0
  8  9  1  0  0  0  0
  9 10  2  0  0  0  0
  9 23  1  0  0  0  0
 10 11  1  0  0  0  0
 10 17  1  0  0  0  0
 11 12  1  0  0  0  0
 11 16  2  0  0  0  0
 12 13  2  0  0  0  0
 12 24  1  0  0  0  0
 13 14  1  0  0  0  0
 13 25  1  0  0  0  0
 14 15  2  0  0  0  0
 14 26  1  0  0  0  0
 15 16  1  0  0  0  0
 15 27  1  0  0  0  0
 16 28  1  0  0  0  0
 18 19  1  0  0  0  0
 19 29  1  0  0  0  0
M  END
$$$$
