CHEMBL2386803
 OpenBabel04072215363D

 80 84  0  0  0  0  0  0  0  0999 V2000
   -3.2264    4.1122    3.5376 C   0  0  0  0  0  0  0  0  0  0  0  0
   -2.3341    2.9874    3.8009 N   0  0  0  0  0  0  0  0  0  0  0  0
   -3.0912    1.7431    3.9957 C   0  0  0  0  0  0  0  0  0  0  0  0
   -2.1353    0.5598    4.2644 C   0  0  0  0  0  0  0  0  0  0  0  0
   -1.1820    0.2887    3.1638 N   0  0  0  0  0  0  0  0  0  0  0  0
   -1.8092   -0.1739    1.9107 C   0  0  0  0  0  0  0  0  0  0  0  0
   -2.5974   -1.4675    2.0267 C   0  0  0  0  0  0  0  0  0  0  0  0
   -3.9644   -1.4372    2.3454 C   0  0  0  0  0  0  0  0  0  0  0  0
   -4.6813   -2.6187    2.5269 C   0  0  0  0  0  0  0  0  0  0  0  0
   -4.0443   -3.8485    2.3483 C   0  0  0  0  0  0  0  0  0  0  0  0
   -4.8187   -5.0841    2.5895 C   0  0  0  0  0  0  0  0  0  0  0  0
   -6.0265   -5.1193    2.4180 O   0  0  0  0  0  0  0  0  0  0  0  0
   -4.0791   -6.2155    3.0843 N   0  0  0  0  0  0  0  0  0  0  0  0
   -4.6736   -7.4353    3.3882 C   0  0  0  0  0  0  0  0  0  0  0  0
   -5.9921   -7.7904    3.2829 C   0  0  0  0  0  0  0  0  0  0  0  0
   -6.0690   -9.1412    3.7192 C   0  0  0  0  0  0  0  0  0  0  0  0
   -7.2684   -9.9705    3.7475 C   0  0  0  0  0  0  0  0  0  0  0  0
   -8.2809   -9.7703    2.7977 C   0  0  0  0  0  0  0  0  0  0  0  0
   -9.4380  -10.5510    2.8123 C   0  0  0  0  0  0  0  0  0  0  0  0
   -9.6076  -11.5387    3.7911 C   0  0  0  0  0  0  0  0  0  0  0  0
  -10.8816  -12.3327    3.8638 C   0  0  0  0  0  0  0  0  0  0  0  0
  -10.8344  -13.5673    3.1120 N   0  0  0  0  0  0  0  0  0  0  0  0
  -11.9733  -14.3536    3.1786 C   0  0  0  0  0  0  0  0  0  0  0  0
  -12.9307  -14.0167    3.8563 O   0  0  0  0  0  0  0  0  0  0  0  0
  -11.8493  -15.5213    2.4649 N   0  0  0  0  0  0  0  0  0  0  0  0
  -12.8821  -16.4406    2.3624 C   0  0  0  0  0  0  0  0  0  0  0  0
  -12.7129  -17.7901    1.9688 C   0  0  0  0  0  0  0  0  0  0  0  0
  -13.9799  -18.3313    1.9908 C   0  0  0  0  0  0  0  0  0  0  0  0
  -14.5643  -19.6800    1.6778 C   0  0  0  0  0  0  0  0  0  0  0  0
  -13.4445  -20.6663    1.2998 C   0  0  0  0  0  0  0  0  0  0  0  0
  -15.3249  -20.2353    2.8957 C   0  0  0  0  0  0  0  0  0  0  0  0
  -15.5365  -19.5587    0.4908 C   0  0  0  0  0  0  0  0  0  0  0  0
  -14.8550  -17.3606    2.3672 O   0  0  0  0  0  0  0  0  0  0  0  0
  -14.1732  -16.1867    2.5960 N   0  0  0  0  0  0  0  0  0  0  0  0
   -8.5927  -11.7438    4.7352 C   0  0  0  0  0  0  0  0  0  0  0  0
   -7.4315  -10.9659    4.7154 C   0  0  0  0  0  0  0  0  0  0  0  0
   -4.8631   -9.5845    4.0973 N   0  0  0  0  0  0  0  0  0  0  0  0
   -4.0392   -8.5526    3.8593 N   0  0  0  0  0  0  0  0  0  0  0  0
   -2.7058   -3.8964    1.9464 C   0  0  0  0  0  0  0  0  0  0  0  0
   -1.9824   -2.7090    1.8070 C   0  0  0  0  0  0  0  0  0  0  0  0
   -0.4428    1.5596    2.9247 C   0  0  0  0  0  0  0  0  0  0  0  0
   -1.3366    2.8187    2.7271 C   0  0  0  0  0  0  0  0  0  0  0  0
   -3.9512    4.2257    4.3521 H   0  0  0  0  0  0  0  0  0  0  0  0
   -3.7822    3.9928    2.6007 H   0  0  0  0  0  0  0  0  0  0  0  0
   -2.6597    5.0480    3.4894 H   0  0  0  0  0  0  0  0  0  0  0  0
   -3.7187    1.5386    3.1207 H   0  0  0  0  0  0  0  0  0  0  0  0
   -3.7655    1.8460    4.8539 H   0  0  0  0  0  0  0  0  0  0  0  0
   -2.7001   -0.3388    4.5316 H   0  0  0  0  0  0  0  0  0  0  0  0
   -1.5518    0.7906    5.1684 H   0  0  0  0  0  0  0  0  0  0  0  0
   -1.0104   -0.3511    1.1771 H   0  0  0  0  0  0  0  0  0  0  0  0
   -2.4551    0.5856    1.4564 H   0  0  0  0  0  0  0  0  0  0  0  0
   -4.4791   -0.4882    2.4724 H   0  0  0  0  0  0  0  0  0  0  0  0
   -5.7303   -2.5653    2.8178 H   0  0  0  0  0  0  0  0  0  0  0  0
   -3.0927   -6.1098    3.2801 H   0  0  0  0  0  0  0  0  0  0  0  0
   -6.8220   -7.1891    2.9456 H   0  0  0  0  0  0  0  0  0  0  0  0
   -8.1819   -9.0053    2.0312 H   0  0  0  0  0  0  0  0  0  0  0  0
  -10.2109  -10.3646    2.0701 H   0  0  0  0  0  0  0  0  0  0  0  0
  -11.7244  -11.7305    3.5028 H   0  0  0  0  0  0  0  0  0  0  0  0
  -11.0996  -12.5778    4.9111 H   0  0  0  0  0  0  0  0  0  0  0  0
  -10.3774  -13.5372    2.2126 H   0  0  0  0  0  0  0  0  0  0  0  0
  -10.9222  -15.8380    2.2389 H   0  0  0  0  0  0  0  0  0  0  0  0
  -11.7983  -18.3029    1.7189 H   0  0  0  0  0  0  0  0  0  0  0  0
  -12.7552  -20.8254    2.1380 H   0  0  0  0  0  0  0  0  0  0  0  0
  -12.8530  -20.2919    0.4555 H   0  0  0  0  0  0  0  0  0  0  0  0
  -13.8506  -21.6417    1.0121 H   0  0  0  0  0  0  0  0  0  0  0  0
  -14.6583  -20.3799    3.7536 H   0  0  0  0  0  0  0  0  0  0  0  0
  -15.7848  -21.2034    2.6640 H   0  0  0  0  0  0  0  0  0  0  0  0
  -16.1277  -19.5603    3.2157 H   0  0  0  0  0  0  0  0  0  0  0  0
  -15.0339  -19.1539   -0.3952 H   0  0  0  0  0  0  0  0  0  0  0  0
  -16.3762  -18.8931    0.7242 H   0  0  0  0  0  0  0  0  0  0  0  0
  -15.9556  -20.5351    0.2216 H   0  0  0  0  0  0  0  0  0  0  0  0
   -8.7127  -12.4993    5.5092 H   0  0  0  0  0  0  0  0  0  0  0  0
   -6.6656  -11.1313    5.4706 H   0  0  0  0  0  0  0  0  0  0  0  0
   -3.0519   -8.6930    4.0396 H   0  0  0  0  0  0  0  0  0  0  0  0
   -2.2152   -4.8365    1.7135 H   0  0  0  0  0  0  0  0  0  0  0  0
   -0.9353   -2.7536    1.5115 H   0  0  0  0  0  0  0  0  0  0  0  0
    0.2321    1.4484    2.0672 H   0  0  0  0  0  0  0  0  0  0  0  0
    0.2112    1.7350    3.7901 H   0  0  0  0  0  0  0  0  0  0  0  0
   -1.8337    2.7562    1.7507 H   0  0  0  0  0  0  0  0  0  0  0  0
   -0.6848    3.7002    2.6994 H   0  0  0  0  0  0  0  0  0  0  0  0
  1  2  1  0  0  0  0
  1 43  1  0  0  0  0
  1 44  1  0  0  0  0
  1 45  1  0  0  0  0
  2  3  1  0  0  0  0
  2 42  1  0  0  0  0
  3  4  1  0  0  0  0
  3 46  1  0  0  0  0
  3 47  1  0  0  0  0
  4  5  1  0  0  0  0
  4 48  1  0  0  0  0
  4 49  1  0  0  0  0
  5  6  1  0  0  0  0
  5 41  1  0  0  0  0
  6  7  1  0  0  0  0
  6 50  1  0  0  0  0
  6 51  1  0  0  0  0
  7  8  1  0  0  0  0
  7 40  2  0  0  0  0
  8  9  2  0  0  0  0
  8 52  1  0  0  0  0
  9 10  1  0  0  0  0
  9 53  1  0  0  0  0
 10 11  1  0  0  0  0
 10 39  2  0  0  0  0
 11 12  2  0  0  0  0
 11 13  1  0  0  0  0
 13 14  1  0  0  0  0
 13 54  1  0  0  0  0
 14 15  2  0  0  0  0
 14 38  1  0  0  0  0
 15 16  1  0  0  0  0
 15 55  1  0  0  0  0
 16 17  1  0  0  0  0
 16 37  2  0  0  0  0
 17 18  1  0  0  0  0
 17 36  2  0  0  0  0
 18 19  2  0  0  0  0
 18 56  1  0  0  0  0
 19 20  1  0  0  0  0
 19 57  1  0  0  0  0
 20 21  1  0  0  0  0
 20 35  2  0  0  0  0
 21 22  1  0  0  0  0
 21 58  1  0  0  0  0
 21 59  1  0  0  0  0
 22 23  1  0  0  0  0
 22 60  1  0  0  0  0
 23 24  2  0  0  0  0
 23 25  1  0  0  0  0
 25 26  1  0  0  0  0
 25 61  1  0  0  0  0
 26 27  1  0  0  0  0
 26 34  2  0  0  0  0
 27 28  2  0  0  0  0
 27 62  1  0  0  0  0
 28 29  1  0  0  0  0
 28 33  1  0  0  0  0
 29 30  1  0  0  0  0
 29 31  1  0  0  0  0
 29 32  1  0  0  0  0
 30 63  1  0  0  0  0
 30 64  1  0  0  0  0
 30 65  1  0  0  0  0
 31 66  1  0  0  0  0
 31 67  1  0  0  0  0
 31 68  1  0  0  0  0
 32 69  1  0  0  0  0
 32 70  1  0  0  0  0
 32 71  1  0  0  0  0
 33 34  1  0  0  0  0
 35 36  1  0  0  0  0
 35 72  1  0  0  0  0
 36 73  1  0  0  0  0
 37 38  1  0  0  0  0
 38 74  1  0  0  0  0
 39 40  1  0  0  0  0
 39 75  1  0  0  0  0
 40 76  1  0  0  0  0
 41 42  1  0  0  0  0
 41 77  1  0  0  0  0
 41 78  1  0  0  0  0
 42 79  1  0  0  0  0
 42 80  1  0  0  0  0
M  END
$$$$
