CHEMBL1241949
 OpenBabel04072215363D

 41 44  0  0  0  0  0  0  0  0999 V2000
    1.9381    0.6645    1.0817 C   0  0  0  0  0  0  0  0  0  0  0  0
    2.6472   -0.1855    0.0149 C   0  0  0  0  0  0  0  0  0  0  0  0
    3.7213    0.6492   -0.6806 C   0  0  0  0  0  0  0  0  0  0  0  0
    3.2037   -1.4275    0.5490 N   0  0  0  0  0  0  0  0  0  0  0  0
    4.1876   -1.3782    1.4645 N   0  0  0  0  0  0  0  0  0  0  0  0
    4.2558   -2.6316    1.9677 C   0  0  0  0  0  0  0  0  0  0  0  0
    4.8350   -2.7976    3.3047 C   0  0  0  0  0  0  0  0  0  0  0  0
    4.4485   -1.7657    4.1680 C   0  0  0  0  0  0  0  0  0  0  0  0
    4.8249   -1.7313    5.4845 C   0  0  0  0  0  0  0  0  0  0  0  0
    5.5997   -2.7221    5.9939 C   0  0  0  0  0  0  0  0  0  0  0  0
    5.8355   -2.5332    7.2795 N   0  0  0  0  0  0  0  0  0  0  0  0
    6.6103   -3.3952    7.9105 C   0  0  0  0  0  0  0  0  0  0  0  0
    6.8090   -3.0187    9.2265 N   0  0  0  0  0  0  0  0  0  0  0  0
    7.1796   -4.4846    7.2823 C   0  0  0  0  0  0  0  0  0  0  0  0
    6.8905   -4.7032    5.9149 C   0  0  0  0  0  0  0  0  0  0  0  0
    6.0659   -3.7888    5.2005 C   0  0  0  0  0  0  0  0  0  0  0  0
    5.6641   -3.8187    3.8101 C   0  0  0  0  0  0  0  0  0  0  0  0
    3.4618   -3.5250    1.1905 C   0  0  0  0  0  0  0  0  0  0  0  0
    3.0978   -4.8701    1.1928 C   0  0  0  0  0  0  0  0  0  0  0  0
    3.5466   -5.8169    2.1143 N   0  0  0  0  0  0  0  0  0  0  0  0
    2.2206   -5.3081    0.2646 N   0  0  0  0  0  0  0  0  0  0  0  0
    1.6917   -4.4173   -0.6007 C   0  0  0  0  0  0  0  0  0  0  0  0
    1.9101   -3.0925   -0.6467 N   0  0  0  0  0  0  0  0  0  0  0  0
    2.8089   -2.7080    0.2728 C   0  0  0  0  0  0  0  0  0  0  0  0
    1.4963    1.5602    0.6264 H   0  0  0  0  0  0  0  0  0  0  0  0
    2.6283    1.0037    1.8629 H   0  0  0  0  0  0  0  0  0  0  0  0
    1.1296    0.1093    1.5686 H   0  0  0  0  0  0  0  0  0  0  0  0
    1.8960   -0.4704   -0.7307 H   0  0  0  0  0  0  0  0  0  0  0  0
    4.4758    1.0047    0.0307 H   0  0  0  0  0  0  0  0  0  0  0  0
    3.2774    1.5280   -1.1606 H   0  0  0  0  0  0  0  0  0  0  0  0
    4.2334    0.0618   -1.4486 H   0  0  0  0  0  0  0  0  0  0  0  0
    3.8223   -0.9471    3.8176 H   0  0  0  0  0  0  0  0  0  0  0  0
    4.5019   -0.9149    6.1159 H   0  0  0  0  0  0  0  0  0  0  0  0
    6.1753   -2.2159    9.3115 H   0  0  0  0  0  0  0  0  0  0  0  0
    7.7542   -2.6747    9.3506 H   0  0  0  0  0  0  0  0  0  0  0  0
    7.8120   -5.1641    7.8433 H   0  0  0  0  0  0  0  0  0  0  0  0
    7.3156   -5.5793    5.4321 H   0  0  0  0  0  0  0  0  0  0  0  0
    6.0043   -4.6249    3.1648 H   0  0  0  0  0  0  0  0  0  0  0  0
    3.6536   -5.4486    3.0500 H   0  0  0  0  0  0  0  0  0  0  0  0
    2.9658   -6.6462    2.0525 H   0  0  0  0  0  0  0  0  0  0  0  0
    1.0018   -4.8146   -1.3326 H   0  0  0  0  0  0  0  0  0  0  0  0
  1  2  1  0  0  0  0
  1 25  1  0  0  0  0
  1 26  1  0  0  0  0
  1 27  1  0  0  0  0
  2  3  1  0  0  0  0
  2  4  1  0  0  0  0
  2 28  1  0  0  0  0
  3 29  1  0  0  0  0
  3 30  1  0  0  0  0
  3 31  1  0  0  0  0
  4  5  1  0  0  0  0
  4 24  1  0  0  0  0
  5  6  2  0  0  0  0
  6  7  1  0  0  0  0
  6 18  1  0  0  0  0
  7  8  1  0  0  0  0
  7 17  2  0  0  0  0
  8  9  2  0  0  0  0
  8 32  1  0  0  0  0
  9 10  1  0  0  0  0
  9 33  1  0  0  0  0
 10 11  1  0  0  0  0
 10 16  2  0  0  0  0
 11 12  2  0  0  0  0
 12 13  1  0  0  0  0
 12 14  1  0  0  0  0
 13 34  1  0  0  0  0
 13 35  1  0  0  0  0
 14 15  2  0  0  0  0
 14 36  1  0  0  0  0
 15 16  1  0  0  0  0
 15 37  1  0  0  0  0
 16 17  1  0  0  0  0
 17 38  1  0  0  0  0
 18 19  1  0  0  0  0
 18 24  2  0  0  0  0
 19 20  1  0  0  0  0
 19 21  2  0  0  0  0
 20 39  1  0  0  0  0
 20 40  1  0  0  0  0
 21 22  1  0  0  0  0
 22 23  2  0  0  0  0
 22 41  1  0  0  0  0
 23 24  1  0  0  0  0
M  END
$$$$
