CHEMBL2159198
 OpenBabel04072215363D

 37 40  0  0  0  0  0  0  0  0999 V2000
    1.0819   -0.0713    0.0055 C   0  0  0  0  0  0  0  0  0  0  0  0
    2.5644    0.0464    0.0043 C   0  0  0  0  0  0  0  0  0  0  0  0
    3.3583   -1.0102    0.0203 N   0  0  0  0  0  0  0  0  0  0  0  0
    4.6339   -0.5235   -0.0001 C   0  0  0  0  0  0  0  0  0  0  0  0
    5.8749   -1.1842   -0.0132 C   0  0  0  0  0  0  0  0  0  0  0  0
    7.0684   -0.5183   -0.0358 N   0  0  0  0  0  0  0  0  0  0  0  0
    6.9644    0.8204   -0.0410 C   0  0  0  0  0  0  0  0  0  0  0  0
    7.9941    1.7171   -0.0589 N   0  0  0  0  0  0  0  0  0  0  0  0
    7.4898    2.9983   -0.0530 C   0  0  0  0  0  0  0  0  0  0  0  0
    6.1060    2.9270   -0.0315 C   0  0  0  0  0  0  0  0  0  0  0  0
    5.7908    1.5442   -0.0304 C   0  0  0  0  0  0  0  0  0  0  0  0
    4.6062    0.8593   -0.0146 C   0  0  0  0  0  0  0  0  0  0  0  0
    3.3012    1.2331   -0.0254 N   0  0  0  0  0  0  0  0  0  0  0  0
    2.7616    2.5827   -0.1299 C   0  0  0  0  0  0  0  0  0  0  0  0
    1.8920    3.0308    1.0546 C   0  0  0  0  0  0  0  0  0  0  0  0
    1.5140    4.5073    0.9180 C   0  0  0  0  0  0  0  0  0  0  0  0
    0.8432    4.7916   -0.4247 C   0  0  0  0  0  0  0  0  0  0  0  0
    1.7114    4.3457   -1.5991 C   0  0  0  0  0  0  0  0  0  0  0  0
    2.0987    2.8722   -1.4846 C   0  0  0  0  0  0  0  0  0  0  0  0
    0.7943   -1.1289    0.0138 H   0  0  0  0  0  0  0  0  0  0  0  0
    0.6383    0.3672   -0.8895 H   0  0  0  0  0  0  0  0  0  0  0  0
    0.6426    0.3791    0.8970 H   0  0  0  0  0  0  0  0  0  0  0  0
    5.9319   -2.2665   -0.0112 H   0  0  0  0  0  0  0  0  0  0  0  0
    8.9682    1.4535   -0.0715 H   0  0  0  0  0  0  0  0  0  0  0  0
    8.1570    3.8498   -0.0618 H   0  0  0  0  0  0  0  0  0  0  0  0
    5.4726    3.7992   -0.0146 H   0  0  0  0  0  0  0  0  0  0  0  0
    3.6187    3.2461   -0.0937 H   0  0  0  0  0  0  0  0  0  0  0  0
    2.4295    2.8769    1.9983 H   0  0  0  0  0  0  0  0  0  0  0  0
    0.9701    2.4476    1.1156 H   0  0  0  0  0  0  0  0  0  0  0  0
    2.4151    5.1260    1.0140 H   0  0  0  0  0  0  0  0  0  0  0  0
    0.8425    4.7939    1.7350 H   0  0  0  0  0  0  0  0  0  0  0  0
    0.6318    5.8631   -0.5111 H   0  0  0  0  0  0  0  0  0  0  0  0
   -0.1207    4.2697   -0.4669 H   0  0  0  0  0  0  0  0  0  0  0  0
    2.6203    4.9593   -1.6353 H   0  0  0  0  0  0  0  0  0  0  0  0
    1.1764    4.5128   -2.5405 H   0  0  0  0  0  0  0  0  0  0  0  0
    2.7818    2.6103   -2.3020 H   0  0  0  0  0  0  0  0  0  0  0  0
    1.1993    2.2660   -1.6215 H   0  0  0  0  0  0  0  0  0  0  0  0
  1  2  1  0  0  0  0
  1 20  1  0  0  0  0
  1 21  1  0  0  0  0
  1 22  1  0  0  0  0
  2  3  2  0  0  0  0
  2 13  1  0  0  0  0
  3  4  1  0  0  0  0
  4  5  1  0  0  0  0
  4 12  2  0  0  0  0
  5  6  2  0  0  0  0
  5 23  1  0  0  0  0
  6  7  1  0  0  0  0
  7  8  1  0  0  0  0
  7 11  2  0  0  0  0
  8  9  1  0  0  0  0
  8 24  1  0  0  0  0
  9 10  2  0  0  0  0
  9 25  1  0  0  0  0
 10 11  1  0  0  0  0
 10 26  1  0  0  0  0
 11 12  1  0  0  0  0
 12 13  1  0  0  0  0
 13 14  1  0  0  0  0
 14 15  1  0  0  0  0
 14 19  1  0  0  0  0
 14 27  1  0  0  0  0
 15 16  1  0  0  0  0
 15 28  1  0  0  0  0
 15 29  1  0  0  0  0
 16 17  1  0  0  0  0
 16 30  1  0  0  0  0
 16 31  1  0  0  0  0
 17 18  1  0  0  0  0
 17 32  1  0  0  0  0
 17 33  1  0  0  0  0
 18 19  1  0  0  0  0
 18 34  1  0  0  0  0
 18 35  1  0  0  0  0
 19 36  1  0  0  0  0
 19 37  1  0  0  0  0
M  END
$$$$
