CHEMBL212962
 OpenBabel04072215363D

 50 54  0  0  0  0  0  0  0  0999 V2000
    1.2452    0.3577   -1.8707 C   0  0  0  0  0  0  0  0  0  0  0  0
   -0.1696    0.5406   -1.5515 N   0  0  0  0  0  0  0  0  0  0  0  0
   -0.7817   -0.7380   -1.1541 C   0  0  0  0  0  0  0  0  0  0  0  0
   -2.2437   -0.5637   -0.6830 C   0  0  0  0  0  0  0  0  0  0  0  0
   -2.4127    0.3759    0.4489 N   0  0  0  0  0  0  0  0  0  0  0  0
   -1.8281   -0.1036    1.7206 C   0  0  0  0  0  0  0  0  0  0  0  0
   -2.4436   -1.3974    2.2289 C   0  0  0  0  0  0  0  0  0  0  0  0
   -1.8953   -2.6170    1.8360 C   0  0  0  0  0  0  0  0  0  0  0  0
   -2.5317   -3.8174    2.1525 C   0  0  0  0  0  0  0  0  0  0  0  0
   -3.7244   -3.8707    2.9021 C   0  0  0  0  0  0  0  0  0  0  0  0
   -4.3018   -5.2244    3.2502 C   0  0  0  0  0  0  0  0  0  0  0  0
   -3.6872   -6.3718    2.7068 N   0  0  0  0  0  0  0  0  0  0  0  0
   -2.7195   -6.7990    3.5809 N   0  0  0  0  0  0  0  0  0  0  0  0
   -3.2236   -6.3176    4.7191 C   0  0  0  0  0  0  0  0  0  0  0  0
   -4.5389   -5.7765    4.5267 C   0  0  0  0  0  0  0  0  0  0  0  0
   -5.0619   -5.2501    5.8303 C   0  0  0  0  0  0  0  0  0  0  0  0
   -3.7152   -4.8005    6.3639 C   0  0  0  0  0  0  0  0  0  0  0  0
   -3.5163   -3.5913    7.0147 C   0  0  0  0  0  0  0  0  0  0  0  0
   -2.2267   -3.0709    7.0204 C   0  0  0  0  0  0  0  0  0  0  0  0
   -1.1506   -3.7795    6.4502 C   0  0  0  0  0  0  0  0  0  0  0  0
   -1.3428   -5.0305    5.8376 C   0  0  0  0  0  0  0  0  0  0  0  0
   -2.6276   -5.5276    5.7923 C   0  0  0  0  0  0  0  0  0  0  0  0
   -4.2052   -2.6526    3.3986 C   0  0  0  0  0  0  0  0  0  0  0  0
   -3.5798   -1.4289    3.0522 C   0  0  0  0  0  0  0  0  0  0  0  0
   -1.8050    1.6613    0.0284 C   0  0  0  0  0  0  0  0  0  0  0  0
   -0.3485    1.5615   -0.5011 C   0  0  0  0  0  0  0  0  0  0  0  0
    1.3705   -0.3954   -2.6570 H   0  0  0  0  0  0  0  0  0  0  0  0
    1.8280    0.0382   -0.9986 H   0  0  0  0  0  0  0  0  0  0  0  0
    1.6775    1.2889   -2.2519 H   0  0  0  0  0  0  0  0  0  0  0  0
   -0.1883   -1.2142   -0.3649 H   0  0  0  0  0  0  0  0  0  0  0  0
   -0.7775   -1.4231   -2.0106 H   0  0  0  0  0  0  0  0  0  0  0  0
   -2.6875   -1.5392   -0.4625 H   0  0  0  0  0  0  0  0  0  0  0  0
   -2.8369   -0.1863   -1.5281 H   0  0  0  0  0  0  0  0  0  0  0  0
   -1.9791    0.6633    2.4918 H   0  0  0  0  0  0  0  0  0  0  0  0
   -0.7401   -0.2315    1.6497 H   0  0  0  0  0  0  0  0  0  0  0  0
   -0.9782   -2.6541    1.2551 H   0  0  0  0  0  0  0  0  0  0  0  0
   -2.0316   -4.7256    1.8264 H   0  0  0  0  0  0  0  0  0  0  0  0
   -3.5465   -6.5512    1.7213 H   0  0  0  0  0  0  0  0  0  0  0  0
   -5.4482   -6.0745    6.4475 H   0  0  0  0  0  0  0  0  0  0  0  0
   -5.8038   -4.4592    5.7305 H   0  0  0  0  0  0  0  0  0  0  0  0
   -4.3615   -3.0008    7.3537 H   0  0  0  0  0  0  0  0  0  0  0  0
   -2.0711   -2.0564    7.3868 H   0  0  0  0  0  0  0  0  0  0  0  0
   -0.1765   -3.3002    6.3970 H   0  0  0  0  0  0  0  0  0  0  0  0
   -0.5363   -5.4997    5.2808 H   0  0  0  0  0  0  0  0  0  0  0  0
   -5.0586   -2.6242    4.0698 H   0  0  0  0  0  0  0  0  0  0  0  0
   -3.9879   -0.4938    3.4324 H   0  0  0  0  0  0  0  0  0  0  0  0
   -1.8501    2.3886    0.8477 H   0  0  0  0  0  0  0  0  0  0  0  0
   -2.4324    2.0829   -0.7697 H   0  0  0  0  0  0  0  0  0  0  0  0
    0.3213    1.3640    0.3449 H   0  0  0  0  0  0  0  0  0  0  0  0
   -0.0677    2.5397   -0.9110 H   0  0  0  0  0  0  0  0  0  0  0  0
  1  2  1  0  0  0  0
  1 27  1  0  0  0  0
  1 28  1  0  0  0  0
  1 29  1  0  0  0  0
  2  3  1  0  0  0  0
  2 26  1  0  0  0  0
  3  4  1  0  0  0  0
  3 30  1  0  0  0  0
  3 31  1  0  0  0  0
  4  5  1  0  0  0  0
  4 32  1  0  0  0  0
  4 33  1  0  0  0  0
  5  6  1  0  0  0  0
  5 25  1  0  0  0  0
  6  7  1  0  0  0  0
  6 34  1  0  0  0  0
  6 35  1  0  0  0  0
  7  8  1  0  0  0  0
  7 24  2  0  0  0  0
  8  9  2  0  0  0  0
  8 36  1  0  0  0  0
  9 10  1  0  0  0  0
  9 37  1  0  0  0  0
 10 11  1  0  0  0  0
 10 23  2  0  0  0  0
 11 12  1  0  0  0  0
 11 15  2  0  0  0  0
 12 13  1  0  0  0  0
 12 38  1  0  0  0  0
 13 14  2  0  0  0  0
 14 15  1  0  0  0  0
 14 22  1  0  0  0  0
 15 16  1  0  0  0  0
 16 17  1  0  0  0  0
 16 39  1  0  0  0  0
 16 40  1  0  0  0  0
 17 18  1  0  0  0  0
 17 22  2  0  0  0  0
 18 19  2  0  0  0  0
 18 41  1  0  0  0  0
 19 20  1  0  0  0  0
 19 42  1  0  0  0  0
 20 21  2  0  0  0  0
 20 43  1  0  0  0  0
 21 22  1  0  0  0  0
 21 44  1  0  0  0  0
 23 24  1  0  0  0  0
 23 45  1  0  0  0  0
 24 46  1  0  0  0  0
 25 26  1  0  0  0  0
 25 47  1  0  0  0  0
 25 48  1  0  0  0  0
 26 49  1  0  0  0  0
 26 50  1  0  0  0  0
M  END
$$$$
