CHEMBL1952211
 OpenBabel04072215363D

 57 61  0  0  1  0  0  0  0  0999 V2000
   11.1121    2.0213   13.1138 C   0  0  0  0  0  0  0  0  0  0  0  0
   11.4703    2.8266   11.9964 O   0  0  0  0  0  0  0  0  0  0  0  0
   11.5112    2.1968   10.7847 C   0  0  0  0  0  0  0  0  0  0  0  0
   11.2549    0.8547   10.5550 C   0  0  0  0  0  0  0  0  0  0  0  0
   11.2985    0.3421    9.2529 C   0  0  0  0  0  0  0  0  0  0  0  0
   11.6082    1.1458    8.1461 C   0  0  0  0  0  0  0  0  0  0  0  0
   11.5299    0.6492    6.8024 N   0  0  0  0  0  0  0  0  0  0  0  0
   12.2879    1.2437    5.7224 C   0  0  0  0  0  0  0  0  0  0  0  0
   11.4626    1.4044    4.5053 C   0  0  0  0  0  0  0  0  0  0  0  0
   11.8324    2.1972    3.4446 C   0  0  0  0  0  0  0  0  0  0  0  0
   11.1214    2.2920    2.3074 N   0  0  0  0  0  0  0  0  0  0  0  0
    9.9720    1.6084    2.2638 C   0  0  0  0  0  0  0  0  0  0  0  0
    9.2687    1.6392    1.0644 N   0  0  0  0  0  0  0  0  0  0  0  0
    7.8881    1.5597    0.8606 C   0  0  0  0  0  0  0  0  0  0  0  0
    6.9631    1.9709    1.8284 C   0  0  0  0  0  0  0  0  0  0  0  0
    5.5907    1.8451    1.6073 C   0  0  0  0  0  0  0  0  0  0  0  0
    5.1273    1.2816    0.4217 C   0  0  0  0  0  0  0  0  0  0  0  0
    6.0352    0.8630   -0.5485 C   0  0  0  0  0  0  0  0  0  0  0  0
    7.4067    1.0146   -0.3350 C   0  0  0  0  0  0  0  0  0  0  0  0
    9.5272    0.8347    3.2668 N   0  0  0  0  0  0  0  0  0  0  0  0
   10.3004    0.6892    4.3534 C   0  0  0  0  0  0  0  0  0  0  0  0
    9.9556   -0.2871    5.3334 N   0  0  0  0  0  0  0  0  0  0  0  0
    8.5777   -0.8378    5.2861 C   0  0  1  0  0  0  0  0  0  0  0  0
    8.3904   -2.3074    5.7321 C   0  0  0  0  0  0  0  0  0  0  0  0
    7.5151   -2.2738    6.9912 C   0  0  0  0  0  0  0  0  0  0  0  0
    7.6106   -0.8456    7.5054 C   0  0  2  0  0  0  0  0  0  0  0  0
    6.5177   -0.4930    8.3319 O   0  0  0  0  0  0  0  0  0  0  0  0
    7.6469   -0.0348    6.2154 C   0  0  0  0  0  0  0  0  0  0  0  0
   10.7453   -0.4639    6.4779 C   0  0  0  0  0  0  0  0  0  0  0  0
   10.6286   -1.4516    7.1990 O   0  0  0  0  0  0  0  0  0  0  0  0
   11.8762    2.4977    8.3989 C   0  0  0  0  0  0  0  0  0  0  0  0
   11.8246    3.0152    9.7011 C   0  0  0  0  0  0  0  0  0  0  0  0
   11.0687    2.6700   13.9932 H   0  0  0  0  0  0  0  0  0  0  0  0
   11.8709    1.2535   13.2996 H   0  0  0  0  0  0  0  0  0  0  0  0
   10.1208    1.5736   12.9830 H   0  0  0  0  0  0  0  0  0  0  0  0
   11.0006    0.1660   11.3537 H   0  0  0  0  0  0  0  0  0  0  0  0
   11.0852   -0.7166    9.1557 H   0  0  0  0  0  0  0  0  0  0  0  0
   13.1146    0.5585    5.4956 H   0  0  0  0  0  0  0  0  0  0  0  0
   12.7332    2.2017    5.9981 H   0  0  0  0  0  0  0  0  0  0  0  0
   12.7454    2.7859    3.4650 H   0  0  0  0  0  0  0  0  0  0  0  0
    9.8048    2.0916    0.3397 H   0  0  0  0  0  0  0  0  0  0  0  0
    7.3050    2.4134    2.7613 H   0  0  0  0  0  0  0  0  0  0  0  0
    4.8885    2.1826    2.3646 H   0  0  0  0  0  0  0  0  0  0  0  0
    4.0598    1.1638    0.2569 H   0  0  0  0  0  0  0  0  0  0  0  0
    5.6777    0.4066   -1.4674 H   0  0  0  0  0  0  0  0  0  0  0  0
    8.1038    0.6640   -1.0918 H   0  0  0  0  0  0  0  0  0  0  0  0
    8.2035   -0.7712    4.2591 H   0  0  0  0  0  0  0  0  0  0  0  0
    9.3298   -2.8399    5.9002 H   0  0  0  0  0  0  0  0  0  0  0  0
    7.8662   -2.8742    4.9530 H   0  0  0  0  0  0  0  0  0  0  0  0
    7.8315   -3.0037    7.7424 H   0  0  0  0  0  0  0  0  0  0  0  0
    6.4764   -2.5189    6.7359 H   0  0  0  0  0  0  0  0  0  0  0  0
    8.5186   -0.6989    8.0941 H   0  0  0  0  0  0  0  0  0  0  0  0
    5.6996   -0.5767    7.8189 H   0  0  0  0  0  0  0  0  0  0  0  0
    7.9693    0.9964    6.3919 H   0  0  0  0  0  0  0  0  0  0  0  0
    6.6382    0.0188    5.7845 H   0  0  0  0  0  0  0  0  0  0  0  0
   12.0457    3.2139    7.6017 H   0  0  0  0  0  0  0  0  0  0  0  0
   12.0006    4.0756    9.8645 H   0  0  0  0  0  0  0  0  0  0  0  0
  1  2  1  0  0  0  0
  1 33  1  0  0  0  0
  1 34  1  0  0  0  0
  1 35  1  0  0  0  0
  2  3  1  0  0  0  0
  3  4  1  0  0  0  0
  3 32  2  0  0  0  0
  4  5  2  0  0  0  0
  4 36  1  0  0  0  0
  5  6  1  0  0  0  0
  5 37  1  0  0  0  0
  6  7  1  0  0  0  0
  6 31  2  0  0  0  0
  7  8  1  0  0  0  0
  7 29  1  0  0  0  0
  8  9  1  0  0  0  0
  8 38  1  0  0  0  0
  8 39  1  0  0  0  0
  9 10  1  0  0  0  0
  9 21  2  0  0  0  0
 10 11  2  0  0  0  0
 10 40  1  0  0  0  0
 11 12  1  0  0  0  0
 12 13  1  0  0  0  0
 12 20  2  0  0  0  0
 13 14  1  0  0  0  0
 13 41  1  0  0  0  0
 14 15  1  0  0  0  0
 14 19  2  0  0  0  0
 15 16  2  0  0  0  0
 15 42  1  0  0  0  0
 16 17  1  0  0  0  0
 16 43  1  0  0  0  0
 17 18  2  0  0  0  0
 17 44  1  0  0  0  0
 18 19  1  0  0  0  0
 18 45  1  0  0  0  0
 19 46  1  0  0  0  0
 20 21  1  0  0  0  0
 21 22  1  0  0  0  0
 22 29  1  0  0  0  0
 23 24  1  0  0  0  0
 23 28  1  0  0  0  0
 23 22  1  0  0  0  0
 23 47  1  6  0  0  0
 24 25  1  0  0  0  0
 24 48  1  0  0  0  0
 24 49  1  0  0  0  0
 25 26  1  0  0  0  0
 25 50  1  0  0  0  0
 25 51  1  0  0  0  0
 26 28  1  0  0  0  0
 26 27  1  0  0  0  0
 26 52  1  1  0  0  0
 27 53  1  0  0  0  0
 28 54  1  0  0  0  0
 28 55  1  0  0  0  0
 29 30  2  0  0  0  0
 31 32  1  0  0  0  0
 31 56  1  0  0  0  0
 32 57  1  0  0  0  0
M  END
$$$$
