CHEMBL399546
 OpenBabel04072215373D

 49 52  0  0  0  0  0  0  0  0999 V2000
    0.8926    0.2398   -0.3453 O   0  0  0  0  0  0  0  0  0  0  0  0
    2.0650    0.2922    0.0110 C   0  0  0  0  0  0  0  0  0  0  0  0
    2.5404    0.1018    1.2961 N   0  0  0  0  0  0  0  0  0  0  0  0
    1.7699   -0.2444    2.4321 C   0  0  0  0  0  0  0  0  0  0  0  0
    0.3912   -0.4557    2.3937 C   0  0  0  0  0  0  0  0  0  0  0  0
   -0.3042   -0.8228    3.5432 C   0  0  0  0  0  0  0  0  0  0  0  0
    0.3750   -0.9845    4.7480 C   0  0  0  0  0  0  0  0  0  0  0  0
    1.7663   -0.8032    4.8305 C   0  0  0  0  0  0  0  0  0  0  0  0
    2.4946   -1.0661    6.0948 C   0  0  0  0  0  0  0  0  0  0  0  0
    2.0927   -2.1049    6.9574 C   0  0  0  0  0  0  0  0  0  0  0  0
    2.7914   -2.3954    8.1320 C   0  0  0  0  0  0  0  0  0  0  0  0
    3.9203   -1.6576    8.4684 C   0  0  0  0  0  0  0  0  0  0  0  0
    4.3375   -0.6200    7.6400 C   0  0  0  0  0  0  0  0  0  0  0  0
    3.6267   -0.3223    6.4717 C   0  0  0  0  0  0  0  0  0  0  0  0
    2.4426   -0.4161    3.6525 C   0  0  0  0  0  0  0  0  0  0  0  0
    3.0776    0.5485   -1.0458 C   0  0  0  0  0  0  0  0  0  0  0  0
    2.7726    0.0419   -2.3205 C   0  0  0  0  0  0  0  0  0  0  0  0
    3.6461    0.2421   -3.3771 C   0  0  0  0  0  0  0  0  0  0  0  0
    4.7993    0.9497   -3.1187 C   0  0  0  0  0  0  0  0  0  0  0  0
    5.1099    1.4706   -1.9098 N   0  0  0  0  0  0  0  0  0  0  0  0
    4.2521    1.3033   -0.8726 C   0  0  0  0  0  0  0  0  0  0  0  0
    4.6069    1.8315    0.3851 N   0  0  0  0  0  0  0  0  0  0  0  0
    5.5904    2.9247    0.3450 C   0  0  0  0  0  0  0  0  0  0  0  0
    4.8631    4.2499    0.3826 C   0  0  0  0  0  0  0  0  0  0  0  0
    4.5940    4.8791    1.6024 C   0  0  0  0  0  0  0  0  0  0  0  0
    3.8567    6.0526    1.5967 C   0  0  0  0  0  0  0  0  0  0  0  0
    3.3738    6.6297    0.4766 N   0  0  0  0  0  0  0  0  0  0  0  0
    3.6407    6.0059   -0.6908 C   0  0  0  0  0  0  0  0  0  0  0  0
    4.3704    4.8324   -0.7893 C   0  0  0  0  0  0  0  0  0  0  0  0
    3.5478    0.1606    1.4254 H   0  0  0  0  0  0  0  0  0  0  0  0
   -0.1831   -0.3585    1.4789 H   0  0  0  0  0  0  0  0  0  0  0  0
   -1.3765   -0.9951    3.4927 H   0  0  0  0  0  0  0  0  0  0  0  0
   -0.2033   -1.2648    5.6258 H   0  0  0  0  0  0  0  0  0  0  0  0
    1.2320   -2.7238    6.7121 H   0  0  0  0  0  0  0  0  0  0  0  0
    2.4560   -3.2062    8.7735 H   0  0  0  0  0  0  0  0  0  0  0  0
    4.4740   -1.8925    9.3731 H   0  0  0  0  0  0  0  0  0  0  0  0
    5.2196   -0.0409    7.9002 H   0  0  0  0  0  0  0  0  0  0  0  0
    3.9726    0.5063    5.8584 H   0  0  0  0  0  0  0  0  0  0  0  0
    3.5207   -0.2781    3.6827 H   0  0  0  0  0  0  0  0  0  0  0  0
    1.8471   -0.5084   -2.4841 H   0  0  0  0  0  0  0  0  0  0  0  0
    3.4297   -0.1456   -4.3654 H   0  0  0  0  0  0  0  0  0  0  0  0
    5.5307    1.1286   -3.9022 H   0  0  0  0  0  0  0  0  0  0  0  0
    3.7606    2.1707    0.8460 H   0  0  0  0  0  0  0  0  0  0  0  0
    6.2912    2.8919   -0.4983 H   0  0  0  0  0  0  0  0  0  0  0  0
    6.2214    2.8426    1.2366 H   0  0  0  0  0  0  0  0  0  0  0  0
    4.9412    4.4634    2.5426 H   0  0  0  0  0  0  0  0  0  0  0  0
    3.6221    6.5707    2.5222 H   0  0  0  0  0  0  0  0  0  0  0  0
    3.2288    6.4862   -1.5749 H   0  0  0  0  0  0  0  0  0  0  0  0
    4.5354    4.3725   -1.7590 H   0  0  0  0  0  0  0  0  0  0  0  0
  1  2  2  0  0  0  0
  2  3  1  0  0  0  0
  2 16  1  0  0  0  0
  3  4  1  0  0  0  0
  3 30  1  0  0  0  0
  4  5  1  0  0  0  0
  4 15  2  0  0  0  0
  5  6  2  0  0  0  0
  5 31  1  0  0  0  0
  6  7  1  0  0  0  0
  6 32  1  0  0  0  0
  7  8  2  0  0  0  0
  7 33  1  0  0  0  0
  8  9  1  0  0  0  0
  8 15  1  0  0  0  0
  9 10  1  0  0  0  0
  9 14  2  0  0  0  0
 10 11  2  0  0  0  0
 10 34  1  0  0  0  0
 11 12  1  0  0  0  0
 11 35  1  0  0  0  0
 12 13  2  0  0  0  0
 12 36  1  0  0  0  0
 13 14  1  0  0  0  0
 13 37  1  0  0  0  0
 14 38  1  0  0  0  0
 15 39  1  0  0  0  0
 16 17  1  0  0  0  0
 16 21  2  0  0  0  0
 17 18  2  0  0  0  0
 17 40  1  0  0  0  0
 18 19  1  0  0  0  0
 18 41  1  0  0  0  0
 19 20  2  0  0  0  0
 19 42  1  0  0  0  0
 20 21  1  0  0  0  0
 21 22  1  0  0  0  0
 22 23  1  0  0  0  0
 22 43  1  0  0  0  0
 23 24  1  0  0  0  0
 23 44  1  0  0  0  0
 23 45  1  0  0  0  0
 24 25  1  0  0  0  0
 24 29  2  0  0  0  0
 25 26  2  0  0  0  0
 25 46  1  0  0  0  0
 26 27  1  0  0  0  0
 26 47  1  0  0  0  0
 27 28  2  0  0  0  0
 28 29  1  0  0  0  0
 28 48  1  0  0  0  0
 29 49  1  0  0  0  0
M  END
$$$$
