CHEMBL3930655
 OpenBabel04072215373D

 52 55  0  0  0  0  0  0  0  0999 V2000
    1.1425    0.8976    0.2929 O   0  0  0  0  0  0  0  0  0  0  0  0
    2.2411    0.3795    0.1377 C   0  0  0  0  0  0  0  0  0  0  0  0
    2.8160    0.1005   -1.0907 N   0  0  0  0  0  0  0  0  0  0  0  0
    2.2054    0.3082   -2.3509 C   0  0  0  0  0  0  0  0  0  0  0  0
    1.0522    1.0787   -2.5377 C   0  0  0  0  0  0  0  0  0  0  0  0
    0.4319    1.1566   -3.7906 C   0  0  0  0  0  0  0  0  0  0  0  0
    0.9650    0.4747   -4.8816 C   0  0  0  0  0  0  0  0  0  0  0  0
    0.2786    0.6028   -6.0666 O   0  0  0  0  0  0  0  0  0  0  0  0
    0.1321   -0.4777   -6.9099 C   0  0  0  0  0  0  0  0  0  0  0  0
    0.2023   -1.8095   -6.5185 C   0  0  0  0  0  0  0  0  0  0  0  0
    0.0821   -2.7717   -7.4977 C   0  0  0  0  0  0  0  0  0  0  0  0
   -0.1600   -2.4907   -8.7903 N   0  0  0  0  0  0  0  0  0  0  0  0
   -0.2968   -1.2071   -9.1577 C   0  0  0  0  0  0  0  0  0  0  0  0
   -0.5947   -0.8924  -10.4942 N   0  0  0  0  0  0  0  0  0  0  0  0
   -0.7430   -1.8359  -11.4904 C   0  0  0  0  0  0  0  0  0  0  0  0
   -0.6361   -3.0502  -11.3929 O   0  0  0  0  0  0  0  0  0  0  0  0
   -1.0752   -1.2536  -12.8334 C   0  0  0  0  0  0  0  0  0  0  0  0
   -1.9819   -2.0281  -13.7661 C   0  0  0  0  0  0  0  0  0  0  0  0
   -0.5186   -1.9116  -14.0780 C   0  0  0  0  0  0  0  0  0  0  0  0
   -0.1577   -0.1695   -8.2431 C   0  0  0  0  0  0  0  0  0  0  0  0
    2.1717   -0.2071   -4.7170 C   0  0  0  0  0  0  0  0  0  0  0  0
    2.7727   -0.8046   -5.7561 F   0  0  0  0  0  0  0  0  0  0  0  0
    2.7795   -0.3107   -3.4634 C   0  0  0  0  0  0  0  0  0  0  0  0
    3.0433   -0.0412    1.1848 N   0  0  0  0  0  0  0  0  0  0  0  0
    2.6193   -0.1548    2.5304 C   0  0  0  0  0  0  0  0  0  0  0  0
    1.2706   -0.2336    2.8950 C   0  0  0  0  0  0  0  0  0  0  0  0
    0.8874   -0.3763    4.2408 C   0  0  0  0  0  0  0  0  0  0  0  0
   -0.5764   -0.4687    4.6097 C   0  0  0  0  0  0  0  0  0  0  0  0
   -1.4217   -0.3752    3.5468 F   0  0  0  0  0  0  0  0  0  0  0  0
   -0.8758   -1.6515    5.2162 F   0  0  0  0  0  0  0  0  0  0  0  0
   -0.9616    0.5055    5.4798 F   0  0  0  0  0  0  0  0  0  0  0  0
    1.8793   -0.4367    5.2293 C   0  0  0  0  0  0  0  0  0  0  0  0
    3.2285   -0.3719    4.8761 C   0  0  0  0  0  0  0  0  0  0  0  0
    3.5864   -0.2405    3.5353 C   0  0  0  0  0  0  0  0  0  0  0  0
    4.8878   -0.1864    3.2107 F   0  0  0  0  0  0  0  0  0  0  0  0
    3.6286   -0.4981   -1.0722 H   0  0  0  0  0  0  0  0  0  0  0  0
    0.5980    1.6359   -1.7234 H   0  0  0  0  0  0  0  0  0  0  0  0
   -0.4755    1.7460   -3.9003 H   0  0  0  0  0  0  0  0  0  0  0  0
    0.3708   -2.1158   -5.4947 H   0  0  0  0  0  0  0  0  0  0  0  0
    0.1814   -3.8288   -7.2710 H   0  0  0  0  0  0  0  0  0  0  0  0
   -0.7037    0.0809  -10.7274 H   0  0  0  0  0  0  0  0  0  0  0  0
   -1.1699   -0.1735  -12.8707 H   0  0  0  0  0  0  0  0  0  0  0  0
   -2.6798   -1.4774  -14.3836 H   0  0  0  0  0  0  0  0  0  0  0  0
   -2.3505   -2.9952  -13.4353 H   0  0  0  0  0  0  0  0  0  0  0  0
   -0.2236   -1.2818  -14.9076 H   0  0  0  0  0  0  0  0  0  0  0  0
    0.0942   -2.8003  -13.9563 H   0  0  0  0  0  0  0  0  0  0  0  0
   -0.2660    0.8671   -8.5411 H   0  0  0  0  0  0  0  0  0  0  0  0
    3.6875   -0.8995   -3.3826 H   0  0  0  0  0  0  0  0  0  0  0  0
    4.0440   -0.0534    1.0347 H   0  0  0  0  0  0  0  0  0  0  0  0
    0.4876   -0.2055    2.1415 H   0  0  0  0  0  0  0  0  0  0  0  0
    1.6009   -0.5464    6.2767 H   0  0  0  0  0  0  0  0  0  0  0  0
    4.0017   -0.4243    5.6367 H   0  0  0  0  0  0  0  0  0  0  0  0
  1  2  2  0  0  0  0
  2  3  1  0  0  0  0
  2 24  1  0  0  0  0
  3  4  1  0  0  0  0
  3 36  1  0  0  0  0
  4  5  1  0  0  0  0
  4 23  2  0  0  0  0
  5  6  2  0  0  0  0
  5 37  1  0  0  0  0
  6  7  1  0  0  0  0
  6 38  1  0  0  0  0
  7  8  1  0  0  0  0
  7 21  2  0  0  0  0
  8  9  1  0  0  0  0
  9 10  1  0  0  0  0
  9 20  2  0  0  0  0
 10 11  2  0  0  0  0
 10 39  1  0  0  0  0
 11 12  1  0  0  0  0
 11 40  1  0  0  0  0
 12 13  2  0  0  0  0
 13 14  1  0  0  0  0
 13 20  1  0  0  0  0
 14 15  1  0  0  0  0
 14 41  1  0  0  0  0
 15 16  2  0  0  0  0
 15 17  1  0  0  0  0
 17 18  1  0  0  0  0
 17 19  1  0  0  0  0
 17 42  1  0  0  0  0
 18 19  1  0  0  0  0
 18 43  1  0  0  0  0
 18 44  1  0  0  0  0
 19 45  1  0  0  0  0
 19 46  1  0  0  0  0
 20 47  1  0  0  0  0
 21 22  1  0  0  0  0
 21 23  1  0  0  0  0
 23 48  1  0  0  0  0
 24 25  1  0  0  0  0
 24 49  1  0  0  0  0
 25 26  1  0  0  0  0
 25 34  2  0  0  0  0
 26 27  2  0  0  0  0
 26 50  1  0  0  0  0
 27 28  1  0  0  0  0
 27 32  1  0  0  0  0
 28 29  1  0  0  0  0
 28 30  1  0  0  0  0
 28 31  1  0  0  0  0
 32 33  2  0  0  0  0
 32 51  1  0  0  0  0
 33 34  1  0  0  0  0
 33 52  1  0  0  0  0
 34 35  1  0  0  0  0
M  END
$$$$
