CHEMBL4062803
 OpenBabel04072215373D

 40 44  0  0  0  0  0  0  0  0999 V2000
    4.8010   -6.4913   -2.9708 C   0  0  0  0  0  0  0  0  0  0  0  0
    4.1414   -5.6738   -1.9275 C   0  0  0  0  0  0  0  0  0  0  0  0
    3.2843   -6.2260   -1.0604 N   0  0  0  0  0  0  0  0  0  0  0  0
    2.9143   -5.1928   -0.2801 N   0  0  0  0  0  0  0  0  0  0  0  0
    3.5078   -4.0029   -0.5966 C   0  0  0  0  0  0  0  0  0  0  0  0
    3.4208   -2.7256   -0.0216 C   0  0  0  0  0  0  0  0  0  0  0  0
    4.2118   -1.6952   -0.5651 C   0  0  0  0  0  0  0  0  0  0  0  0
    4.1941   -0.4334    0.0601 N   0  0  0  0  0  0  0  0  0  0  0  0
    5.0969    0.6343   -0.0162 C   0  0  0  0  0  0  0  0  0  0  0  0
    5.0479    1.5094    1.0186 N   0  0  0  0  0  0  0  0  0  0  0  0
    5.9008    2.5721    1.0612 C   0  0  0  0  0  0  0  0  0  0  0  0
    5.8883    3.5156    2.0981 N   0  0  0  0  0  0  0  0  0  0  0  0
    5.3645    3.1908    3.4155 C   0  0  0  0  0  0  0  0  0  0  0  0
    5.9134    3.9158    4.6175 C   0  0  0  0  0  0  0  0  0  0  0  0
    6.1685    2.4485    4.4462 C   0  0  0  0  0  0  0  0  0  0  0  0
    6.7885    2.6814    0.0006 C   0  0  0  0  0  0  0  0  0  0  0  0
    7.7552    3.6203   -0.2138 O   0  0  0  0  0  0  0  0  0  0  0  0
    8.3680    3.2776   -1.3834 C   0  0  0  0  0  0  0  0  0  0  0  0
    7.8069    2.1379   -1.9154 C   0  0  0  0  0  0  0  0  0  0  0  0
    6.7877    1.7561   -1.0181 C   0  0  0  0  0  0  0  0  0  0  0  0
    5.9406    0.7189   -1.0530 N   0  0  0  0  0  0  0  0  0  0  0  0
    4.9764   -1.9731   -1.7086 C   0  0  0  0  0  0  0  0  0  0  0  0
    5.0505   -3.2525   -2.2756 C   0  0  0  0  0  0  0  0  0  0  0  0
    4.3116   -4.2861   -1.6917 C   0  0  0  0  0  0  0  0  0  0  0  0
    4.5085   -7.5437   -2.9113 H   0  0  0  0  0  0  0  0  0  0  0  0
    5.8910   -6.4369   -2.8691 H   0  0  0  0  0  0  0  0  0  0  0  0
    4.5345   -6.1215   -3.9683 H   0  0  0  0  0  0  0  0  0  0  0  0
    2.2573   -5.3747    0.4679 H   0  0  0  0  0  0  0  0  0  0  0  0
    2.7861   -2.5510    0.8412 H   0  0  0  0  0  0  0  0  0  0  0  0
    3.6907   -0.3663    0.9333 H   0  0  0  0  0  0  0  0  0  0  0  0
    6.6323    4.2005    2.0037 H   0  0  0  0  0  0  0  0  0  0  0  0
    4.2943    2.9983    3.4022 H   0  0  0  0  0  0  0  0  0  0  0  0
    5.2134    4.2313    5.3814 H   0  0  0  0  0  0  0  0  0  0  0  0
    6.7562    4.5850    4.4862 H   0  0  0  0  0  0  0  0  0  0  0  0
    5.6423    1.7687    5.1071 H   0  0  0  0  0  0  0  0  0  0  0  0
    7.1714    2.1287    4.1915 H   0  0  0  0  0  0  0  0  0  0  0  0
    9.1731    3.9286   -1.6961 H   0  0  0  0  0  0  0  0  0  0  0  0
    8.0939    1.6373   -2.8283 H   0  0  0  0  0  0  0  0  0  0  0  0
    5.5570   -1.1976   -2.1978 H   0  0  0  0  0  0  0  0  0  0  0  0
    5.6823   -3.4285   -3.1405 H   0  0  0  0  0  0  0  0  0  0  0  0
  1  2  1  0  0  0  0
  1 25  1  0  0  0  0
  1 26  1  0  0  0  0
  1 27  1  0  0  0  0
  2  3  2  0  0  0  0
  2 24  1  0  0  0  0
  3  4  1  0  0  0  0
  4  5  1  0  0  0  0
  4 28  1  0  0  0  0
  5  6  1  0  0  0  0
  5 24  2  0  0  0  0
  6  7  2  0  0  0  0
  6 29  1  0  0  0  0
  7  8  1  0  0  0  0
  7 22  1  0  0  0  0
  8  9  1  0  0  0  0
  8 30  1  0  0  0  0
  9 10  1  0  0  0  0
  9 21  2  0  0  0  0
 10 11  2  0  0  0  0
 11 12  1  0  0  0  0
 11 16  1  0  0  0  0
 12 13  1  0  0  0  0
 12 31  1  0  0  0  0
 13 14  1  0  0  0  0
 13 15  1  0  0  0  0
 13 32  1  0  0  0  0
 14 15  1  0  0  0  0
 14 33  1  0  0  0  0
 14 34  1  0  0  0  0
 15 35  1  0  0  0  0
 15 36  1  0  0  0  0
 16 17  1  0  0  0  0
 16 20  2  0  0  0  0
 17 18  1  0  0  0  0
 18 19  2  0  0  0  0
 18 37  1  0  0  0  0
 19 20  1  0  0  0  0
 19 38  1  0  0  0  0
 20 21  1  0  0  0  0
 22 23  2  0  0  0  0
 22 39  1  0  0  0  0
 23 24  1  0  0  0  0
 23 40  1  0  0  0  0
M  END
$$$$
