CHEMBL204334
 OpenBabel04072215363D

 34 37  0  0  0  0  0  0  0  0999 V2000
    2.3493    1.5953   -0.0567 C   0  0  0  0  0  0  0  0  0  0  0  0
    1.5307    0.4037   -0.0366 N   0  0  0  0  0  0  0  0  0  0  0  0
    2.0225   -0.8726   -0.0733 C   0  0  0  0  0  0  0  0  0  0  0  0
    0.9717   -1.7525    0.0518 C   0  0  0  0  0  0  0  0  0  0  0  0
    1.0690   -3.1838    0.0877 C   0  0  0  0  0  0  0  0  0  0  0  0
    2.0847   -3.9538    0.5104 C   0  0  0  0  0  0  0  0  0  0  0  0
    3.3785   -3.5510    1.1209 C   0  0  0  0  0  0  0  0  0  0  0  0
    3.7303   -2.4941    1.6038 O   0  0  0  0  0  0  0  0  0  0  0  0
    4.1242   -4.7136    1.0848 N   0  0  0  0  0  0  0  0  0  0  0  0
    3.4294   -5.8342    0.7206 N   0  0  0  0  0  0  0  0  0  0  0  0
    2.2116   -5.4413    0.4069 C   0  0  0  0  0  0  0  0  0  0  0  0
    1.1707   -6.3804    0.0542 C   0  0  0  0  0  0  0  0  0  0  0  0
   -0.0787   -6.0528   -0.2086 N   0  0  0  0  0  0  0  0  0  0  0  0
   -0.8197   -7.1962   -0.4521 C   0  0  0  0  0  0  0  0  0  0  0  0
   -0.1299   -8.3862   -0.3715 C   0  0  0  0  0  0  0  0  0  0  0  0
    1.5052   -8.0729    0.0161 S   0  0  0  0  0  0  0  0  0  0  0  0
   -0.2297   -0.9629    0.0390 C   0  0  0  0  0  0  0  0  0  0  0  0
   -1.6123   -1.2555    0.0578 C   0  0  0  0  0  0  0  0  0  0  0  0
   -2.5484   -0.2126    0.0401 C   0  0  0  0  0  0  0  0  0  0  0  0
   -2.1331    1.1141    0.0185 C   0  0  0  0  0  0  0  0  0  0  0  0
   -0.7746    1.4368    0.0024 C   0  0  0  0  0  0  0  0  0  0  0  0
    0.1555    0.3839    0.0012 C   0  0  0  0  0  0  0  0  0  0  0  0
    3.4062    1.3155   -0.0408 H   0  0  0  0  0  0  0  0  0  0  0  0
    2.1153    2.1912    0.8292 H   0  0  0  0  0  0  0  0  0  0  0  0
    2.1267    2.1525   -0.9702 H   0  0  0  0  0  0  0  0  0  0  0  0
    3.0879   -1.0354   -0.1593 H   0  0  0  0  0  0  0  0  0  0  0  0
    0.1936   -3.6855   -0.3217 H   0  0  0  0  0  0  0  0  0  0  0  0
    5.0580   -4.7845    1.4717 H   0  0  0  0  0  0  0  0  0  0  0  0
   -1.8748   -7.1055   -0.6812 H   0  0  0  0  0  0  0  0  0  0  0  0
   -0.4982   -9.3898   -0.5152 H   0  0  0  0  0  0  0  0  0  0  0  0
   -1.9555   -2.2857    0.0791 H   0  0  0  0  0  0  0  0  0  0  0  0
   -3.6104   -0.4431    0.0461 H   0  0  0  0  0  0  0  0  0  0  0  0
   -2.8718    1.9130    0.0114 H   0  0  0  0  0  0  0  0  0  0  0  0
   -0.4551    2.4736   -0.0169 H   0  0  0  0  0  0  0  0  0  0  0  0
  1  2  1  0  0  0  0
  1 23  1  0  0  0  0
  1 24  1  0  0  0  0
  1 25  1  0  0  0  0
  2  3  1  0  0  0  0
  2 22  1  0  0  0  0
  3  4  2  0  0  0  0
  3 26  1  0  0  0  0
  4  5  1  0  0  0  0
  4 17  1  0  0  0  0
  5  6  2  0  0  0  0
  5 27  1  0  0  0  0
  6  7  1  0  0  0  0
  6 11  1  0  0  0  0
  7  8  2  0  0  0  0
  7  9  1  0  0  0  0
  9 10  1  0  0  0  0
  9 28  1  0  0  0  0
 10 11  2  0  0  0  0
 11 12  1  0  0  0  0
 12 13  2  0  0  0  0
 12 16  1  0  0  0  0
 13 14  1  0  0  0  0
 14 15  2  0  0  0  0
 14 29  1  0  0  0  0
 15 16  1  0  0  0  0
 15 30  1  0  0  0  0
 17 18  1  0  0  0  0
 17 22  2  0  0  0  0
 18 19  2  0  0  0  0
 18 31  1  0  0  0  0
 19 20  1  0  0  0  0
 19 32  1  0  0  0  0
 20 21  2  0  0  0  0
 20 33  1  0  0  0  0
 21 22  1  0  0  0  0
 21 34  1  0  0  0  0
M  END
$$$$
