CHEMBL3656098
 OpenBabel04072215373D

 81 84  0  0  0  0  0  0  0  0999 V2000
   -0.0187    3.2334   11.3444 C   0  0  0  0  0  0  0  0  0  0  0  0
   -1.1389    2.6664   10.5179 C   0  0  0  0  0  0  0  0  0  0  0  0
   -1.4942    1.3282   10.7107 C   0  0  0  0  0  0  0  0  0  0  0  0
   -2.5381    0.7809    9.9770 C   0  0  0  0  0  0  0  0  0  0  0  0
   -3.2235    1.5564    9.0427 C   0  0  0  0  0  0  0  0  0  0  0  0
   -4.2858    0.9649    8.4825 F   0  0  0  0  0  0  0  0  0  0  0  0
   -2.8802    2.8973    8.7877 C   0  0  0  0  0  0  0  0  0  0  0  0
   -3.5286    3.7372    7.8149 N   0  0  0  0  0  0  0  0  0  0  0  0
   -4.2807    3.2648    6.7535 C   0  0  0  0  0  0  0  0  0  0  0  0
   -4.4538    2.0891    6.4736 O   0  0  0  0  0  0  0  0  0  0  0  0
   -4.8023    4.2835    5.9257 N   0  0  0  0  0  0  0  0  0  0  0  0
   -5.6079    3.8803    4.8156 C   0  0  0  0  0  0  0  0  0  0  0  0
   -6.7477    3.1039    5.0396 C   0  0  0  0  0  0  0  0  0  0  0  0
   -7.4917    2.5978    3.9708 C   0  0  0  0  0  0  0  0  0  0  0  0
   -7.1482    2.9129    2.6552 C   0  0  0  0  0  0  0  0  0  0  0  0
   -7.8472    2.4684    1.5480 O   0  0  0  0  0  0  0  0  0  0  0  0
   -9.2143    2.2905    1.6374 C   0  0  0  0  0  0  0  0  0  0  0  0
  -10.0388    3.0421    2.4694 C   0  0  0  0  0  0  0  0  0  0  0  0
  -11.3799    2.7186    2.5364 C   0  0  0  0  0  0  0  0  0  0  0  0
  -11.9600    1.7400    1.8064 N   0  0  0  0  0  0  0  0  0  0  0  0
  -11.1466    1.0539    0.9629 C   0  0  0  0  0  0  0  0  0  0  0  0
  -11.7950   -0.0220    0.2183 C   0  0  0  0  0  0  0  0  0  0  0  0
  -11.2826   -0.9240   -0.7003 C   0  0  0  0  0  0  0  0  0  0  0  0
  -12.3335   -1.7596   -1.1780 C   0  0  0  0  0  0  0  0  0  0  0  0
  -12.2360   -2.8305   -2.1839 C   0  0  0  0  0  0  0  0  0  0  0  0
  -11.1801   -3.1056   -2.7518 O   0  0  0  0  0  0  0  0  0  0  0  0
  -13.4181   -3.4791   -2.4255 N   0  0  0  0  0  0  0  0  0  0  0  0
  -13.5320   -4.5258   -3.4228 C   0  0  0  0  0  0  0  0  0  0  0  0
  -14.9523   -5.0893   -3.5167 C   0  0  0  0  0  0  0  0  0  0  0  0
  -15.8655   -4.0537   -3.9022 O   0  0  0  0  0  0  0  0  0  0  0  0
  -17.1992   -4.5542   -4.0217 C   0  0  0  0  0  0  0  0  0  0  0  0
  -18.1418   -3.4298   -4.4409 C   0  0  0  0  0  0  0  0  0  0  0  0
  -19.4712   -3.9432   -4.5463 O   0  0  0  0  0  0  0  0  0  0  0  0
  -20.3940   -2.9260   -4.9368 C   0  0  0  0  0  0  0  0  0  0  0  0
  -21.7936   -3.5235   -5.0354 C   0  0  0  0  0  0  0  0  0  0  0  0
  -22.7247   -2.5080   -5.4199 O   0  0  0  0  0  0  0  0  0  0  0  0
  -24.0498   -3.0434   -5.5293 C   0  0  0  0  0  0  0  0  0  0  0  0
  -25.0092   -1.9293   -5.9393 C   0  0  0  0  0  0  0  0  0  0  0  0
  -24.6376   -1.3789   -7.2006 O   0  0  0  0  0  0  0  0  0  0  0  0
  -13.4669   -1.3537   -0.4880 C   0  0  0  0  0  0  0  0  0  0  0  0
  -13.1256   -0.3362    0.3656 N   0  0  0  0  0  0  0  0  0  0  0  0
   -9.7856    1.3116    0.8335 C   0  0  0  0  0  0  0  0  0  0  0  0
   -6.0053    3.6842    2.4222 C   0  0  0  0  0  0  0  0  0  0  0  0
   -5.2451    4.1834    3.4996 C   0  0  0  0  0  0  0  0  0  0  0  0
   -1.8346    3.4457    9.5627 C   0  0  0  0  0  0  0  0  0  0  0  0
    0.3850    2.4818   12.0361 H   0  0  0  0  0  0  0  0  0  0  0  0
   -0.3747    4.0711   11.9526 H   0  0  0  0  0  0  0  0  0  0  0  0
    0.8078    3.5623   10.7067 H   0  0  0  0  0  0  0  0  0  0  0  0
   -0.9776    0.7073   11.4353 H   0  0  0  0  0  0  0  0  0  0  0  0
   -2.8455   -0.2480   10.1363 H   0  0  0  0  0  0  0  0  0  0  0  0
   -3.3455    4.7217    7.8647 H   0  0  0  0  0  0  0  0  0  0  0  0
   -4.1773    5.0585    5.7656 H   0  0  0  0  0  0  0  0  0  0  0  0
   -7.0598    2.8624    6.0530 H   0  0  0  0  0  0  0  0  0  0  0  0
   -8.3434    1.9624    4.1963 H   0  0  0  0  0  0  0  0  0  0  0  0
   -9.6440    3.8326    3.0945 H   0  0  0  0  0  0  0  0  0  0  0  0
  -12.0319    3.2450    3.2270 H   0  0  0  0  0  0  0  0  0  0  0  0
  -10.2490   -0.9720   -1.0176 H   0  0  0  0  0  0  0  0  0  0  0  0
  -14.2750   -3.1448   -2.0080 H   0  0  0  0  0  0  0  0  0  0  0  0
  -12.8305   -5.3197   -3.1437 H   0  0  0  0  0  0  0  0  0  0  0  0
  -13.2174   -4.1066   -4.3851 H   0  0  0  0  0  0  0  0  0  0  0  0
  -15.2629   -5.4929   -2.5460 H   0  0  0  0  0  0  0  0  0  0  0  0
  -14.9756   -5.8905   -4.2630 H   0  0  0  0  0  0  0  0  0  0  0  0
  -17.5277   -4.9710   -3.0620 H   0  0  0  0  0  0  0  0  0  0  0  0
  -17.2344   -5.3604   -4.7646 H   0  0  0  0  0  0  0  0  0  0  0  0
  -17.8220   -3.0148   -5.4043 H   0  0  0  0  0  0  0  0  0  0  0  0
  -18.1094   -2.6223   -3.6999 H   0  0  0  0  0  0  0  0  0  0  0  0
  -20.1016   -2.5046   -5.9060 H   0  0  0  0  0  0  0  0  0  0  0  0
  -20.3897   -2.1126   -4.2016 H   0  0  0  0  0  0  0  0  0  0  0  0
  -22.0825   -3.9494   -4.0669 H   0  0  0  0  0  0  0  0  0  0  0  0
  -21.7970   -4.3374   -5.7708 H   0  0  0  0  0  0  0  0  0  0  0  0
  -24.3575   -3.4561   -4.5622 H   0  0  0  0  0  0  0  0  0  0  0  0
  -24.0515   -3.8365   -6.2851 H   0  0  0  0  0  0  0  0  0  0  0  0
  -25.0026   -1.1164   -5.2071 H   0  0  0  0  0  0  0  0  0  0  0  0
  -26.0273   -2.3195   -6.0260 H   0  0  0  0  0  0  0  0  0  0  0  0
  -23.7272   -1.0474   -7.0846 H   0  0  0  0  0  0  0  0  0  0  0  0
  -14.4909   -1.6997   -0.5260 H   0  0  0  0  0  0  0  0  0  0  0  0
  -13.7518    0.1373    1.0047 H   0  0  0  0  0  0  0  0  0  0  0  0
   -9.1746    0.7410    0.1451 H   0  0  0  0  0  0  0  0  0  0  0  0
   -5.6926    3.8814    1.3982 H   0  0  0  0  0  0  0  0  0  0  0  0
   -4.3354    4.7348    3.2818 H   0  0  0  0  0  0  0  0  0  0  0  0
   -1.5287    4.4802    9.4160 H   0  0  0  0  0  0  0  0  0  0  0  0
  1  2  1  0  0  0  0
  1 46  1  0  0  0  0
  1 47  1  0  0  0  0
  1 48  1  0  0  0  0
  2  3  1  0  0  0  0
  2 45  2  0  0  0  0
  3  4  2  0  0  0  0
  3 49  1  0  0  0  0
  4  5  1  0  0  0  0
  4 50  1  0  0  0  0
  5  6  1  0  0  0  0
  5  7  2  0  0  0  0
  7  8  1  0  0  0  0
  7 45  1  0  0  0  0
  8  9  1  0  0  0  0
  8 51  1  0  0  0  0
  9 10  2  0  0  0  0
  9 11  1  0  0  0  0
 11 12  1  0  0  0  0
 11 52  1  0  0  0  0
 12 13  1  0  0  0  0
 12 44  2  0  0  0  0
 13 14  2  0  0  0  0
 13 53  1  0  0  0  0
 14 15  1  0  0  0  0
 14 54  1  0  0  0  0
 15 16  1  0  0  0  0
 15 43  2  0  0  0  0
 16 17  1  0  0  0  0
 17 18  1  0  0  0  0
 17 42  2  0  0  0  0
 18 19  2  0  0  0  0
 18 55  1  0  0  0  0
 19 20  1  0  0  0  0
 19 56  1  0  0  0  0
 20 21  2  0  0  0  0
 21 22  1  0  0  0  0
 21 42  1  0  0  0  0
 22 23  2  0  0  0  0
 22 41  1  0  0  0  0
 23 24  1  0  0  0  0
 23 57  1  0  0  0  0
 24 25  1  0  0  0  0
 24 40  2  0  0  0  0
 25 26  2  0  0  0  0
 25 27  1  0  0  0  0
 27 28  1  0  0  0  0
 27 58  1  0  0  0  0
 28 29  1  0  0  0  0
 28 59  1  0  0  0  0
 28 60  1  0  0  0  0
 29 30  1  0  0  0  0
 29 61  1  0  0  0  0
 29 62  1  0  0  0  0
 30 31  1  0  0  0  0
 31 32  1  0  0  0  0
 31 63  1  0  0  0  0
 31 64  1  0  0  0  0
 32 33  1  0  0  0  0
 32 65  1  0  0  0  0
 32 66  1  0  0  0  0
 33 34  1  0  0  0  0
 34 35  1  0  0  0  0
 34 67  1  0  0  0  0
 34 68  1  0  0  0  0
 35 36  1  0  0  0  0
 35 69  1  0  0  0  0
 35 70  1  0  0  0  0
 36 37  1  0  0  0  0
 37 38  1  0  0  0  0
 37 71  1  0  0  0  0
 37 72  1  0  0  0  0
 38 39  1  0  0  0  0
 38 73  1  0  0  0  0
 38 74  1  0  0  0  0
 39 75  1  0  0  0  0
 40 41  1  0  0  0  0
 40 76  1  0  0  0  0
 41 77  1  0  0  0  0
 42 78  1  0  0  0  0
 43 44  1  0  0  0  0
 43 79  1  0  0  0  0
 44 80  1  0  0  0  0
 45 81  1  0  0  0  0
M  END
$$$$
