CHEMBL3918357
 OpenBabel04072215373D

 53 57  0  0  0  0  0  0  0  0999 V2000
    3.0765   -0.1928   -0.9684 C   0  0  0  0  0  0  0  0  0  0  0  0
    1.9272   -1.1193   -0.8833 C   0  0  0  0  0  0  0  0  0  0  0  0
    0.6140   -0.9207   -1.3516 C   0  0  0  0  0  0  0  0  0  0  0  0
   -0.0531   -2.0738   -1.0090 C   0  0  0  0  0  0  0  0  0  0  0  0
   -1.4233   -2.4660   -1.2240 C   0  0  0  0  0  0  0  0  0  0  0  0
   -2.1938   -1.7334   -1.8370 O   0  0  0  0  0  0  0  0  0  0  0  0
   -1.7704   -3.6833   -0.6541 N   0  0  0  0  0  0  0  0  0  0  0  0
   -3.0398   -4.2961   -0.6961 C   0  0  0  0  0  0  0  0  0  0  0  0
   -4.0750   -3.8547   -1.5249 C   0  0  0  0  0  0  0  0  0  0  0  0
   -5.3452   -4.4231   -1.4567 C   0  0  0  0  0  0  0  0  0  0  0  0
   -5.5926   -5.4576   -0.5645 C   0  0  0  0  0  0  0  0  0  0  0  0
   -4.5441   -5.9884    0.1902 C   0  0  0  0  0  0  0  0  0  0  0  0
   -4.7500   -7.1611    1.0747 C   0  0  0  0  0  0  0  0  0  0  0  0
   -4.0497   -7.2601    2.0862 O   0  0  0  0  0  0  0  0  0  0  0  0
   -5.7405   -8.2374    0.7548 C   0  0  0  0  0  0  0  0  0  0  0  0
   -6.2412   -8.4769   -0.5422 C   0  0  0  0  0  0  0  0  0  0  0  0
   -7.2380   -9.4477   -0.7868 C   0  0  0  0  0  0  0  0  0  0  0  0
   -7.5754  -10.3150    0.2664 C   0  0  0  0  0  0  0  0  0  0  0  0
   -8.4076  -11.4570    0.5278 C   0  0  0  0  0  0  0  0  0  0  0  0
   -9.7646  -11.4754    1.0595 C   0  0  0  0  0  0  0  0  0  0  0  0
  -10.3646  -10.4258    1.6562 C   0  0  0  0  0  0  0  0  0  0  0  0
  -11.1720  -10.5935    2.8882 C   0  0  0  0  0  0  0  0  0  0  0  0
  -11.7496   -9.4858    3.5018 C   0  0  0  0  0  0  0  0  0  0  0  0
  -12.2955   -9.6234    4.7799 C   0  0  0  0  0  0  0  0  0  0  0  0
  -12.2436  -10.8557    5.4187 C   0  0  0  0  0  0  0  0  0  0  0  0
  -11.6578  -11.9088    4.7414 C   0  0  0  0  0  0  0  0  0  0  0  0
  -11.1301  -11.8047    3.4998 N   0  0  0  0  0  0  0  0  0  0  0  0
   -7.6076  -12.3211    1.1822 N   0  0  0  0  0  0  0  0  0  0  0  0
   -6.9455  -11.4757    1.9910 N   0  0  0  0  0  0  0  0  0  0  0  0
   -6.8294  -10.2199    1.4369 C   0  0  0  0  0  0  0  0  0  0  0  0
   -6.0651   -9.1134    1.7959 C   0  0  0  0  0  0  0  0  0  0  0  0
   -3.2776   -5.3865    0.1524 C   0  0  0  0  0  0  0  0  0  0  0  0
    0.8127   -2.9144   -0.3787 O   0  0  0  0  0  0  0  0  0  0  0  0
    2.0595   -2.3173   -0.2992 N   0  0  0  0  0  0  0  0  0  0  0  0
    2.7916    0.7424   -1.4617 H   0  0  0  0  0  0  0  0  0  0  0  0
    3.8933   -0.6420   -1.5418 H   0  0  0  0  0  0  0  0  0  0  0  0
    3.4448    0.0529    0.0324 H   0  0  0  0  0  0  0  0  0  0  0  0
    0.1953   -0.0650   -1.8616 H   0  0  0  0  0  0  0  0  0  0  0  0
   -1.0649   -4.1231   -0.0763 H   0  0  0  0  0  0  0  0  0  0  0  0
   -3.9266   -3.0606   -2.2503 H   0  0  0  0  0  0  0  0  0  0  0  0
   -6.1387   -4.0519   -2.0995 H   0  0  0  0  0  0  0  0  0  0  0  0
   -6.6061   -5.8437   -0.4881 H   0  0  0  0  0  0  0  0  0  0  0  0
   -5.8405   -7.9353   -1.3971 H   0  0  0  0  0  0  0  0  0  0  0  0
   -7.6087   -9.6103   -1.7963 H   0  0  0  0  0  0  0  0  0  0  0  0
  -10.0835  -12.4772    1.3531 H   0  0  0  0  0  0  0  0  0  0  0  0
  -10.0477   -9.4099    1.4484 H   0  0  0  0  0  0  0  0  0  0  0  0
  -11.7424   -8.5139    3.0214 H   0  0  0  0  0  0  0  0  0  0  0  0
  -12.7336   -8.7664    5.2841 H   0  0  0  0  0  0  0  0  0  0  0  0
  -12.6390  -10.9891    6.4200 H   0  0  0  0  0  0  0  0  0  0  0  0
  -11.5744  -12.8908    5.2010 H   0  0  0  0  0  0  0  0  0  0  0  0
   -6.4748  -11.8412    2.8052 H   0  0  0  0  0  0  0  0  0  0  0  0
   -5.6222   -9.0195    2.7820 H   0  0  0  0  0  0  0  0  0  0  0  0
   -2.4836   -5.7751    0.7857 H   0  0  0  0  0  0  0  0  0  0  0  0
  1  2  1  0  0  0  0
  1 35  1  0  0  0  0
  1 36  1  0  0  0  0
  1 37  1  0  0  0  0
  2  3  1  0  0  0  0
  2 34  2  0  0  0  0
  3  4  2  0  0  0  0
  3 38  1  0  0  0  0
  4  5  1  0  0  0  0
  4 33  1  0  0  0  0
  5  6  2  0  0  0  0
  5  7  1  0  0  0  0
  7  8  1  0  0  0  0
  7 39  1  0  0  0  0
  8  9  1  0  0  0  0
  8 32  2  0  0  0  0
  9 10  2  0  0  0  0
  9 40  1  0  0  0  0
 10 11  1  0  0  0  0
 10 41  1  0  0  0  0
 11 12  2  0  0  0  0
 11 42  1  0  0  0  0
 12 13  1  0  0  0  0
 12 32  1  0  0  0  0
 13 14  2  0  0  0  0
 13 15  1  0  0  0  0
 15 16  1  0  0  0  0
 15 31  2  0  0  0  0
 16 17  2  0  0  0  0
 16 43  1  0  0  0  0
 17 18  1  0  0  0  0
 17 44  1  0  0  0  0
 18 19  1  0  0  0  0
 18 30  2  0  0  0  0
 19 20  1  0  0  0  0
 19 28  2  0  0  0  0
 20 21  2  0  0  0  0
 20 45  1  0  0  0  0
 21 22  1  0  0  0  0
 21 46  1  0  0  0  0
 22 23  1  0  0  0  0
 22 27  2  0  0  0  0
 23 24  2  0  0  0  0
 23 47  1  0  0  0  0
 24 25  1  0  0  0  0
 24 48  1  0  0  0  0
 25 26  2  0  0  0  0
 25 49  1  0  0  0  0
 26 27  1  0  0  0  0
 26 50  1  0  0  0  0
 28 29  1  0  0  0  0
 29 30  1  0  0  0  0
 29 51  1  0  0  0  0
 30 31  1  0  0  0  0
 31 52  1  0  0  0  0
 32 53  1  0  0  0  0
 33 34  1  0  0  0  0
M  END
$$$$
