CHEMBL462169
 OpenBabel04072215383D

 54 58  0  0  0  0  0  0  0  0999 V2000
    4.9821   10.2804   -8.8631 C   0  0  0  0  0  0  0  0  0  0  0  0
    4.0211   10.2087   -7.8083 O   0  0  0  0  0  0  0  0  0  0  0  0
    4.0059    8.9980   -7.1661 C   0  0  0  0  0  0  0  0  0  0  0  0
    4.1437    7.7948   -7.8657 C   0  0  0  0  0  0  0  0  0  0  0  0
    4.2346    6.5689   -7.2239 C   0  0  0  0  0  0  0  0  0  0  0  0
    4.3938    5.4751   -7.9860 N   0  0  0  0  0  0  0  0  0  0  0  0
    4.5205    4.2812   -7.3737 C   0  0  0  0  0  0  0  0  0  0  0  0
    4.4788    4.1179   -6.0074 C   0  0  0  0  0  0  0  0  0  0  0  0
    4.2865    5.2530   -5.2188 C   0  0  0  0  0  0  0  0  0  0  0  0
    4.3273    5.0205   -3.8585 O   0  0  0  0  0  0  0  0  0  0  0  0
    3.2932    5.4327   -3.0469 C   0  0  0  0  0  0  0  0  0  0  0  0
    3.5748    5.4430   -1.6816 C   0  0  0  0  0  0  0  0  0  0  0  0
    2.6174    5.8856   -0.7624 C   0  0  0  0  0  0  0  0  0  0  0  0
    1.3545    6.3570   -1.1860 C   0  0  0  0  0  0  0  0  0  0  0  0
    0.3443    6.8266   -0.2995 C   0  0  0  0  0  0  0  0  0  0  0  0
    0.5601    6.8552    1.1136 N   0  0  0  0  0  0  0  0  0  0  0  0
   -0.4699    6.8223    2.0871 C   0  0  0  0  0  0  0  0  0  0  0  0
   -1.5469    5.9307    1.9578 C   0  0  0  0  0  0  0  0  0  0  0  0
   -2.6151    5.9563    2.8547 C   0  0  0  0  0  0  0  0  0  0  0  0
   -2.6044    6.8543    3.9173 C   0  0  0  0  0  0  0  0  0  0  0  0
   -1.5134    7.7050    4.0948 C   0  0  0  0  0  0  0  0  0  0  0  0
   -0.4465    7.6834    3.1896 C   0  0  0  0  0  0  0  0  0  0  0  0
   -0.8555    7.3346   -0.8314 C   0  0  0  0  0  0  0  0  0  0  0  0
   -1.0951    7.3324   -2.2009 C   0  0  0  0  0  0  0  0  0  0  0  0
   -0.1336    6.8332   -3.0661 C   0  0  0  0  0  0  0  0  0  0  0  0
    1.0831    6.3389   -2.5796 C   0  0  0  0  0  0  0  0  0  0  0  0
    2.0334    5.8385   -3.4837 C   0  0  0  0  0  0  0  0  0  0  0  0
    4.1825    6.5330   -5.8182 C   0  0  0  0  0  0  0  0  0  0  0  0
    4.0269    7.7525   -5.1160 C   0  0  0  0  0  0  0  0  0  0  0  0
    3.8615    8.9678   -5.7803 C   0  0  0  0  0  0  0  0  0  0  0  0
    3.6263   10.0356   -4.9575 O   0  0  0  0  0  0  0  0  0  0  0  0
    2.7169   11.0117   -5.4609 C   0  0  0  0  0  0  0  0  0  0  0  0
    5.2444   11.3309   -9.0138 H   0  0  0  0  0  0  0  0  0  0  0  0
    4.5470    9.9009   -9.7930 H   0  0  0  0  0  0  0  0  0  0  0  0
    5.9058    9.7400   -8.6211 H   0  0  0  0  0  0  0  0  0  0  0  0
    4.1988    7.7886   -8.9501 H   0  0  0  0  0  0  0  0  0  0  0  0
    4.6683    3.4355   -8.0397 H   0  0  0  0  0  0  0  0  0  0  0  0
    4.5960    3.1357   -5.5636 H   0  0  0  0  0  0  0  0  0  0  0  0
    4.5490    5.1115   -1.3275 H   0  0  0  0  0  0  0  0  0  0  0  0
    2.8678    5.8656    0.2961 H   0  0  0  0  0  0  0  0  0  0  0  0
    1.2667    7.5559    1.3283 H   0  0  0  0  0  0  0  0  0  0  0  0
   -1.5643    5.2208    1.1339 H   0  0  0  0  0  0  0  0  0  0  0  0
   -3.4549    5.2815    2.7135 H   0  0  0  0  0  0  0  0  0  0  0  0
   -3.4431    6.8878    4.6078 H   0  0  0  0  0  0  0  0  0  0  0  0
   -1.5004    8.3962    4.9338 H   0  0  0  0  0  0  0  0  0  0  0  0
    0.3831    8.3680    3.3410 H   0  0  0  0  0  0  0  0  0  0  0  0
   -1.6208    7.7421   -0.1751 H   0  0  0  0  0  0  0  0  0  0  0  0
   -2.0316    7.7267   -2.5868 H   0  0  0  0  0  0  0  0  0  0  0  0
   -0.3362    6.8479   -4.1347 H   0  0  0  0  0  0  0  0  0  0  0  0
    1.7855    5.8089   -4.5413 H   0  0  0  0  0  0  0  0  0  0  0  0
    3.9990    7.7669   -4.0291 H   0  0  0  0  0  0  0  0  0  0  0  0
    2.1738   11.4334   -4.6081 H   0  0  0  0  0  0  0  0  0  0  0  0
    1.9688   10.5973   -6.1468 H   0  0  0  0  0  0  0  0  0  0  0  0
    3.2747   11.8249   -5.9334 H   0  0  0  0  0  0  0  0  0  0  0  0
  1  2  1  0  0  0  0
  1 33  1  0  0  0  0
  1 34  1  0  0  0  0
  1 35  1  0  0  0  0
  2  3  1  0  0  0  0
  3  4  1  0  0  0  0
  3 30  2  0  0  0  0
  4  5  2  0  0  0  0
  4 36  1  0  0  0  0
  5  6  1  0  0  0  0
  5 28  1  0  0  0  0
  6  7  2  0  0  0  0
  7  8  1  0  0  0  0
  7 37  1  0  0  0  0
  8  9  2  0  0  0  0
  8 38  1  0  0  0  0
  9 10  1  0  0  0  0
  9 28  1  0  0  0  0
 10 11  1  0  0  0  0
 11 12  1  0  0  0  0
 11 27  2  0  0  0  0
 12 13  2  0  0  0  0
 12 39  1  0  0  0  0
 13 14  1  0  0  0  0
 13 40  1  0  0  0  0
 14 15  1  0  0  0  0
 14 26  2  0  0  0  0
 15 16  1  0  0  0  0
 15 23  2  0  0  0  0
 16 17  1  0  0  0  0
 16 41  1  0  0  0  0
 17 18  1  0  0  0  0
 17 22  2  0  0  0  0
 18 19  2  0  0  0  0
 18 42  1  0  0  0  0
 19 20  1  0  0  0  0
 19 43  1  0  0  0  0
 20 21  2  0  0  0  0
 20 44  1  0  0  0  0
 21 22  1  0  0  0  0
 21 45  1  0  0  0  0
 22 46  1  0  0  0  0
 23 24  1  0  0  0  0
 23 47  1  0  0  0  0
 24 25  2  0  0  0  0
 24 48  1  0  0  0  0
 25 26  1  0  0  0  0
 25 49  1  0  0  0  0
 26 27  1  0  0  0  0
 27 50  1  0  0  0  0
 28 29  2  0  0  0  0
 29 30  1  0  0  0  0
 29 51  1  0  0  0  0
 30 31  1  0  0  0  0
 31 32  1  0  0  0  0
 32 52  1  0  0  0  0
 32 53  1  0  0  0  0
 32 54  1  0  0  0  0
M  END
$$$$
