CHEMBL3975903
 OpenBabel04072215373D

 65 70  0  0  1  0  0  0  0  0999 V2000
   10.5950   -5.6464    0.0046 C   0  0  0  0  0  0  0  0  0  0  0  0
    9.8166   -5.3300    1.1628 O   0  0  0  0  0  0  0  0  0  0  0  0
    9.4196   -4.0219    1.3149 C   0  0  0  0  0  0  0  0  0  0  0  0
    9.7305   -3.0038    0.4150 C   0  0  0  0  0  0  0  0  0  0  0  0
    9.2397   -1.7184    0.6251 C   0  0  0  0  0  0  0  0  0  0  0  0
    9.4549   -0.6471   -0.2039 O   0  0  0  0  0  0  0  0  0  0  0  0
   10.2961   -0.8626   -1.3332 C   0  0  0  0  0  0  0  0  0  0  0  0
    8.4369   -1.4505    1.7467 C   0  0  0  0  0  0  0  0  0  0  0  0
    8.1029   -2.4397    2.6860 C   0  0  0  0  0  0  0  0  0  0  0  0
    7.1734   -2.2168    3.7354 N   0  0  0  0  0  0  0  0  0  0  0  0
    6.0166   -1.2643    3.4439 C   0  0  0  0  0  0  0  0  0  0  0  0
    5.1811   -1.4286    2.1742 C   0  0  1  0  0  0  0  0  0  0  0  0
    4.1563   -2.4897    1.8249 C   0  0  0  0  0  0  0  0  0  0  0  0
    3.6618   -1.1643    2.3278 C   0  0  2  0  0  0  0  0  0  0  0  0
    2.9778   -0.1097    1.4697 C   0  0  0  0  0  0  0  0  0  0  0  0
    1.7827   -0.3532    0.7840 C   0  0  0  0  0  0  0  0  0  0  0  0
    1.1194    0.6870    0.1131 C   0  0  0  0  0  0  0  0  0  0  0  0
    1.6517    1.9631    0.1505 C   0  0  0  0  0  0  0  0  0  0  0  0
    2.8305    2.1404    0.8526 C   0  0  0  0  0  0  0  0  0  0  0  0
    3.4948    1.1494    1.4959 N   0  0  0  0  0  0  0  0  0  0  0  0
    7.4002   -2.2266    5.1787 C   0  0  0  0  0  0  0  0  0  0  0  0
    6.3081   -2.6622    5.9184 C   0  0  0  0  0  0  0  0  0  0  0  0
    6.1353   -2.2516    7.2275 C   0  0  0  0  0  0  0  0  0  0  0  0
    7.0863   -1.5474    7.9063 C   0  0  0  0  0  0  0  0  0  0  0  0
    6.6457   -1.0836    9.0752 N   0  0  0  0  0  0  0  0  0  0  0  0
    7.5518   -0.5615    9.9015 C   0  0  0  0  0  0  0  0  0  0  0  0
    8.8981   -0.5705    9.6040 C   0  0  0  0  0  0  0  0  0  0  0  0
    9.7760   -0.3299   10.7555 C   0  0  0  0  0  0  0  0  0  0  0  0
   10.4177   -1.2667   11.6135 C   0  0  0  0  0  0  0  0  0  0  0  0
   10.9014   -0.7130   12.7344 N   0  0  0  0  0  0  0  0  0  0  0  0
   10.5595    0.5803   12.6160 N   0  0  0  0  0  0  0  0  0  0  0  0
   11.1260    1.5742   13.4999 C   0  0  0  0  0  0  0  0  0  0  0  0
    9.7408    0.8148   11.5429 C   0  0  0  0  0  0  0  0  0  0  0  0
    9.3456   -0.9289    8.3361 N   0  0  0  0  0  0  0  0  0  0  0  0
    8.3919   -1.3886    7.3815 C   0  0  0  0  0  0  0  0  0  0  0  0
    8.4903   -1.6849    5.9414 C   0  0  0  0  0  0  0  0  0  0  0  0
    8.6253   -3.7309    2.4483 C   0  0  0  0  0  0  0  0  0  0  0  0
   10.8161   -6.7186    0.0176 H   0  0  0  0  0  0  0  0  0  0  0  0
   11.5536   -5.1146    0.0131 H   0  0  0  0  0  0  0  0  0  0  0  0
   10.0445   -5.4400   -0.9215 H   0  0  0  0  0  0  0  0  0  0  0  0
   10.3371   -3.2135   -0.4558 H   0  0  0  0  0  0  0  0  0  0  0  0
   10.3850    0.0843   -1.8738 H   0  0  0  0  0  0  0  0  0  0  0  0
    9.8595   -1.5958   -2.0206 H   0  0  0  0  0  0  0  0  0  0  0  0
   11.3028   -1.1642   -1.0239 H   0  0  0  0  0  0  0  0  0  0  0  0
    8.0592   -0.4389    1.8616 H   0  0  0  0  0  0  0  0  0  0  0  0
    6.4084   -0.2402    3.4552 H   0  0  0  0  0  0  0  0  0  0  0  0
    5.2924   -1.2930    4.2649 H   0  0  0  0  0  0  0  0  0  0  0  0
    5.6761   -0.9674    1.3260 H   0  0  0  0  0  0  0  0  0  0  0  0
    4.0406   -3.3530    2.4685 H   0  0  0  0  0  0  0  0  0  0  0  0
    3.9924   -2.7135    0.7738 H   0  0  0  0  0  0  0  0  0  0  0  0
    3.2387   -1.2124    3.3312 H   0  0  0  0  0  0  0  0  0  0  0  0
    1.3371   -1.3448    0.7908 H   0  0  0  0  0  0  0  0  0  0  0  0
    0.1877    0.5020   -0.4176 H   0  0  0  0  0  0  0  0  0  0  0  0
    1.1557    2.7958   -0.3403 H   0  0  0  0  0  0  0  0  0  0  0  0
    3.2880    3.1224    0.9360 H   0  0  0  0  0  0  0  0  0  0  0  0
    5.5002   -3.2092    5.4363 H   0  0  0  0  0  0  0  0  0  0  0  0
    5.1876   -2.4550    7.7196 H   0  0  0  0  0  0  0  0  0  0  0  0
    7.1611   -0.1925   10.8431 H   0  0  0  0  0  0  0  0  0  0  0  0
   10.5138   -2.3389   11.4966 H   0  0  0  0  0  0  0  0  0  0  0  0
   11.8115    1.0997   14.2083 H   0  0  0  0  0  0  0  0  0  0  0  0
   10.3266    2.0902   14.0372 H   0  0  0  0  0  0  0  0  0  0  0  0
   11.6821    2.2806   12.8772 H   0  0  0  0  0  0  0  0  0  0  0  0
    9.2317    1.7624   11.4339 H   0  0  0  0  0  0  0  0  0  0  0  0
    9.4252   -1.4339    5.4356 H   0  0  0  0  0  0  0  0  0  0  0  0
    8.3571   -4.5487    3.1139 H   0  0  0  0  0  0  0  0  0  0  0  0
  1  2  1  0  0  0  0
  1 38  1  0  0  0  0
  1 39  1  0  0  0  0
  1 40  1  0  0  0  0
  2  3  1  0  0  0  0
  3  4  1  0  0  0  0
  3 37  2  0  0  0  0
  4  5  2  0  0  0  0
  4 41  1  0  0  0  0
  5  6  1  0  0  0  0
  5  8  1  0  0  0  0
  6  7  1  0  0  0  0
  7 42  1  0  0  0  0
  7 43  1  0  0  0  0
  7 44  1  0  0  0  0
  8  9  2  0  0  0  0
  8 45  1  0  0  0  0
  9 10  1  0  0  0  0
  9 37  1  0  0  0  0
 10 11  1  0  0  0  0
 10 21  1  0  0  0  0
 11 46  1  0  0  0  0
 11 47  1  0  0  0  0
 12 13  1  0  0  0  0
 12 14  1  0  0  0  0
 12 11  1  0  0  0  0
 12 48  1  6  0  0  0
 13 14  1  0  0  0  0
 13 49  1  0  0  0  0
 13 50  1  0  0  0  0
 14 15  1  0  0  0  0
 14 51  1  1  0  0  0
 15 16  1  0  0  0  0
 15 20  2  0  0  0  0
 16 17  2  0  0  0  0
 16 52  1  0  0  0  0
 17 18  1  0  0  0  0
 17 53  1  0  0  0  0
 18 19  2  0  0  0  0
 18 54  1  0  0  0  0
 19 20  1  0  0  0  0
 19 55  1  0  0  0  0
 21 22  1  0  0  0  0
 21 36  2  0  0  0  0
 22 23  2  0  0  0  0
 22 56  1  0  0  0  0
 23 24  1  0  0  0  0
 23 57  1  0  0  0  0
 24 25  1  0  0  0  0
 24 35  2  0  0  0  0
 25 26  2  0  0  0  0
 26 27  1  0  0  0  0
 26 58  1  0  0  0  0
 27 28  1  0  0  0  0
 27 34  2  0  0  0  0
 28 29  1  0  0  0  0
 28 33  2  0  0  0  0
 29 30  2  0  0  0  0
 29 59  1  0  0  0  0
 30 31  1  0  0  0  0
 31 32  1  0  0  0  0
 31 33  1  0  0  0  0
 32 60  1  0  0  0  0
 32 61  1  0  0  0  0
 32 62  1  0  0  0  0
 33 63  1  0  0  0  0
 34 35  1  0  0  0  0
 35 36  1  0  0  0  0
 36 64  1  0  0  0  0
 37 65  1  0  0  0  0
M  END
$$$$
