CHEMBL3935597
 OpenBabel04072215373D

 51 54  0  0  0  0  0  0  0  0999 V2000
    3.5237    2.7189    0.4395 C   0  0  0  0  0  0  0  0  0  0  0  0
    3.6427    1.4323    0.2644 C   0  0  0  0  0  0  0  0  0  0  0  0
    3.7814   -0.0675    0.0604 C   0  0  0  0  0  0  0  0  0  0  0  0
    4.3173   -0.7552    1.2676 N   0  0  0  0  0  0  0  0  0  0  0  0
    3.3821   -1.2041    2.2434 C   0  0  0  0  0  0  0  0  0  0  0  0
    2.1678   -0.5572    2.4886 C   0  0  0  0  0  0  0  0  0  0  0  0
    1.3229   -0.9743    3.5247 C   0  0  0  0  0  0  0  0  0  0  0  0
    1.6446   -2.0473    4.3398 C   0  0  0  0  0  0  0  0  0  0  0  0
    0.8105   -2.3865    5.3394 N   0  0  0  0  0  0  0  0  0  0  0  0
    1.1762   -3.4533    6.0885 C   0  0  0  0  0  0  0  0  0  0  0  0
    2.3339   -4.1813    5.8558 C   0  0  0  0  0  0  0  0  0  0  0  0
    2.6605   -5.3541    6.6489 C   0  0  0  0  0  0  0  0  0  0  0  0
    1.9359   -6.0166    7.6681 C   0  0  0  0  0  0  0  0  0  0  0  0
    2.5691   -7.0927    8.1437 N   0  0  0  0  0  0  0  0  0  0  0  0
    3.7062   -7.1305    7.4258 N   0  0  0  0  0  0  0  0  0  0  0  0
    4.6563   -8.1920    7.6423 C   0  0  0  0  0  0  0  0  0  0  0  0
    3.8116   -6.1110    6.5231 C   0  0  0  0  0  0  0  0  0  0  0  0
    3.1841   -3.8287    4.8561 N   0  0  0  0  0  0  0  0  0  0  0  0
    2.8404   -2.7583    4.0970 C   0  0  0  0  0  0  0  0  0  0  0  0
    3.6664   -2.3276    3.0548 C   0  0  0  0  0  0  0  0  0  0  0  0
    5.7400   -0.7838    1.4246 C   0  0  0  0  0  0  0  0  0  0  0  0
    6.3447   -0.6817    2.7023 C   0  0  0  0  0  0  0  0  0  0  0  0
    5.5669   -0.4295    3.7692 F   0  0  0  0  0  0  0  0  0  0  0  0
    7.7299   -0.8094    2.8954 C   0  0  0  0  0  0  0  0  0  0  0  0
    8.4074   -0.7892    4.0868 O   0  0  0  0  0  0  0  0  0  0  0  0
    7.6401   -0.7411    5.2850 C   0  0  0  0  0  0  0  0  0  0  0  0
    8.5607   -0.9752    1.7850 C   0  0  0  0  0  0  0  0  0  0  0  0
    8.0181   -1.0353    0.5060 C   0  0  0  0  0  0  0  0  0  0  0  0
    8.7278   -1.1800   -0.6563 O   0  0  0  0  0  0  0  0  0  0  0  0
   10.1421   -1.2616   -0.5561 C   0  0  0  0  0  0  0  0  0  0  0  0
    6.6249   -0.9630    0.3448 C   0  0  0  0  0  0  0  0  0  0  0  0
    6.1525   -1.1391   -0.9003 F   0  0  0  0  0  0  0  0  0  0  0  0
    3.4325    3.7703    0.5876 H   0  0  0  0  0  0  0  0  0  0  0  0
    4.3576   -0.2331   -0.8487 H   0  0  0  0  0  0  0  0  0  0  0  0
    2.7895   -0.4723   -0.1831 H   0  0  0  0  0  0  0  0  0  0  0  0
    1.8628    0.3173    1.9223 H   0  0  0  0  0  0  0  0  0  0  0  0
    0.3979   -0.4332    3.7114 H   0  0  0  0  0  0  0  0  0  0  0  0
    0.4852   -3.7023    6.8856 H   0  0  0  0  0  0  0  0  0  0  0  0
    0.9686   -5.7711    8.0850 H   0  0  0  0  0  0  0  0  0  0  0  0
    4.3371   -8.8030    8.4909 H   0  0  0  0  0  0  0  0  0  0  0  0
    5.6315   -7.7462    7.8544 H   0  0  0  0  0  0  0  0  0  0  0  0
    4.7004   -8.8037    6.7380 H   0  0  0  0  0  0  0  0  0  0  0  0
    4.6678   -6.0113    5.8718 H   0  0  0  0  0  0  0  0  0  0  0  0
    4.5812   -2.8926    2.8891 H   0  0  0  0  0  0  0  0  0  0  0  0
    8.3362   -0.8110    6.1266 H   0  0  0  0  0  0  0  0  0  0  0  0
    6.9513   -1.5894    5.3572 H   0  0  0  0  0  0  0  0  0  0  0  0
    7.1157    0.2152    5.3731 H   0  0  0  0  0  0  0  0  0  0  0  0
    9.6294   -1.0605    1.9564 H   0  0  0  0  0  0  0  0  0  0  0  0
   10.5424   -1.3267   -1.5724 H   0  0  0  0  0  0  0  0  0  0  0  0
   10.4414   -2.1665   -0.0184 H   0  0  0  0  0  0  0  0  0  0  0  0
   10.5619   -0.3641   -0.0903 H   0  0  0  0  0  0  0  0  0  0  0  0
  1  2  3  0  0  0  0
  1 33  1  0  0  0  0
  2  3  1  0  0  0  0
  3  4  1  0  0  0  0
  3 34  1  0  0  0  0
  3 35  1  0  0  0  0
  4  5  1  0  0  0  0
  4 21  1  0  0  0  0
  5  6  1  0  0  0  0
  5 20  2  0  0  0  0
  6  7  2  0  0  0  0
  6 36  1  0  0  0  0
  7  8  1  0  0  0  0
  7 37  1  0  0  0  0
  8  9  1  0  0  0  0
  8 19  2  0  0  0  0
  9 10  2  0  0  0  0
 10 11  1  0  0  0  0
 10 38  1  0  0  0  0
 11 12  1  0  0  0  0
 11 18  2  0  0  0  0
 12 13  1  0  0  0  0
 12 17  2  0  0  0  0
 13 14  2  0  0  0  0
 13 39  1  0  0  0  0
 14 15  1  0  0  0  0
 15 16  1  0  0  0  0
 15 17  1  0  0  0  0
 16 40  1  0  0  0  0
 16 41  1  0  0  0  0
 16 42  1  0  0  0  0
 17 43  1  0  0  0  0
 18 19  1  0  0  0  0
 19 20  1  0  0  0  0
 20 44  1  0  0  0  0
 21 22  1  0  0  0  0
 21 31  2  0  0  0  0
 22 23  1  0  0  0  0
 22 24  2  0  0  0  0
 24 25  1  0  0  0  0
 24 27  1  0  0  0  0
 25 26  1  0  0  0  0
 26 45  1  0  0  0  0
 26 46  1  0  0  0  0
 26 47  1  0  0  0  0
 27 28  2  0  0  0  0
 27 48  1  0  0  0  0
 28 29  1  0  0  0  0
 28 31  1  0  0  0  0
 29 30  1  0  0  0  0
 30 49  1  0  0  0  0
 30 50  1  0  0  0  0
 30 51  1  0  0  0  0
 31 32  1  0  0  0  0
M  END
$$$$
