CHEMBL3612231
 OpenBabel04072215363D

 41 44  0  0  0  0  0  0  0  0999 V2000
    2.5942   -0.7358   -1.1813 O   0  0  0  0  0  0  0  0  0  0  0  0
    2.2181    0.1596   -0.4354 C   0  0  0  0  0  0  0  0  0  0  0  0
    0.8854    0.4601   -0.1848 N   0  0  0  0  0  0  0  0  0  0  0  0
   -0.2319   -0.1715   -0.7814 C   0  0  0  0  0  0  0  0  0  0  0  0
   -0.1560   -1.3769   -1.4904 C   0  0  0  0  0  0  0  0  0  0  0  0
   -1.2802   -1.9068   -2.1321 C   0  0  0  0  0  0  0  0  0  0  0  0
   -2.4988   -1.2426   -2.0570 C   0  0  0  0  0  0  0  0  0  0  0  0
   -2.5851   -0.0683   -1.3207 C   0  0  0  0  0  0  0  0  0  0  0  0
   -3.7586    0.5736   -1.2439 F   0  0  0  0  0  0  0  0  0  0  0  0
   -1.4719    0.4662   -0.6747 C   0  0  0  0  0  0  0  0  0  0  0  0
    3.0648    1.0328    0.2322 N   0  0  0  0  0  0  0  0  0  0  0  0
    4.4702    1.1187    0.0910 C   0  0  0  0  0  0  0  0  0  0  0  0
    5.2133    0.3231   -0.7867 C   0  0  0  0  0  0  0  0  0  0  0  0
    6.6007    0.4481   -0.8655 C   0  0  0  0  0  0  0  0  0  0  0  0
    7.2623    1.3873   -0.0818 C   0  0  0  0  0  0  0  0  0  0  0  0
    6.5344    2.2189    0.7705 C   0  0  0  0  0  0  0  0  0  0  0  0
    7.3817    3.4410    1.7554 S   0  0  0  0  0  0  0  0  0  0  0  0
    7.2952    4.8695    0.6964 C   0  0  0  0  0  0  0  0  0  0  0  0
    7.9629    4.9100   -0.5286 C   0  0  0  0  0  0  0  0  0  0  0  0
    7.9086    6.0623   -1.2876 C   0  0  0  0  0  0  0  0  0  0  0  0
    7.2565    7.1850   -0.9433 N   0  0  0  0  0  0  0  0  0  0  0  0
    6.6081    7.1519    0.2514 C   0  0  0  0  0  0  0  0  0  0  0  0
    5.8724    8.2450    0.7953 C   0  0  0  0  0  0  0  0  0  0  0  0
    5.3148    7.9492    2.0158 C   0  0  0  0  0  0  0  0  0  0  0  0
    5.6759    6.3573    2.5128 S   0  0  0  0  0  0  0  0  0  0  0  0
    6.6007    6.0313    1.0890 C   0  0  0  0  0  0  0  0  0  0  0  0
    5.1453    2.0694    0.8677 C   0  0  0  0  0  0  0  0  0  0  0  0
    0.7004    1.3200    0.3058 H   0  0  0  0  0  0  0  0  0  0  0  0
    0.7714   -1.9353   -1.5685 H   0  0  0  0  0  0  0  0  0  0  0  0
   -1.1908   -2.8321   -2.6959 H   0  0  0  0  0  0  0  0  0  0  0  0
   -3.3747   -1.6298   -2.5671 H   0  0  0  0  0  0  0  0  0  0  0  0
   -1.5930    1.3937   -0.1255 H   0  0  0  0  0  0  0  0  0  0  0  0
    2.6474    1.6333    0.9267 H   0  0  0  0  0  0  0  0  0  0  0  0
    4.7472   -0.4184   -1.4277 H   0  0  0  0  0  0  0  0  0  0  0  0
    7.1594   -0.1947   -1.5424 H   0  0  0  0  0  0  0  0  0  0  0  0
    8.3447    1.4631   -0.1458 H   0  0  0  0  0  0  0  0  0  0  0  0
    8.5303    4.0596   -0.8906 H   0  0  0  0  0  0  0  0  0  0  0  0
    8.4256    6.1142   -2.2430 H   0  0  0  0  0  0  0  0  0  0  0  0
    5.7673    9.2026    0.3017 H   0  0  0  0  0  0  0  0  0  0  0  0
    4.7133    8.5942    2.6417 H   0  0  0  0  0  0  0  0  0  0  0  0
    4.5924    2.7075    1.5540 H   0  0  0  0  0  0  0  0  0  0  0  0
  1  2  2  0  0  0  0
  2  3  1  0  0  0  0
  2 11  1  0  0  0  0
  3  4  1  0  0  0  0
  3 28  1  0  0  0  0
  4  5  1  0  0  0  0
  4 10  2  0  0  0  0
  5  6  2  0  0  0  0
  5 29  1  0  0  0  0
  6  7  1  0  0  0  0
  6 30  1  0  0  0  0
  7  8  2  0  0  0  0
  7 31  1  0  0  0  0
  8  9  1  0  0  0  0
  8 10  1  0  0  0  0
 10 32  1  0  0  0  0
 11 12  1  0  0  0  0
 11 33  1  0  0  0  0
 12 13  1  0  0  0  0
 12 27  2  0  0  0  0
 13 14  2  0  0  0  0
 13 34  1  0  0  0  0
 14 15  1  0  0  0  0
 14 35  1  0  0  0  0
 15 16  2  0  0  0  0
 15 36  1  0  0  0  0
 16 17  1  0  0  0  0
 16 27  1  0  0  0  0
 17 18  1  0  0  0  0
 18 19  1  0  0  0  0
 18 26  2  0  0  0  0
 19 20  2  0  0  0  0
 19 37  1  0  0  0  0
 20 21  1  0  0  0  0
 20 38  1  0  0  0  0
 21 22  2  0  0  0  0
 22 23  1  0  0  0  0
 22 26  1  0  0  0  0
 23 24  2  0  0  0  0
 23 39  1  0  0  0  0
 24 25  1  0  0  0  0
 24 40  1  0  0  0  0
 25 26  1  0  0  0  0
 27 41  1  0  0  0  0
M  END
$$$$
