CHEMBL363316
 OpenBabel04072215373D

 71 74  0  0  0  0  0  0  0  0999 V2000
    1.1791   -0.0181    0.0412 C   0  0  0  0  0  0  0  0  0  0  0  0
    2.6441   -0.0477    0.1000 N   0  0  0  0  0  0  0  0  0  0  0  0
    3.2676   -1.3044    0.1128 C   0  0  0  0  0  0  0  0  0  0  0  0
    2.7985   -2.3646   -0.6632 C   0  0  0  0  0  0  0  0  0  0  0  0
    3.4533   -3.5958   -0.6663 C   0  0  0  0  0  0  0  0  0  0  0  0
    4.6026   -3.8009    0.0986 C   0  0  0  0  0  0  0  0  0  0  0  0
    5.3279   -5.0100    0.0879 N   0  0  0  0  0  0  0  0  0  0  0  0
    5.1659   -6.0212   -0.8291 C   0  0  0  0  0  0  0  0  0  0  0  0
    4.3680   -6.0404   -1.7575 O   0  0  0  0  0  0  0  0  0  0  0  0
    6.0656   -7.0483   -0.6278 N   0  0  0  0  0  0  0  0  0  0  0  0
    5.9822   -8.1990   -1.5173 C   0  0  0  0  0  0  0  0  0  0  0  0
    6.3528   -7.8725   -2.9850 C   0  0  0  0  0  0  0  0  0  0  0  0
    6.2225   -9.0121   -3.9169 N   0  0  0  0  0  0  0  0  0  0  0  0
    6.6257   -8.6096   -5.2895 C   0  0  0  0  0  0  0  0  0  0  0  0
    5.6016   -7.7226   -6.0286 C   0  0  0  0  0  0  0  0  0  0  0  0
    4.3002   -8.3220   -6.0532 O   0  0  0  0  0  0  0  0  0  0  0  0
    3.8515   -8.6012   -4.7203 C   0  0  0  0  0  0  0  0  0  0  0  0
    4.8384   -9.5373   -4.0032 C   0  0  0  0  0  0  0  0  0  0  0  0
    5.0696   -2.7594    0.9001 C   0  0  0  0  0  0  0  0  0  0  0  0
    4.4082   -1.5259    0.9024 C   0  0  0  0  0  0  0  0  0  0  0  0
    3.2484    1.1943   -0.1904 C   0  0  0  0  0  0  0  0  0  0  0  0
    4.5236    1.2722   -0.7200 C   0  0  0  0  0  0  0  0  0  0  0  0
    5.0196    2.5232   -0.9751 C   0  0  0  0  0  0  0  0  0  0  0  0
    4.3512    3.6562   -0.7203 N   0  0  0  0  0  0  0  0  0  0  0  0
    3.1312    3.5131   -0.1898 C   0  0  0  0  0  0  0  0  0  0  0  0
    2.4350    4.6835    0.1222 N   0  0  0  0  0  0  0  0  0  0  0  0
    1.4965    4.8461    1.1525 C   0  0  0  0  0  0  0  0  0  0  0  0
    1.5094    4.0531    2.3064 C   0  0  0  0  0  0  0  0  0  0  0  0
    0.4954    4.1434    3.2604 C   0  0  0  0  0  0  0  0  0  0  0  0
   -0.5610    5.0447    3.0930 C   0  0  0  0  0  0  0  0  0  0  0  0
   -1.7705    5.0010    3.9897 C   0  0  0  0  0  0  0  0  0  0  0  0
   -1.4218    5.4164    5.6907 S   0  0  0  0  0  0  0  0  0  0  0  0
   -0.7205    7.0475    5.6272 C   0  0  0  0  0  0  0  0  0  0  0  0
   -2.7032    5.5405    6.3642 O   0  0  0  0  0  0  0  0  0  0  0  0
   -0.4166    4.5151    6.2245 O   0  0  0  0  0  0  0  0  0  0  0  0
   -0.5389    5.8922    1.9740 C   0  0  0  0  0  0  0  0  0  0  0  0
    0.4867    5.8019    1.0235 C   0  0  0  0  0  0  0  0  0  0  0  0
    2.5605    2.3251    0.0545 N   0  0  0  0  0  0  0  0  0  0  0  0
    0.7281   -0.9848    0.3000 H   0  0  0  0  0  0  0  0  0  0  0  0
    0.8346    0.2471   -0.9660 H   0  0  0  0  0  0  0  0  0  0  0  0
    0.7635    0.6976    0.7602 H   0  0  0  0  0  0  0  0  0  0  0  0
    1.9336   -2.2439   -1.3104 H   0  0  0  0  0  0  0  0  0  0  0  0
    3.0300   -4.3730   -1.2933 H   0  0  0  0  0  0  0  0  0  0  0  0
    6.1433   -5.0667    0.6795 H   0  0  0  0  0  0  0  0  0  0  0  0
    6.2471   -7.2581    0.3434 H   0  0  0  0  0  0  0  0  0  0  0  0
    4.9554   -8.5692   -1.4367 H   0  0  0  0  0  0  0  0  0  0  0  0
    6.6532   -8.9683   -1.1213 H   0  0  0  0  0  0  0  0  0  0  0  0
    7.4000   -7.5408   -2.9832 H   0  0  0  0  0  0  0  0  0  0  0  0
    5.7804   -7.0146   -3.3475 H   0  0  0  0  0  0  0  0  0  0  0  0
    6.7569   -9.5329   -5.8685 H   0  0  0  0  0  0  0  0  0  0  0  0
    7.6058   -8.1183   -5.2753 H   0  0  0  0  0  0  0  0  0  0  0  0
    5.9167   -7.5907   -7.0686 H   0  0  0  0  0  0  0  0  0  0  0  0
    5.5283   -6.7246   -5.5826 H   0  0  0  0  0  0  0  0  0  0  0  0
    2.8753   -9.0899   -4.7985 H   0  0  0  0  0  0  0  0  0  0  0  0
    3.7044   -7.6611   -4.1777 H   0  0  0  0  0  0  0  0  0  0  0  0
    4.8892  -10.4778   -4.5671 H   0  0  0  0  0  0  0  0  0  0  0  0
    4.4505   -9.8159   -3.0196 H   0  0  0  0  0  0  0  0  0  0  0  0
    5.9578   -2.8763    1.5145 H   0  0  0  0  0  0  0  0  0  0  0  0
    4.7866   -0.7268    1.5367 H   0  0  0  0  0  0  0  0  0  0  0  0
    5.1058    0.3904   -0.9599 H   0  0  0  0  0  0  0  0  0  0  0  0
    6.0094    2.6519   -1.4060 H   0  0  0  0  0  0  0  0  0  0  0  0
    3.0202    5.4842   -0.0645 H   0  0  0  0  0  0  0  0  0  0  0  0
    2.2997    3.3201    2.4599 H   0  0  0  0  0  0  0  0  0  0  0  0
    0.5266    3.4594    4.1074 H   0  0  0  0  0  0  0  0  0  0  0  0
   -2.2036    3.9950    3.9791 H   0  0  0  0  0  0  0  0  0  0  0  0
   -2.5419    5.6997    3.6476 H   0  0  0  0  0  0  0  0  0  0  0  0
   -1.4185    7.7089    5.1106 H   0  0  0  0  0  0  0  0  0  0  0  0
    0.2417    7.0117    5.1162 H   0  0  0  0  0  0  0  0  0  0  0  0
   -0.5820    7.3888    6.6559 H   0  0  0  0  0  0  0  0  0  0  0  0
   -1.3519    6.5930    1.7918 H   0  0  0  0  0  0  0  0  0  0  0  0
    0.4468    6.4295    0.1365 H   0  0  0  0  0  0  0  0  0  0  0  0
  1  2  1  0  0  0  0
  1 39  1  0  0  0  0
  1 40  1  0  0  0  0
  1 41  1  0  0  0  0
  2  3  1  0  0  0  0
  2 21  1  0  0  0  0
  3  4  1  0  0  0  0
  3 20  2  0  0  0  0
  4  5  2  0  0  0  0
  4 42  1  0  0  0  0
  5  6  1  0  0  0  0
  5 43  1  0  0  0  0
  6  7  1  0  0  0  0
  6 19  2  0  0  0  0
  7  8  1  0  0  0  0
  7 44  1  0  0  0  0
  8  9  2  0  0  0  0
  8 10  1  0  0  0  0
 10 11  1  0  0  0  0
 10 45  1  0  0  0  0
 11 12  1  0  0  0  0
 11 46  1  0  0  0  0
 11 47  1  0  0  0  0
 12 13  1  0  0  0  0
 12 48  1  0  0  0  0
 12 49  1  0  0  0  0
 13 14  1  0  0  0  0
 13 18  1  0  0  0  0
 14 15  1  0  0  0  0
 14 50  1  0  0  0  0
 14 51  1  0  0  0  0
 15 16  1  0  0  0  0
 15 52  1  0  0  0  0
 15 53  1  0  0  0  0
 16 17  1  0  0  0  0
 17 18  1  0  0  0  0
 17 54  1  0  0  0  0
 17 55  1  0  0  0  0
 18 56  1  0  0  0  0
 18 57  1  0  0  0  0
 19 20  1  0  0  0  0
 19 58  1  0  0  0  0
 20 59  1  0  0  0  0
 21 22  1  0  0  0  0
 21 38  2  0  0  0  0
 22 23  2  0  0  0  0
 22 60  1  0  0  0  0
 23 24  1  0  0  0  0
 23 61  1  0  0  0  0
 24 25  2  0  0  0  0
 25 26  1  0  0  0  0
 25 38  1  0  0  0  0
 26 27  1  0  0  0  0
 26 62  1  0  0  0  0
 27 28  1  0  0  0  0
 27 37  2  0  0  0  0
 28 29  2  0  0  0  0
 28 63  1  0  0  0  0
 29 30  1  0  0  0  0
 29 64  1  0  0  0  0
 30 31  1  0  0  0  0
 30 36  2  0  0  0  0
 31 32  1  0  0  0  0
 31 65  1  0  0  0  0
 31 66  1  0  0  0  0
 32 33  1  0  0  0  0
 32 34  2  0  0  0  0
 32 35  2  0  0  0  0
 33 67  1  0  0  0  0
 33 68  1  0  0  0  0
 33 69  1  0  0  0  0
 36 37  1  0  0  0  0
 36 70  1  0  0  0  0
 37 71  1  0  0  0  0
M  END
$$$$
