CHEMBL219581
 OpenBabel04072215363D

 66 72  0  0  0  0  0  0  0  0999 V2000
    3.3717    1.4531   -3.5297 C   0  0  0  0  0  0  0  0  0  0  0  0
    3.0302    0.8358   -2.1804 C   0  0  0  0  0  0  0  0  0  0  0  0
    3.5377   -0.5945   -1.9071 C   0  0  0  0  0  0  0  0  0  0  0  0
    4.9864   -0.8013   -1.8108 N   0  0  0  0  0  0  0  0  0  0  0  0
    5.7126   -0.6583   -0.5811 C   0  0  0  0  0  0  0  0  0  0  0  0
    5.3160   -0.4130    0.7537 C   0  0  0  0  0  0  0  0  0  0  0  0
    6.3145   -0.1936    1.7436 C   0  0  0  0  0  0  0  0  0  0  0  0
    7.6734   -0.2297    1.4629 C   0  0  0  0  0  0  0  0  0  0  0  0
    8.7167   -0.0565    2.4265 N   0  0  0  0  0  0  0  0  0  0  0  0
    8.5528   -0.1940    3.8028 C   0  0  0  0  0  0  0  0  0  0  0  0
    7.4621   -0.4927    4.2941 O   0  0  0  0  0  0  0  0  0  0  0  0
    9.6993    0.0192    4.5362 N   0  0  0  0  0  0  0  0  0  0  0  0
    9.7424   -0.1116    5.9563 C   0  0  0  0  0  0  0  0  0  0  0  0
    8.7863   -0.8660    6.6670 C   0  0  0  0  0  0  0  0  0  0  0  0
    8.7195   -0.8363    8.0548 C   0  0  0  0  0  0  0  0  0  0  0  0
    9.6394   -0.0859    8.7695 C   0  0  0  0  0  0  0  0  0  0  0  0
    9.5008    0.0328   10.4796 Cl  0  0  0  0  0  0  0  0  0  0  0  0
   10.6680    0.5795    8.0961 C   0  0  0  0  0  0  0  0  0  0  0  0
   10.7275    0.5551    6.6937 C   0  0  0  0  0  0  0  0  0  0  0  0
    8.0491   -0.4485    0.1383 C   0  0  0  0  0  0  0  0  0  0  0  0
    7.0707   -0.6732   -0.8788 C   0  0  0  0  0  0  0  0  0  0  0  0
    7.0658   -0.8191   -2.2517 C   0  0  0  0  0  0  0  0  0  0  0  0
    8.1419   -0.3684   -3.0060 C   0  0  0  0  0  0  0  0  0  0  0  0
    7.8623    0.0172   -4.3286 C   0  0  0  0  0  0  0  0  0  0  0  0
    6.5883   -0.1066   -4.9235 C   0  0  0  0  0  0  0  0  0  0  0  0
    5.8170   -1.1674   -4.3218 C   0  0  0  0  0  0  0  0  0  0  0  0
    5.8661   -1.1210   -2.8822 C   0  0  0  0  0  0  0  0  0  0  0  0
    6.0537   -2.5097   -5.2505 C   0  0  0  0  0  0  0  0  0  0  0  0
    7.2047   -2.3906   -6.3703 C   0  0  0  0  0  0  0  0  0  0  0  0
    6.8864   -1.1453   -7.1267 C   0  0  0  0  0  0  0  0  0  0  0  0
    6.5520   -1.0134   -8.4113 N   0  0  0  0  0  0  0  0  0  0  0  0
    5.9225    0.1920   -8.4258 N   0  0  0  0  0  0  0  0  0  0  0  0
    5.2562    0.6546   -9.6197 C   0  0  0  0  0  0  0  0  0  0  0  0
    5.7855    0.7579   -7.1811 C   0  0  0  0  0  0  0  0  0  0  0  0
    6.5477   -0.0220   -6.3594 C   0  0  0  0  0  0  0  0  0  0  0  0
    9.1226    0.3436   -4.9532 C   0  0  0  0  0  0  0  0  0  0  0  0
    9.4633    0.5825   -6.1035 O   0  0  0  0  0  0  0  0  0  0  0  0
   10.0564    0.2323   -3.9319 N   0  0  0  0  0  0  0  0  0  0  0  0
    9.5456   -0.1540   -2.6453 C   0  0  0  0  0  0  0  0  0  0  0  0
    2.9095    2.4431   -3.6091 H   0  0  0  0  0  0  0  0  0  0  0  0
    2.9897    0.8500   -4.3596 H   0  0  0  0  0  0  0  0  0  0  0  0
    4.4488    1.5901   -3.6480 H   0  0  0  0  0  0  0  0  0  0  0  0
    1.9295    0.8199   -2.1149 H   0  0  0  0  0  0  0  0  0  0  0  0
    3.3664    1.5188   -1.3910 H   0  0  0  0  0  0  0  0  0  0  0  0
    3.1345   -1.3093   -2.6291 H   0  0  0  0  0  0  0  0  0  0  0  0
    3.1202   -0.8882   -0.9327 H   0  0  0  0  0  0  0  0  0  0  0  0
    4.2718   -0.3622    1.0553 H   0  0  0  0  0  0  0  0  0  0  0  0
    5.9649    0.0336    2.7519 H   0  0  0  0  0  0  0  0  0  0  0  0
    9.6669   -0.0680    2.0938 H   0  0  0  0  0  0  0  0  0  0  0  0
   10.4290    0.5817    4.1134 H   0  0  0  0  0  0  0  0  0  0  0  0
    8.0604   -1.4810    6.1483 H   0  0  0  0  0  0  0  0  0  0  0  0
    7.9217   -1.3821    8.5622 H   0  0  0  0  0  0  0  0  0  0  0  0
   11.4085    1.1414    8.6613 H   0  0  0  0  0  0  0  0  0  0  0  0
   11.5258    1.1033    6.1998 H   0  0  0  0  0  0  0  0  0  0  0  0
    9.0979   -0.4733   -0.1068 H   0  0  0  0  0  0  0  0  0  0  0  0
    5.1172   -2.6672   -5.8020 H   0  0  0  0  0  0  0  0  0  0  0  0
    6.2471   -3.3869   -4.6264 H   0  0  0  0  0  0  0  0  0  0  0  0
    7.2754   -3.2602   -7.0310 H   0  0  0  0  0  0  0  0  0  0  0  0
    8.1890   -2.2859   -5.8868 H   0  0  0  0  0  0  0  0  0  0  0  0
    5.4509   -0.0334  -10.4451 H   0  0  0  0  0  0  0  0  0  0  0  0
    5.6327    1.6522   -9.8590 H   0  0  0  0  0  0  0  0  0  0  0  0
    4.1833    0.6949   -9.4115 H   0  0  0  0  0  0  0  0  0  0  0  0
    5.1343    1.6000   -7.0017 H   0  0  0  0  0  0  0  0  0  0  0  0
   11.0364    0.2807   -4.1582 H   0  0  0  0  0  0  0  0  0  0  0  0
    9.6671    0.6789   -1.9565 H   0  0  0  0  0  0  0  0  0  0  0  0
   10.0238   -1.0707   -2.2998 H   0  0  0  0  0  0  0  0  0  0  0  0
  1  2  1  0  0  0  0
  1 40  1  0  0  0  0
  1 41  1  0  0  0  0
  1 42  1  0  0  0  0
  2  3  1  0  0  0  0
  2 43  1  0  0  0  0
  2 44  1  0  0  0  0
  3  4  1  0  0  0  0
  3 45  1  0  0  0  0
  3 46  1  0  0  0  0
  4  5  1  0  0  0  0
  4 27  1  0  0  0  0
  5  6  1  0  0  0  0
  5 21  2  0  0  0  0
  6  7  2  0  0  0  0
  6 47  1  0  0  0  0
  7  8  1  0  0  0  0
  7 48  1  0  0  0  0
  8  9  1  0  0  0  0
  8 20  2  0  0  0  0
  9 10  1  0  0  0  0
  9 49  1  0  0  0  0
 10 11  2  0  0  0  0
 10 12  1  0  0  0  0
 12 13  1  0  0  0  0
 12 50  1  0  0  0  0
 13 14  1  0  0  0  0
 13 19  2  0  0  0  0
 14 15  2  0  0  0  0
 14 51  1  0  0  0  0
 15 16  1  0  0  0  0
 15 52  1  0  0  0  0
 16 17  1  0  0  0  0
 16 18  2  0  0  0  0
 18 19  1  0  0  0  0
 18 53  1  0  0  0  0
 19 54  1  0  0  0  0
 20 21  1  0  0  0  0
 20 55  1  0  0  0  0
 21 22  1  0  0  0  0
 22 23  1  0  0  0  0
 22 27  2  0  0  0  0
 23 24  2  0  0  0  0
 23 39  1  0  0  0  0
 24 25  1  0  0  0  0
 24 36  1  0  0  0  0
 25 26  2  0  0  0  0
 25 35  1  0  0  0  0
 26 27  1  0  0  0  0
 26 28  1  0  0  0  0
 28 29  1  0  0  0  0
 28 56  1  0  0  0  0
 28 57  1  0  0  0  0
 29 30  1  0  0  0  0
 29 58  1  0  0  0  0
 29 59  1  0  0  0  0
 30 31  2  0  0  0  0
 30 35  1  0  0  0  0
 31 32  1  0  0  0  0
 32 33  1  0  0  0  0
 32 34  1  0  0  0  0
 33 60  1  0  0  0  0
 33 61  1  0  0  0  0
 33 62  1  0  0  0  0
 34 35  2  0  0  0  0
 34 63  1  0  0  0  0
 36 37  2  0  0  0  0
 36 38  1  0  0  0  0
 38 39  1  0  0  0  0
 38 64  1  0  0  0  0
 39 65  1  0  0  0  0
 39 66  1  0  0  0  0
M  END
$$$$
