CHEMBL4443305
 OpenBabel04072215383D

 54 58  0  0  0  0  0  0  0  0999 V2000
    0.8787   -0.0520   -0.0569 C   0  0  0  0  0  0  0  0  0  0  0  0
    2.3842    0.0114    0.0123 C   0  0  0  0  0  0  0  0  0  0  0  0
    3.0764   -1.1375   -0.0172 C   0  0  0  0  0  0  0  0  0  0  0  0
    4.5288   -1.1330   -0.0843 C   0  0  0  0  0  0  0  0  0  0  0  0
    5.2227   -2.3364   -0.1916 C   0  0  0  0  0  0  0  0  0  0  0  0
    6.5958   -2.2845   -0.2586 C   0  0  0  0  0  0  0  0  0  0  0  0
    7.2915   -1.1370   -0.1754 N   0  0  0  0  0  0  0  0  0  0  0  0
    6.6236    0.0421   -0.0420 C   0  0  0  0  0  0  0  0  0  0  0  0
    7.3858    1.1955    0.2059 N   0  0  0  0  0  0  0  0  0  0  0  0
    8.6923    1.2798    0.7061 C   0  0  0  0  0  0  0  0  0  0  0  0
    9.5312    2.3222    0.2974 C   0  0  0  0  0  0  0  0  0  0  0  0
   10.8687    2.3651    0.7069 C   0  0  0  0  0  0  0  0  0  0  0  0
   11.3994    1.3265    1.4820 C   0  0  0  0  0  0  0  0  0  0  0  0
   12.7239    1.2318    1.8464 O   0  0  0  0  0  0  0  0  0  0  0  0
   13.6875    1.6867    0.9713 C   0  0  0  0  0  0  0  0  0  0  0  0
   13.5706    1.5097   -0.4081 C   0  0  0  0  0  0  0  0  0  0  0  0
   14.5258    2.0830   -1.2205 C   0  0  0  0  0  0  0  0  0  0  0  0
   15.5982    2.7548   -0.7540 N   0  0  0  0  0  0  0  0  0  0  0  0
   15.7496    2.8443    0.5833 C   0  0  0  0  0  0  0  0  0  0  0  0
   16.8780    3.5585    0.9821 N   0  0  0  0  0  0  0  0  0  0  0  0
   14.8254    2.3138    1.4876 C   0  0  0  0  0  0  0  0  0  0  0  0
   15.1533    2.4250    3.5619 I   0  0  0  0  0  0  0  0  0  0  0  0
   10.5552    0.3210    1.9317 C   0  0  0  0  0  0  0  0  0  0  0  0
   11.0234   -0.6559    2.7236 F   0  0  0  0  0  0  0  0  0  0  0  0
    9.2218    0.2915    1.5467 C   0  0  0  0  0  0  0  0  0  0  0  0
    5.2265    0.0762   -0.0438 C   0  0  0  0  0  0  0  0  0  0  0  0
    4.4558    1.3517   -0.0156 C   0  0  0  0  0  0  0  0  0  0  0  0
    5.0749    2.4148    0.0026 O   0  0  0  0  0  0  0  0  0  0  0  0
    3.0422    1.2513    0.0041 N   0  0  0  0  0  0  0  0  0  0  0  0
    2.3208    2.4876   -0.0618 C   0  0  0  0  0  0  0  0  0  0  0  0
    1.4239    2.8429    0.9547 C   0  0  0  0  0  0  0  0  0  0  0  0
    0.6507    4.0003    0.8311 C   0  0  0  0  0  0  0  0  0  0  0  0
    0.7817    4.7983   -0.3000 C   0  0  0  0  0  0  0  0  0  0  0  0
    0.0066    5.8827   -0.4289 F   0  0  0  0  0  0  0  0  0  0  0  0
    1.6869    4.4806   -1.3013 C   0  0  0  0  0  0  0  0  0  0  0  0
    2.4556    3.3311   -1.1758 C   0  0  0  0  0  0  0  0  0  0  0  0
    3.2757    2.9950   -2.1849 F   0  0  0  0  0  0  0  0  0  0  0  0
    0.5218   -1.0801   -0.1879 H   0  0  0  0  0  0  0  0  0  0  0  0
    0.5050    0.5198   -0.9130 H   0  0  0  0  0  0  0  0  0  0  0  0
    0.4193    0.3212    0.8617 H   0  0  0  0  0  0  0  0  0  0  0  0
    2.5726   -2.0995   -0.0287 H   0  0  0  0  0  0  0  0  0  0  0  0
    4.7158   -3.2937   -0.2336 H   0  0  0  0  0  0  0  0  0  0  0  0
    7.1964   -3.1826   -0.3672 H   0  0  0  0  0  0  0  0  0  0  0  0
    6.9392    2.0608   -0.0973 H   0  0  0  0  0  0  0  0  0  0  0  0
    9.1596    3.0931   -0.3738 H   0  0  0  0  0  0  0  0  0  0  0  0
   11.4903    3.1928    0.3759 H   0  0  0  0  0  0  0  0  0  0  0  0
   12.7394    0.9714   -0.8499 H   0  0  0  0  0  0  0  0  0  0  0  0
   14.4419    2.0298   -2.3028 H   0  0  0  0  0  0  0  0  0  0  0  0
   17.4123    3.7714    0.1450 H   0  0  0  0  0  0  0  0  0  0  0  0
   17.4156    3.0560    1.6784 H   0  0  0  0  0  0  0  0  0  0  0  0
    8.6015   -0.5236    1.9056 H   0  0  0  0  0  0  0  0  0  0  0  0
    1.3314    2.2321    1.8485 H   0  0  0  0  0  0  0  0  0  0  0  0
   -0.0565    4.2778    1.6073 H   0  0  0  0  0  0  0  0  0  0  0  0
    1.7759    5.1068   -2.1823 H   0  0  0  0  0  0  0  0  0  0  0  0
  1  2  1  0  0  0  0
  1 38  1  0  0  0  0
  1 39  1  0  0  0  0
  1 40  1  0  0  0  0
  2  3  2  0  0  0  0
  2 29  1  0  0  0  0
  3  4  1  0  0  0  0
  3 41  1  0  0  0  0
  4  5  1  0  0  0  0
  4 26  2  0  0  0  0
  5  6  2  0  0  0  0
  5 42  1  0  0  0  0
  6  7  1  0  0  0  0
  6 43  1  0  0  0  0
  7  8  2  0  0  0  0
  8  9  1  0  0  0  0
  8 26  1  0  0  0  0
  9 10  1  0  0  0  0
  9 44  1  0  0  0  0
 10 11  1  0  0  0  0
 10 25  2  0  0  0  0
 11 12  2  0  0  0  0
 11 45  1  0  0  0  0
 12 13  1  0  0  0  0
 12 46  1  0  0  0  0
 13 14  1  0  0  0  0
 13 23  2  0  0  0  0
 14 15  1  0  0  0  0
 15 16  1  0  0  0  0
 15 21  2  0  0  0  0
 16 17  2  0  0  0  0
 16 47  1  0  0  0  0
 17 18  1  0  0  0  0
 17 48  1  0  0  0  0
 18 19  2  0  0  0  0
 19 20  1  0  0  0  0
 19 21  1  0  0  0  0
 20 49  1  0  0  0  0
 20 50  1  0  0  0  0
 21 22  1  0  0  0  0
 23 24  1  0  0  0  0
 23 25  1  0  0  0  0
 25 51  1  0  0  0  0
 26 27  1  0  0  0  0
 27 28  2  0  0  0  0
 27 29  1  0  0  0  0
 29 30  1  0  0  0  0
 30 31  1  0  0  0  0
 30 36  2  0  0  0  0
 31 32  2  0  0  0  0
 31 52  1  0  0  0  0
 32 33  1  0  0  0  0
 32 53  1  0  0  0  0
 33 34  1  0  0  0  0
 33 35  2  0  0  0  0
 35 36  1  0  0  0  0
 35 54  1  0  0  0  0
 36 37  1  0  0  0  0
M  END
$$$$
