CHEMBL189354
 OpenBabel04072215363D

 61 64  0  0  0  0  0  0  0  0999 V2000
    1.0938   -0.0435    0.0228 C   0  0  0  0  0  0  0  0  0  0  0  0
    2.5503    0.1324   -0.0151 N   0  0  0  0  0  0  0  0  0  0  0  0
    3.2190    0.3599    1.2030 C   0  0  0  0  0  0  0  0  0  0  0  0
    2.7995   -0.2140    2.3954 C   0  0  0  0  0  0  0  0  0  0  0  0
    3.4904    0.0259    3.5835 C   0  0  0  0  0  0  0  0  0  0  0  0
    4.6223    0.8474    3.6358 C   0  0  0  0  0  0  0  0  0  0  0  0
    5.2957    1.1502    4.8500 N   0  0  0  0  0  0  0  0  0  0  0  0
    4.9294    0.6794    6.0993 C   0  0  0  0  0  0  0  0  0  0  0  0
    3.9700   -0.0651    6.3221 O   0  0  0  0  0  0  0  0  0  0  0  0
    5.7470    1.1123    7.1299 N   0  0  0  0  0  0  0  0  0  0  0  0
    5.4342    0.6923    8.4551 C   0  0  0  0  0  0  0  0  0  0  0  0
    5.4085   -0.6724    8.7767 C   0  0  0  0  0  0  0  0  0  0  0  0
    5.1012   -1.1137   10.0756 C   0  0  0  0  0  0  0  0  0  0  0  0
    5.1267   -2.5902   10.3981 C   0  0  0  0  0  0  0  0  0  0  0  0
    5.4783   -3.3651    9.3340 F   0  0  0  0  0  0  0  0  0  0  0  0
    6.0196   -2.8918   11.3823 F   0  0  0  0  0  0  0  0  0  0  0  0
    3.9252   -3.0644   10.8248 F   0  0  0  0  0  0  0  0  0  0  0  0
    4.7859   -0.1600   11.0566 C   0  0  0  0  0  0  0  0  0  0  0  0
    4.7987    1.2046   10.7407 C   0  0  0  0  0  0  0  0  0  0  0  0
    5.1373    1.6207    9.4515 C   0  0  0  0  0  0  0  0  0  0  0  0
    5.1149    2.9305    9.1610 F   0  0  0  0  0  0  0  0  0  0  0  0
    5.0839    1.3885    2.4361 C   0  0  0  0  0  0  0  0  0  0  0  0
    4.3869    1.1470    1.2401 C   0  0  0  0  0  0  0  0  0  0  0  0
    3.1522   -0.4483   -1.1639 C   0  0  0  0  0  0  0  0  0  0  0  0
    4.4501   -0.9204   -1.1030 C   0  0  0  0  0  0  0  0  0  0  0  0
    4.9660   -1.5232   -2.2092 C   0  0  0  0  0  0  0  0  0  0  0  0
    4.2749   -1.6830   -3.3426 N   0  0  0  0  0  0  0  0  0  0  0  0
    3.0403   -1.1599   -3.3670 C   0  0  0  0  0  0  0  0  0  0  0  0
    2.3132   -1.2655   -4.5510 N   0  0  0  0  0  0  0  0  0  0  0  0
    1.3471   -0.3739   -5.0329 C   0  0  0  0  0  0  0  0  0  0  0  0
    1.3653    0.9814   -4.6640 C   0  0  0  0  0  0  0  0  0  0  0  0
    0.3450    1.8598   -5.0324 C   0  0  0  0  0  0  0  0  0  0  0  0
   -0.7183    1.3938   -5.7914 C   0  0  0  0  0  0  0  0  0  0  0  0
   -0.7430    0.0535   -6.1803 C   0  0  0  0  0  0  0  0  0  0  0  0
   -2.0571   -0.5237   -7.2225 S   0  0  0  0  0  0  0  0  0  0  0  0
   -3.1827   -0.9933   -6.0839 N   0  0  0  0  0  0  0  0  0  0  0  0
   -2.6125    0.6167   -7.9246 O   0  0  0  0  0  0  0  0  0  0  0  0
   -1.6137   -1.7130   -7.8958 O   0  0  0  0  0  0  0  0  0  0  0  0
    0.2746   -0.8362   -5.7988 C   0  0  0  0  0  0  0  0  0  0  0  0
    2.4593   -0.5651   -2.3044 N   0  0  0  0  0  0  0  0  0  0  0  0
    0.6493    0.3560    0.9439 H   0  0  0  0  0  0  0  0  0  0  0  0
    0.8190   -1.1041   -0.0438 H   0  0  0  0  0  0  0  0  0  0  0  0
    0.6072    0.5010   -0.7929 H   0  0  0  0  0  0  0  0  0  0  0  0
    1.9404   -0.8768    2.4357 H   0  0  0  0  0  0  0  0  0  0  0  0
    3.0835   -0.4636    4.4593 H   0  0  0  0  0  0  0  0  0  0  0  0
    6.1168    1.7423    4.7904 H   0  0  0  0  0  0  0  0  0  0  0  0
    6.0753    2.0652    7.0396 H   0  0  0  0  0  0  0  0  0  0  0  0
    5.6520   -1.4061    8.0087 H   0  0  0  0  0  0  0  0  0  0  0  0
    4.5312   -0.4767   12.0671 H   0  0  0  0  0  0  0  0  0  0  0  0
    4.5399    1.9432   11.4938 H   0  0  0  0  0  0  0  0  0  0  0  0
    5.9723    2.0145    2.3955 H   0  0  0  0  0  0  0  0  0  0  0  0
    4.7599    1.5866    0.3147 H   0  0  0  0  0  0  0  0  0  0  0  0
    5.0438   -0.8574   -0.1933 H   0  0  0  0  0  0  0  0  0  0  0  0
    5.9758   -1.9179   -2.1973 H   0  0  0  0  0  0  0  0  0  0  0  0
    2.6140   -2.0336   -5.1304 H   0  0  0  0  0  0  0  0  0  0  0  0
    2.1963    1.3700   -4.0761 H   0  0  0  0  0  0  0  0  0  0  0  0
    0.3925    2.8995   -4.7223 H   0  0  0  0  0  0  0  0  0  0  0  0
   -1.5173    2.0772   -6.0737 H   0  0  0  0  0  0  0  0  0  0  0  0
   -3.7066   -0.2336   -5.6563 H   0  0  0  0  0  0  0  0  0  0  0  0
   -2.9082   -1.7900   -5.5162 H   0  0  0  0  0  0  0  0  0  0  0  0
    0.2083   -1.8860   -6.0687 H   0  0  0  0  0  0  0  0  0  0  0  0
  1  2  1  0  0  0  0
  1 41  1  0  0  0  0
  1 42  1  0  0  0  0
  1 43  1  0  0  0  0
  2  3  1  0  0  0  0
  2 24  1  0  0  0  0
  3  4  1  0  0  0  0
  3 23  2  0  0  0  0
  4  5  2  0  0  0  0
  4 44  1  0  0  0  0
  5  6  1  0  0  0  0
  5 45  1  0  0  0  0
  6  7  1  0  0  0  0
  6 22  2  0  0  0  0
  7  8  1  0  0  0  0
  7 46  1  0  0  0  0
  8  9  2  0  0  0  0
  8 10  1  0  0  0  0
 10 11  1  0  0  0  0
 10 47  1  0  0  0  0
 11 12  1  0  0  0  0
 11 20  2  0  0  0  0
 12 13  2  0  0  0  0
 12 48  1  0  0  0  0
 13 14  1  0  0  0  0
 13 18  1  0  0  0  0
 14 15  1  0  0  0  0
 14 16  1  0  0  0  0
 14 17  1  0  0  0  0
 18 19  2  0  0  0  0
 18 49  1  0  0  0  0
 19 20  1  0  0  0  0
 19 50  1  0  0  0  0
 20 21  1  0  0  0  0
 22 23  1  0  0  0  0
 22 51  1  0  0  0  0
 23 52  1  0  0  0  0
 24 25  1  0  0  0  0
 24 40  2  0  0  0  0
 25 26  2  0  0  0  0
 25 53  1  0  0  0  0
 26 27  1  0  0  0  0
 26 54  1  0  0  0  0
 27 28  2  0  0  0  0
 28 29  1  0  0  0  0
 28 40  1  0  0  0  0
 29 30  1  0  0  0  0
 29 55  1  0  0  0  0
 30 31  1  0  0  0  0
 30 39  2  0  0  0  0
 31 32  2  0  0  0  0
 31 56  1  0  0  0  0
 32 33  1  0  0  0  0
 32 57  1  0  0  0  0
 33 34  2  0  0  0  0
 33 58  1  0  0  0  0
 34 35  1  0  0  0  0
 34 39  1  0  0  0  0
 35 36  1  0  0  0  0
 35 37  2  0  0  0  0
 35 38  2  0  0  0  0
 36 59  1  0  0  0  0
 36 60  1  0  0  0  0
 39 61  1  0  0  0  0
M  END
$$$$
