CHEMBL3935064
 OpenBabel04072215373D

 54 57  0  0  0  0  0  0  0  0999 V2000
    2.7631    0.8181    0.5471 C   0  0  0  0  0  0  0  0  0  0  0  0
    3.8647   -0.1686    0.1868 C   0  0  0  0  0  0  0  0  0  0  0  0
    3.3690   -1.0334   -0.7445 F   0  0  0  0  0  0  0  0  0  0  0  0
    4.8481    0.5296   -0.4556 F   0  0  0  0  0  0  0  0  0  0  0  0
    4.3737   -0.8782    1.4228 C   0  0  0  0  0  0  0  0  0  0  0  0
    5.4559   -0.3331    2.1293 C   0  0  0  0  0  0  0  0  0  0  0  0
    5.8975   -0.9301    3.3024 C   0  0  0  0  0  0  0  0  0  0  0  0
    5.2447   -2.0592    3.7944 C   0  0  0  0  0  0  0  0  0  0  0  0
    4.1379   -2.6049    3.1321 C   0  0  0  0  0  0  0  0  0  0  0  0
    3.4007   -3.6956    3.6677 N   0  0  0  0  0  0  0  0  0  0  0  0
    3.3357   -3.9674    5.0254 C   0  0  0  0  0  0  0  0  0  0  0  0
    3.8363   -3.2607    5.8971 O   0  0  0  0  0  0  0  0  0  0  0  0
    2.6426   -5.1415    5.3098 N   0  0  0  0  0  0  0  0  0  0  0  0
    2.4595   -5.5191    6.6667 C   0  0  0  0  0  0  0  0  0  0  0  0
    2.0353   -4.5805    7.6155 C   0  0  0  0  0  0  0  0  0  0  0  0
    2.0204   -4.8899    8.9787 C   0  0  0  0  0  0  0  0  0  0  0  0
    2.3907   -6.1601    9.4126 C   0  0  0  0  0  0  0  0  0  0  0  0
    2.5086   -6.5092   10.7474 O   0  0  0  0  0  0  0  0  0  0  0  0
    1.5715   -6.0108   11.6474 C   0  0  0  0  0  0  0  0  0  0  0  0
    1.9407   -5.9369   12.9791 C   0  0  0  0  0  0  0  0  0  0  0  0
    0.9825   -5.4470   13.8432 C   0  0  0  0  0  0  0  0  0  0  0  0
    1.2637   -5.3723   15.2234 N   0  0  0  0  0  0  0  0  0  0  0  0
    0.3538   -4.9257   16.1659 C   0  0  0  0  0  0  0  0  0  0  0  0
   -0.7737   -4.4951   15.9666 O   0  0  0  0  0  0  0  0  0  0  0  0
    0.8352   -5.0372   17.5826 C   0  0  0  0  0  0  0  0  0  0  0  0
    0.0231   -5.8532   18.5667 C   0  0  0  0  0  0  0  0  0  0  0  0
    0.0632   -4.3593   18.6984 C   0  0  0  0  0  0  0  0  0  0  0  0
   -0.2206   -5.0576   13.4066 N   0  0  0  0  0  0  0  0  0  0  0  0
   -0.4841   -5.1904   12.1081 C   0  0  0  0  0  0  0  0  0  0  0  0
    0.3527   -5.6725   11.1931 N   0  0  0  0  0  0  0  0  0  0  0  0
    2.7685   -7.1094    8.4590 C   0  0  0  0  0  0  0  0  0  0  0  0
    3.1844   -8.3262    8.8454 F   0  0  0  0  0  0  0  0  0  0  0  0
    2.7821   -6.8078    7.0864 C   0  0  0  0  0  0  0  0  0  0  0  0
    3.7363   -2.0365    1.9173 C   0  0  0  0  0  0  0  0  0  0  0  0
    2.4489    1.3726   -0.3430 H   0  0  0  0  0  0  0  0  0  0  0  0
    3.1045    1.5492    1.2871 H   0  0  0  0  0  0  0  0  0  0  0  0
    1.8827    0.3017    0.9451 H   0  0  0  0  0  0  0  0  0  0  0  0
    5.9547    0.5653    1.7687 H   0  0  0  0  0  0  0  0  0  0  0  0
    6.7366   -0.5102    3.8513 H   0  0  0  0  0  0  0  0  0  0  0  0
    5.6234   -2.4954    4.7152 H   0  0  0  0  0  0  0  0  0  0  0  0
    2.6400   -4.0580    3.1104 H   0  0  0  0  0  0  0  0  0  0  0  0
    2.8042   -5.8858    4.6449 H   0  0  0  0  0  0  0  0  0  0  0  0
    1.7465   -3.5772    7.3063 H   0  0  0  0  0  0  0  0  0  0  0  0
    1.7359   -4.1129    9.6809 H   0  0  0  0  0  0  0  0  0  0  0  0
    2.9246   -6.2482   13.3011 H   0  0  0  0  0  0  0  0  0  0  0  0
    2.1653   -5.6958   15.5403 H   0  0  0  0  0  0  0  0  0  0  0  0
    1.9130   -5.0559   17.7090 H   0  0  0  0  0  0  0  0  0  0  0  0
    0.5460   -6.4391   19.3123 H   0  0  0  0  0  0  0  0  0  0  0  0
   -0.9070   -6.2973   18.2247 H   0  0  0  0  0  0  0  0  0  0  0  0
    0.6143   -3.9371   19.5291 H   0  0  0  0  0  0  0  0  0  0  0  0
   -0.8375   -3.8074   18.4447 H   0  0  0  0  0  0  0  0  0  0  0  0
   -1.4629   -4.8691   11.7710 H   0  0  0  0  0  0  0  0  0  0  0  0
    3.1290   -7.5641    6.3899 H   0  0  0  0  0  0  0  0  0  0  0  0
    2.8962   -2.4517    1.3651 H   0  0  0  0  0  0  0  0  0  0  0  0
  1  2  1  0  0  0  0
  1 35  1  0  0  0  0
  1 36  1  0  0  0  0
  1 37  1  0  0  0  0
  2  3  1  0  0  0  0
  2  4  1  0  0  0  0
  2  5  1  0  0  0  0
  5  6  1  0  0  0  0
  5 34  2  0  0  0  0
  6  7  2  0  0  0  0
  6 38  1  0  0  0  0
  7  8  1  0  0  0  0
  7 39  1  0  0  0  0
  8  9  2  0  0  0  0
  8 40  1  0  0  0  0
  9 10  1  0  0  0  0
  9 34  1  0  0  0  0
 10 11  1  0  0  0  0
 10 41  1  0  0  0  0
 11 12  2  0  0  0  0
 11 13  1  0  0  0  0
 13 14  1  0  0  0  0
 13 42  1  0  0  0  0
 14 15  1  0  0  0  0
 14 33  2  0  0  0  0
 15 16  2  0  0  0  0
 15 43  1  0  0  0  0
 16 17  1  0  0  0  0
 16 44  1  0  0  0  0
 17 18  1  0  0  0  0
 17 31  2  0  0  0  0
 18 19  1  0  0  0  0
 19 20  1  0  0  0  0
 19 30  2  0  0  0  0
 20 21  2  0  0  0  0
 20 45  1  0  0  0  0
 21 22  1  0  0  0  0
 21 28  1  0  0  0  0
 22 23  1  0  0  0  0
 22 46  1  0  0  0  0
 23 24  2  0  0  0  0
 23 25  1  0  0  0  0
 25 26  1  0  0  0  0
 25 27  1  0  0  0  0
 25 47  1  0  0  0  0
 26 27  1  0  0  0  0
 26 48  1  0  0  0  0
 26 49  1  0  0  0  0
 27 50  1  0  0  0  0
 27 51  1  0  0  0  0
 28 29  2  0  0  0  0
 29 30  1  0  0  0  0
 29 52  1  0  0  0  0
 31 32  1  0  0  0  0
 31 33  1  0  0  0  0
 33 53  1  0  0  0  0
 34 54  1  0  0  0  0
M  END
$$$$
