CHEMBL3741316
 OpenBabel04072215373D

 63 67  0  0  0  0  0  0  0  0999 V2000
    6.5975    0.3649    5.6462 C   0  0  0  0  0  0  0  0  0  0  0  0
    5.4758    1.0110    4.4285 S   0  0  0  0  0  0  0  0  0  0  0  0
    4.1261    0.6935    4.8500 O   0  0  0  0  0  0  0  0  0  0  0  0
    5.8506    2.3994    4.2143 O   0  0  0  0  0  0  0  0  0  0  0  0
    5.8687    0.1283    2.9199 C   0  0  0  0  0  0  0  0  0  0  0  0
    5.7500   -1.3686    3.0573 C   0  0  0  0  0  0  0  0  0  0  0  0
    4.5345   -1.9863    3.3793 C   0  0  0  0  0  0  0  0  0  0  0  0
    4.4320   -3.3762    3.4201 C   0  0  0  0  0  0  0  0  0  0  0  0
    5.5355   -4.1676    3.1069 C   0  0  0  0  0  0  0  0  0  0  0  0
    6.7633   -3.5844    2.7777 C   0  0  0  0  0  0  0  0  0  0  0  0
    7.8128   -4.4265    2.3618 N   0  0  0  0  0  0  0  0  0  0  0  0
    9.1817   -4.1379    2.3562 C   0  0  0  0  0  0  0  0  0  0  0  0
    9.8545   -4.5905    1.2900 N   0  0  0  0  0  0  0  0  0  0  0  0
   11.1664   -4.3173    1.2516 C   0  0  0  0  0  0  0  0  0  0  0  0
   11.8275   -3.6423    2.2460 C   0  0  0  0  0  0  0  0  0  0  0  0
   11.0761   -3.2453    3.3302 C   0  0  0  0  0  0  0  0  0  0  0  0
   11.6221   -2.5756    4.4345 N   0  0  0  0  0  0  0  0  0  0  0  0
   12.8979   -2.0355    4.6397 C   0  0  0  0  0  0  0  0  0  0  0  0
   13.0197   -0.7125    5.0748 C   0  0  0  0  0  0  0  0  0  0  0  0
   14.2415   -0.0398    4.9565 C   0  0  0  0  0  0  0  0  0  0  0  0
   15.3888   -0.7167    4.4972 C   0  0  0  0  0  0  0  0  0  0  0  0
   16.6529   -0.1338    4.3863 C   0  0  0  0  0  0  0  0  0  0  0  0
   17.3465   -0.3733    2.9823 C   0  0  0  0  0  0  0  0  0  0  0  0
   16.6804   -0.6996    2.0017 O   0  0  0  0  0  0  0  0  0  0  0  0
   18.7428   -0.2255    2.9892 N   0  0  0  0  0  0  0  0  0  0  0  0
   19.7027   -0.5506    1.9961 C   0  0  0  0  0  0  0  0  0  0  0  0
   19.4201   -1.1533    0.7646 C   0  0  0  0  0  0  0  0  0  0  0  0
   20.4483   -1.4288   -0.1556 C   0  0  0  0  0  0  0  0  0  0  0  0
   21.7688   -1.1080    0.1399 C   0  0  0  0  0  0  0  0  0  0  0  0
   22.0754   -0.5234    1.3639 C   0  0  0  0  0  0  0  0  0  0  0  0
   21.0531   -0.2556    2.2821 C   0  0  0  0  0  0  0  0  0  0  0  0
   17.4718   -0.6108    5.3919 C   0  0  0  0  0  0  0  0  0  0  0  0
   17.4898   -1.9983    5.5716 C   0  0  0  0  0  0  0  0  0  0  0  0
   16.4798   -2.7737    4.9751 C   0  0  0  0  0  0  0  0  0  0  0  0
   15.3250   -2.1156    4.5296 C   0  0  0  0  0  0  0  0  0  0  0  0
   14.0775   -2.7487    4.3934 C   0  0  0  0  0  0  0  0  0  0  0  0
    9.7487   -3.4668    3.3755 N   0  0  0  0  0  0  0  0  0  0  0  0
    6.8541   -2.1850    2.7469 C   0  0  0  0  0  0  0  0  0  0  0  0
    6.3995    0.8855    6.5864 H   0  0  0  0  0  0  0  0  0  0  0  0
    7.6199    0.5651    5.3215 H   0  0  0  0  0  0  0  0  0  0  0  0
    6.4262   -0.7040    5.7753 H   0  0  0  0  0  0  0  0  0  0  0  0
    6.8897    0.4226    2.6526 H   0  0  0  0  0  0  0  0  0  0  0  0
    5.1965    0.4915    2.1363 H   0  0  0  0  0  0  0  0  0  0  0  0
    3.6427   -1.3970    3.5882 H   0  0  0  0  0  0  0  0  0  0  0  0
    3.4849   -3.8425    3.6797 H   0  0  0  0  0  0  0  0  0  0  0  0
    5.4356   -5.2508    3.1235 H   0  0  0  0  0  0  0  0  0  0  0  0
    7.6237   -4.8310    1.4493 H   0  0  0  0  0  0  0  0  0  0  0  0
   11.6926   -4.6631    0.3667 H   0  0  0  0  0  0  0  0  0  0  0  0
   12.8807   -3.4289    2.1469 H   0  0  0  0  0  0  0  0  0  0  0  0
   10.8739   -2.2184    5.0164 H   0  0  0  0  0  0  0  0  0  0  0  0
   12.1591   -0.1856    5.4792 H   0  0  0  0  0  0  0  0  0  0  0  0
   14.3102    0.9960    5.2787 H   0  0  0  0  0  0  0  0  0  0  0  0
   19.1453    0.1447    3.8379 H   0  0  0  0  0  0  0  0  0  0  0  0
   18.4050   -1.4287    0.5027 H   0  0  0  0  0  0  0  0  0  0  0  0
   20.2114   -1.8977   -1.1078 H   0  0  0  0  0  0  0  0  0  0  0  0
   22.5664   -1.3175   -0.5763 H   0  0  0  0  0  0  0  0  0  0  0  0
   23.1056   -0.2831    1.6122 H   0  0  0  0  0  0  0  0  0  0  0  0
   21.3291    0.1928    3.2341 H   0  0  0  0  0  0  0  0  0  0  0  0
   18.1065    0.0665    5.9484 H   0  0  0  0  0  0  0  0  0  0  0  0
   18.2409   -2.4482    6.2091 H   0  0  0  0  0  0  0  0  0  0  0  0
   16.5050   -3.8602    5.0853 H   0  0  0  0  0  0  0  0  0  0  0  0
   14.0337   -3.8231    4.2380 H   0  0  0  0  0  0  0  0  0  0  0  0
    7.7913   -1.7246    2.4385 H   0  0  0  0  0  0  0  0  0  0  0  0
  1  2  1  0  0  0  0
  1 39  1  0  0  0  0
  1 40  1  0  0  0  0
  1 41  1  0  0  0  0
  2  3  2  0  0  0  0
  2  4  2  0  0  0  0
  2  5  1  0  0  0  0
  5  6  1  0  0  0  0
  5 42  1  0  0  0  0
  5 43  1  0  0  0  0
  6  7  1  0  0  0  0
  6 38  2  0  0  0  0
  7  8  2  0  0  0  0
  7 44  1  0  0  0  0
  8  9  1  0  0  0  0
  8 45  1  0  0  0  0
  9 10  2  0  0  0  0
  9 46  1  0  0  0  0
 10 11  1  0  0  0  0
 10 38  1  0  0  0  0
 11 12  1  0  0  0  0
 11 47  1  0  0  0  0
 12 13  1  0  0  0  0
 12 37  2  0  0  0  0
 13 14  2  0  0  0  0
 14 15  1  0  0  0  0
 14 48  1  0  0  0  0
 15 16  2  0  0  0  0
 15 49  1  0  0  0  0
 16 17  1  0  0  0  0
 16 37  1  0  0  0  0
 17 18  1  0  0  0  0
 17 50  1  0  0  0  0
 18 19  1  0  0  0  0
 18 36  2  0  0  0  0
 19 20  2  0  0  0  0
 19 51  1  0  0  0  0
 20 21  1  0  0  0  0
 20 52  1  0  0  0  0
 21 22  1  0  0  0  0
 21 35  2  0  0  0  0
 22 23  1  0  0  0  0
 22 32  2  0  0  0  0
 23 24  2  0  0  0  0
 23 25  1  0  0  0  0
 25 26  1  0  0  0  0
 25 53  1  0  0  0  0
 26 27  1  0  0  0  0
 26 31  2  0  0  0  0
 27 28  2  0  0  0  0
 27 54  1  0  0  0  0
 28 29  1  0  0  0  0
 28 55  1  0  0  0  0
 29 30  2  0  0  0  0
 29 56  1  0  0  0  0
 30 31  1  0  0  0  0
 30 57  1  0  0  0  0
 31 58  1  0  0  0  0
 32 33  1  0  0  0  0
 32 59  1  0  0  0  0
 33 34  2  0  0  0  0
 33 60  1  0  0  0  0
 34 35  1  0  0  0  0
 34 61  1  0  0  0  0
 35 36  1  0  0  0  0
 36 62  1  0  0  0  0
 38 63  1  0  0  0  0
M  END
$$$$
