CHEMBL2386817
 OpenBabel04072215363D

 65 69  0  0  0  0  0  0  0  0999 V2000
    2.4304   -0.3669   -0.0832 C   0  0  0  0  0  0  0  0  0  0  0  0
    1.0563    0.0727   -0.3068 N   0  0  0  0  0  0  0  0  0  0  0  0
    0.1617   -1.0882   -0.5248 C   0  0  0  0  0  0  0  0  0  0  0  0
   -1.3148   -0.6677   -0.7372 C   0  0  0  0  0  0  0  0  0  0  0  0
   -1.7505    0.1353    0.4164 N   0  0  0  0  0  0  0  0  0  0  0  0
   -3.0250    0.0734    0.9305 C   0  0  0  0  0  0  0  0  0  0  0  0
   -3.2506    0.3760    2.2841 C   0  0  0  0  0  0  0  0  0  0  0  0
   -4.5154    0.2882    2.8717 C   0  0  0  0  0  0  0  0  0  0  0  0
   -5.5976   -0.1151    2.0981 C   0  0  0  0  0  0  0  0  0  0  0  0
   -6.9766   -0.1981    2.6395 C   0  0  0  0  0  0  0  0  0  0  0  0
   -7.9354   -0.0724    1.9033 O   0  0  0  0  0  0  0  0  0  0  0  0
   -7.1372   -0.4170    4.0545 N   0  0  0  0  0  0  0  0  0  0  0  0
   -8.3944   -0.5159    4.6496 C   0  0  0  0  0  0  0  0  0  0  0  0
   -9.6107   -0.7175    4.0486 C   0  0  0  0  0  0  0  0  0  0  0  0
  -10.5828   -0.7500    5.0904 C   0  0  0  0  0  0  0  0  0  0  0  0
  -12.0242   -0.9759    4.9360 C   0  0  0  0  0  0  0  0  0  0  0  0
  -12.5347   -1.2844    3.6749 C   0  0  0  0  0  0  0  0  0  0  0  0
  -13.8920   -1.5167    3.4803 C   0  0  0  0  0  0  0  0  0  0  0  0
  -14.8075   -1.4466    4.5325 C   0  0  0  0  0  0  0  0  0  0  0  0
  -16.1965   -1.6547    4.3398 N   0  0  0  0  0  0  0  0  0  0  0  0
  -16.7924   -1.9971    3.1335 C   0  0  0  0  0  0  0  0  0  0  0  0
  -16.1940   -2.2231    2.0865 O   0  0  0  0  0  0  0  0  0  0  0  0
  -18.1747   -2.0232    3.1930 N   0  0  0  0  0  0  0  0  0  0  0  0
  -18.8963   -2.3599    2.0163 C   0  0  0  0  0  0  0  0  0  0  0  0
  -19.8811   -1.5016    1.5370 C   0  0  0  0  0  0  0  0  0  0  0  0
  -20.5819   -1.8416    0.3797 C   0  0  0  0  0  0  0  0  0  0  0  0
  -20.2937   -3.0470   -0.2424 C   0  0  0  0  0  0  0  0  0  0  0  0
  -19.3396   -3.8996    0.1850 N   0  0  0  0  0  0  0  0  0  0  0  0
  -18.6474   -3.5273    1.2916 C   0  0  0  0  0  0  0  0  0  0  0  0
  -14.3072   -1.1470    5.8073 C   0  0  0  0  0  0  0  0  0  0  0  0
  -12.9296   -0.9134    6.0056 C   0  0  0  0  0  0  0  0  0  0  0  0
   -9.9871   -0.5627    6.2796 N   0  0  0  0  0  0  0  0  0  0  0  0
   -8.6776   -0.4623    5.9880 N   0  0  0  0  0  0  0  0  0  0  0  0
   -5.4065   -0.4149    0.7439 C   0  0  0  0  0  0  0  0  0  0  0  0
   -4.1314   -0.3328    0.1752 C   0  0  0  0  0  0  0  0  0  0  0  0
   -0.8995    1.3146    0.6651 C   0  0  0  0  0  0  0  0  0  0  0  0
    0.5657    0.8595    0.8472 C   0  0  0  0  0  0  0  0  0  0  0  0
    2.8014   -0.9158   -0.9554 H   0  0  0  0  0  0  0  0  0  0  0  0
    2.5247   -1.0117    0.7979 H   0  0  0  0  0  0  0  0  0  0  0  0
    3.0898    0.4978    0.0496 H   0  0  0  0  0  0  0  0  0  0  0  0
    0.2087   -1.7652    0.3402 H   0  0  0  0  0  0  0  0  0  0  0  0
    0.4930   -1.6545   -1.4027 H   0  0  0  0  0  0  0  0  0  0  0  0
   -1.9115   -1.5814   -0.8406 H   0  0  0  0  0  0  0  0  0  0  0  0
   -1.4158   -0.0892   -1.6643 H   0  0  0  0  0  0  0  0  0  0  0  0
   -2.4084    0.6577    2.9136 H   0  0  0  0  0  0  0  0  0  0  0  0
   -4.6117    0.5683    3.9156 H   0  0  0  0  0  0  0  0  0  0  0  0
   -6.3252   -0.5089    4.6453 H   0  0  0  0  0  0  0  0  0  0  0  0
   -9.7963   -0.8554    2.9938 H   0  0  0  0  0  0  0  0  0  0  0  0
  -11.8984   -1.3627    2.7969 H   0  0  0  0  0  0  0  0  0  0  0  0
  -14.1830   -1.7582    2.4656 H   0  0  0  0  0  0  0  0  0  0  0  0
  -16.7886   -1.6256    5.1619 H   0  0  0  0  0  0  0  0  0  0  0  0
  -18.5862   -1.3097    3.7783 H   0  0  0  0  0  0  0  0  0  0  0  0
  -20.0680   -0.5440    2.0112 H   0  0  0  0  0  0  0  0  0  0  0  0
  -21.3343   -1.1789   -0.0327 H   0  0  0  0  0  0  0  0  0  0  0  0
  -20.8377   -3.3662   -1.1275 H   0  0  0  0  0  0  0  0  0  0  0  0
  -17.8787   -4.2321    1.5973 H   0  0  0  0  0  0  0  0  0  0  0  0
  -14.9700   -1.0881    6.6671 H   0  0  0  0  0  0  0  0  0  0  0  0
  -12.5680   -0.6803    7.0073 H   0  0  0  0  0  0  0  0  0  0  0  0
   -8.0351   -0.3300    6.7596 H   0  0  0  0  0  0  0  0  0  0  0  0
   -6.2453   -0.7083    0.1139 H   0  0  0  0  0  0  0  0  0  0  0  0
   -4.0231   -0.5655   -0.8814 H   0  0  0  0  0  0  0  0  0  0  0  0
   -1.2025    1.8783    1.5538 H   0  0  0  0  0  0  0  0  0  0  0  0
   -0.9755    2.0066   -0.1842 H   0  0  0  0  0  0  0  0  0  0  0  0
    0.6338    0.2644    1.7686 H   0  0  0  0  0  0  0  0  0  0  0  0
    1.1909    1.7495    0.9828 H   0  0  0  0  0  0  0  0  0  0  0  0
  1  2  1  0  0  0  0
  1 38  1  0  0  0  0
  1 39  1  0  0  0  0
  1 40  1  0  0  0  0
  2  3  1  0  0  0  0
  2 37  1  0  0  0  0
  3  4  1  0  0  0  0
  3 41  1  0  0  0  0
  3 42  1  0  0  0  0
  4  5  1  0  0  0  0
  4 43  1  0  0  0  0
  4 44  1  0  0  0  0
  5  6  1  0  0  0  0
  5 36  1  0  0  0  0
  6  7  1  0  0  0  0
  6 35  2  0  0  0  0
  7  8  2  0  0  0  0
  7 45  1  0  0  0  0
  8  9  1  0  0  0  0
  8 46  1  0  0  0  0
  9 10  1  0  0  0  0
  9 34  2  0  0  0  0
 10 11  2  0  0  0  0
 10 12  1  0  0  0  0
 12 13  1  0  0  0  0
 12 47  1  0  0  0  0
 13 14  2  0  0  0  0
 13 33  1  0  0  0  0
 14 15  1  0  0  0  0
 14 48  1  0  0  0  0
 15 16  1  0  0  0  0
 15 32  2  0  0  0  0
 16 17  1  0  0  0  0
 16 31  2  0  0  0  0
 17 18  2  0  0  0  0
 17 49  1  0  0  0  0
 18 19  1  0  0  0  0
 18 50  1  0  0  0  0
 19 20  1  0  0  0  0
 19 30  2  0  0  0  0
 20 21  1  0  0  0  0
 20 51  1  0  0  0  0
 21 22  2  0  0  0  0
 21 23  1  0  0  0  0
 23 24  1  0  0  0  0
 23 52  1  0  0  0  0
 24 25  1  0  0  0  0
 24 29  2  0  0  0  0
 25 26  2  0  0  0  0
 25 53  1  0  0  0  0
 26 27  1  0  0  0  0
 26 54  1  0  0  0  0
 27 28  2  0  0  0  0
 27 55  1  0  0  0  0
 28 29  1  0  0  0  0
 29 56  1  0  0  0  0
 30 31  1  0  0  0  0
 30 57  1  0  0  0  0
 31 58  1  0  0  0  0
 32 33  1  0  0  0  0
 33 59  1  0  0  0  0
 34 35  1  0  0  0  0
 34 60  1  0  0  0  0
 35 61  1  0  0  0  0
 36 37  1  0  0  0  0
 36 62  1  0  0  0  0
 36 63  1  0  0  0  0
 37 64  1  0  0  0  0
 37 65  1  0  0  0  0
M  END
$$$$
