CHEMBL3690476
 OpenBabel04072215373D

 45 48  0  0  0  0  0  0  0  0999 V2000
    2.4111    1.3813   -0.4323 O   0  0  0  0  0  0  0  0  0  0  0  0
    2.1239    0.4395    0.2944 C   0  0  0  0  0  0  0  0  0  0  0  0
    0.8243   -0.0108    0.3988 N   0  0  0  0  0  0  0  0  0  0  0  0
   -0.2409    0.7551   -0.2588 C   0  0  0  0  0  0  0  0  0  0  0  0
   -0.7563    1.9626    0.5365 C   0  0  0  0  0  0  0  0  0  0  0  0
   -0.1804    2.0439    1.7592 F   0  0  0  0  0  0  0  0  0  0  0  0
   -0.5495    3.1300   -0.1049 F   0  0  0  0  0  0  0  0  0  0  0  0
   -2.0916    1.8430    0.7437 F   0  0  0  0  0  0  0  0  0  0  0  0
    2.9788   -0.3100    1.0703 N   0  0  0  0  0  0  0  0  0  0  0  0
    4.3776   -0.1656    1.1814 C   0  0  0  0  0  0  0  0  0  0  0  0
    5.1090    0.7926    0.4798 C   0  0  0  0  0  0  0  0  0  0  0  0
    6.4982    0.8248    0.5724 C   0  0  0  0  0  0  0  0  0  0  0  0
    7.1662   -0.0819    1.3915 C   0  0  0  0  0  0  0  0  0  0  0  0
    6.4562   -0.9828    2.1918 C   0  0  0  0  0  0  0  0  0  0  0  0
    7.1361   -1.8383    3.1741 C   0  0  0  0  0  0  0  0  0  0  0  0
    6.8534   -3.1376    3.5700 C   0  0  0  0  0  0  0  0  0  0  0  0
    7.6963   -3.5785    4.5535 N   0  0  0  0  0  0  0  0  0  0  0  0
    8.5031   -2.5679    4.7944 C   0  0  0  0  0  0  0  0  0  0  0  0
    9.5716   -2.4375    5.7316 C   0  0  0  0  0  0  0  0  0  0  0  0
   10.2876   -1.2893    5.8285 C   0  0  0  0  0  0  0  0  0  0  0  0
   11.3854   -1.1758    6.8295 C   0  0  0  0  0  0  0  0  0  0  0  0
   11.6161   -2.2107    7.6585 N   0  0  0  0  0  0  0  0  0  0  0  0
   12.6013   -2.0485    8.5597 C   0  0  0  0  0  0  0  0  0  0  0  0
   13.3584   -0.9051    8.6637 C   0  0  0  0  0  0  0  0  0  0  0  0
   13.0490    0.0907    7.7727 C   0  0  0  0  0  0  0  0  0  0  0  0
   12.0741   -0.0151    6.8502 N   0  0  0  0  0  0  0  0  0  0  0  0
    9.9338   -0.1656    4.9497 C   0  0  0  0  0  0  0  0  0  0  0  0
    8.9110   -0.2706    4.0893 C   0  0  0  0  0  0  0  0  0  0  0  0
    8.2049   -1.4697    3.9903 N   0  0  0  0  0  0  0  0  0  0  0  0
    5.0591   -1.0400    2.0452 C   0  0  0  0  0  0  0  0  0  0  0  0
    0.5798   -0.4404    1.2795 H   0  0  0  0  0  0  0  0  0  0  0  0
   -1.0599    0.0502   -0.4313 H   0  0  0  0  0  0  0  0  0  0  0  0
    0.1124    1.0887   -1.2416 H   0  0  0  0  0  0  0  0  0  0  0  0
    2.5694   -1.0944    1.5549 H   0  0  0  0  0  0  0  0  0  0  0  0
    4.6316    1.5175   -0.1690 H   0  0  0  0  0  0  0  0  0  0  0  0
    7.0580    1.5594   -0.0002 H   0  0  0  0  0  0  0  0  0  0  0  0
    8.2528   -0.0590    1.3966 H   0  0  0  0  0  0  0  0  0  0  0  0
    6.0736   -3.7843    3.1880 H   0  0  0  0  0  0  0  0  0  0  0  0
    9.7732   -3.2966    6.3650 H   0  0  0  0  0  0  0  0  0  0  0  0
   12.7679   -2.8946    9.2208 H   0  0  0  0  0  0  0  0  0  0  0  0
   14.1427   -0.7985    9.3976 H   0  0  0  0  0  0  0  0  0  0  0  0
   13.5874    1.0338    7.7708 H   0  0  0  0  0  0  0  0  0  0  0  0
   10.5049    0.7560    5.0247 H   0  0  0  0  0  0  0  0  0  0  0  0
    8.6188    0.5617    3.4675 H   0  0  0  0  0  0  0  0  0  0  0  0
    4.4942   -1.7635    2.6306 H   0  0  0  0  0  0  0  0  0  0  0  0
  1  2  2  0  0  0  0
  2  3  1  0  0  0  0
  2  9  1  0  0  0  0
  3  4  1  0  0  0  0
  3 31  1  0  0  0  0
  4  5  1  0  0  0  0
  4 32  1  0  0  0  0
  4 33  1  0  0  0  0
  5  6  1  0  0  0  0
  5  7  1  0  0  0  0
  5  8  1  0  0  0  0
  9 10  1  0  0  0  0
  9 34  1  0  0  0  0
 10 11  1  0  0  0  0
 10 30  2  0  0  0  0
 11 12  2  0  0  0  0
 11 35  1  0  0  0  0
 12 13  1  0  0  0  0
 12 36  1  0  0  0  0
 13 14  2  0  0  0  0
 13 37  1  0  0  0  0
 14 15  1  0  0  0  0
 14 30  1  0  0  0  0
 15 16  2  0  0  0  0
 15 29  1  0  0  0  0
 16 17  1  0  0  0  0
 16 38  1  0  0  0  0
 17 18  2  0  0  0  0
 18 19  1  0  0  0  0
 18 29  1  0  0  0  0
 19 20  2  0  0  0  0
 19 39  1  0  0  0  0
 20 21  1  0  0  0  0
 20 27  1  0  0  0  0
 21 22  1  0  0  0  0
 21 26  2  0  0  0  0
 22 23  2  0  0  0  0
 23 24  1  0  0  0  0
 23 40  1  0  0  0  0
 24 25  2  0  0  0  0
 24 41  1  0  0  0  0
 25 26  1  0  0  0  0
 25 42  1  0  0  0  0
 27 28  2  0  0  0  0
 27 43  1  0  0  0  0
 28 29  1  0  0  0  0
 28 44  1  0  0  0  0
 30 45  1  0  0  0  0
M  END
$$$$
