CHEMBL2071194
 OpenBabel04072215363D

 43 46  0  0  1  0  0  0  0  0999 V2000
    6.9582    1.3598   -0.3267 C   0  0  0  0  0  0  0  0  0  0  0  0
    6.1364    0.1746   -0.2513 N   0  0  0  0  0  0  0  0  0  0  0  0
    4.8229    0.0385   -0.6136 C   0  0  0  0  0  0  0  0  0  0  0  0
    4.4939   -1.2731   -0.3511 C   0  0  0  0  0  0  0  0  0  0  0  0
    3.3100   -1.8633   -0.5964 N   0  0  0  0  0  0  0  0  0  0  0  0
    2.8819   -3.1713   -0.3238 C   0  0  0  0  0  0  0  0  0  0  0  0
    1.8891   -3.6183   -1.1089 N   0  0  0  0  0  0  0  0  0  0  0  0
    1.4798   -4.8922   -0.9074 C   0  0  0  0  0  0  0  0  0  0  0  0
    1.9981   -5.7210    0.0576 C   0  0  0  0  0  0  0  0  0  0  0  0
    1.5071   -6.9508    0.2488 F   0  0  0  0  0  0  0  0  0  0  0  0
    2.9592   -5.1704    0.8779 C   0  0  0  0  0  0  0  0  0  0  0  0
    3.3616   -5.8076    2.0689 N   0  0  0  0  0  0  0  0  0  0  0  0
    4.4099   -6.8492    2.0601 C   0  0  1  0  0  0  0  0  0  0  0  0
    4.2272   -8.1686    2.8871 C   0  0  1  0  0  0  0  0  0  0  0  0
    2.8339   -8.7734    3.0738 C   0  0  0  0  0  0  0  0  0  0  0  0
    1.9825   -8.0432    3.8397 N   0  0  0  0  0  0  0  0  0  0  0  0
    2.5101   -9.9010    2.6965 O   0  0  0  0  0  0  0  0  0  0  0  0
    5.1241   -9.1509    2.0717 C   0  0  2  0  0  0  0  0  0  0  0  0
    6.5425   -8.6081    1.9892 C   0  0  0  0  0  0  0  0  0  0  0  0
    6.5252   -7.5600    1.1467 C   0  0  0  0  0  0  0  0  0  0  0  0
    5.0736   -7.3408    0.7428 C   0  0  1  0  0  0  0  0  0  0  0  0
    4.6787   -8.8190    0.6420 C   0  0  0  0  0  0  0  0  0  0  0  0
    3.4228   -3.9066    0.6800 N   0  0  0  0  0  0  0  0  0  0  0  0
    5.6815   -1.8432    0.1480 C   0  0  0  0  0  0  0  0  0  0  0  0
    6.6867   -0.9652    0.2066 N   0  0  0  0  0  0  0  0  0  0  0  0
    6.3431    2.2192   -0.6013 H   0  0  0  0  0  0  0  0  0  0  0  0
    7.7322    1.1924   -1.0804 H   0  0  0  0  0  0  0  0  0  0  0  0
    7.4152    1.5257    0.6530 H   0  0  0  0  0  0  0  0  0  0  0  0
    4.2572    0.8707   -1.0113 H   0  0  0  0  0  0  0  0  0  0  0  0
    2.6453   -1.4414   -1.2349 H   0  0  0  0  0  0  0  0  0  0  0  0
    0.6704   -5.2260   -1.5477 H   0  0  0  0  0  0  0  0  0  0  0  0
    3.8076   -4.9961    2.5196 H   0  0  0  0  0  0  0  0  0  0  0  0
    5.2029   -6.3248    2.6178 H   0  0  0  0  0  0  0  0  0  0  0  0
    4.6399   -8.0379    3.8952 H   0  0  0  0  0  0  0  0  0  0  0  0
    2.1067   -7.0421    3.9279 H   0  0  0  0  0  0  0  0  0  0  0  0
    1.0565   -8.4264    3.9870 H   0  0  0  0  0  0  0  0  0  0  0  0
    5.0693  -10.2106    2.3326 H   0  0  0  0  0  0  0  0  0  0  0  0
    7.3882   -8.9559    2.5650 H   0  0  0  0  0  0  0  0  0  0  0  0
    7.3424   -6.8872    0.9322 H   0  0  0  0  0  0  0  0  0  0  0  0
    4.9373   -6.7621   -0.1692 H   0  0  0  0  0  0  0  0  0  0  0  0
    5.2516   -9.3761   -0.1144 H   0  0  0  0  0  0  0  0  0  0  0  0
    3.6139   -8.9847    0.4576 H   0  0  0  0  0  0  0  0  0  0  0  0
    5.8619   -2.8661    0.4455 H   0  0  0  0  0  0  0  0  0  0  0  0
  1  2  1  0  0  0  0
  1 26  1  0  0  0  0
  1 27  1  0  0  0  0
  1 28  1  0  0  0  0
  2  3  1  0  0  0  0
  2 25  1  0  0  0  0
  3  4  2  0  0  0  0
  3 29  1  0  0  0  0
  4  5  1  0  0  0  0
  4 24  1  0  0  0  0
  5  6  1  0  0  0  0
  5 30  1  0  0  0  0
  6  7  1  0  0  0  0
  6 23  2  0  0  0  0
  7  8  2  0  0  0  0
  8  9  1  0  0  0  0
  8 31  1  0  0  0  0
  9 10  1  0  0  0  0
  9 11  2  0  0  0  0
 11 12  1  0  0  0  0
 11 23  1  0  0  0  0
 12 13  1  0  0  0  0
 12 32  1  0  0  0  0
 13 14  1  0  0  0  0
 13 21  1  0  0  0  0
 13 33  1  1  0  0  0
 14 15  1  0  0  0  0
 14 18  1  0  0  0  0
 14 34  1  1  0  0  0
 15 16  1  0  0  0  0
 15 17  2  0  0  0  0
 16 35  1  0  0  0  0
 16 36  1  0  0  0  0
 18 19  1  0  0  0  0
 18 22  1  0  0  0  0
 18 37  1  1  0  0  0
 19 20  2  0  0  0  0
 19 38  1  0  0  0  0
 20 21  1  0  0  0  0
 20 39  1  0  0  0  0
 21 22  1  0  0  0  0
 21 40  1  6  0  0  0
 22 41  1  0  0  0  0
 22 42  1  0  0  0  0
 24 25  2  0  0  0  0
 24 43  1  0  0  0  0
M  END
$$$$
