CHEMBL3950335
 OpenBabel04072215373D

 45 48  0  0  0  0  0  0  0  0999 V2000
    2.8929    0.5483   -1.6852 C   0  0  0  0  0  0  0  0  0  0  0  0
    1.4500    0.3568   -1.3080 C   0  0  0  0  0  0  0  0  0  0  0  0
    0.9177   -0.9351   -1.3039 C   0  0  0  0  0  0  0  0  0  0  0  0
   -0.4061   -1.1356   -0.9415 C   0  0  0  0  0  0  0  0  0  0  0  0
   -1.2121   -0.0525   -0.5926 C   0  0  0  0  0  0  0  0  0  0  0  0
   -2.4287   -0.3662   -0.1326 F   0  0  0  0  0  0  0  0  0  0  0  0
   -0.7364    1.2696   -0.6290 C   0  0  0  0  0  0  0  0  0  0  0  0
   -1.5313    2.4273   -0.3462 N   0  0  0  0  0  0  0  0  0  0  0  0
   -2.9202    2.4713   -0.3777 C   0  0  0  0  0  0  0  0  0  0  0  0
   -3.6474    1.5252   -0.6763 O   0  0  0  0  0  0  0  0  0  0  0  0
   -3.4469    3.7421   -0.1179 N   0  0  0  0  0  0  0  0  0  0  0  0
   -4.8715    3.8789   -0.1355 C   0  0  0  0  0  0  0  0  0  0  0  0
   -5.6590    3.0886    0.7124 C   0  0  0  0  0  0  0  0  0  0  0  0
   -7.0500    3.0913    0.5947 C   0  0  0  0  0  0  0  0  0  0  0  0
   -7.6636    3.8691   -0.3881 C   0  0  0  0  0  0  0  0  0  0  0  0
   -6.8927    4.6826   -1.2267 C   0  0  0  0  0  0  0  0  0  0  0  0
   -7.5392    5.3898   -2.3033 C   0  0  0  0  0  0  0  0  0  0  0  0
   -8.1106    5.9026   -3.2317 C   0  0  0  0  0  0  0  0  0  0  0  0
   -8.8072    6.4533   -4.3772 C   0  0  0  0  0  0  0  0  0  0  0  0
   -9.5954    5.5999   -5.3048 C   0  0  0  0  0  0  0  0  0  0  0  0
  -10.1672    6.2083   -6.3547 C   0  0  0  0  0  0  0  0  0  0  0  0
  -10.0032    7.6013   -6.5168 C   0  0  0  0  0  0  0  0  0  0  0  0
  -10.4415    8.4242   -7.4462 N   0  0  0  0  0  0  0  0  0  0  0  0
   -9.9739    9.6607   -7.0785 C   0  0  0  0  0  0  0  0  0  0  0  0
   -9.2480    9.5879   -5.9126 C   0  0  0  0  0  0  0  0  0  0  0  0
   -9.2567    8.2675   -5.5548 N   0  0  0  0  0  0  0  0  0  0  0  0
   -8.6311    7.7344   -4.4633 N   0  0  0  0  0  0  0  0  0  0  0  0
   -5.4952    4.7209   -1.0698 C   0  0  0  0  0  0  0  0  0  0  0  0
    0.6202    1.4531   -0.9662 C   0  0  0  0  0  0  0  0  0  0  0  0
    3.3786   -0.4133   -1.8956 H   0  0  0  0  0  0  0  0  0  0  0  0
    3.4446    1.0179   -0.8657 H   0  0  0  0  0  0  0  0  0  0  0  0
    2.9766    1.1603   -2.5879 H   0  0  0  0  0  0  0  0  0  0  0  0
    1.5308   -1.7959   -1.5646 H   0  0  0  0  0  0  0  0  0  0  0  0
   -0.8261   -2.1362   -0.9057 H   0  0  0  0  0  0  0  0  0  0  0  0
   -1.0430    3.3015   -0.2231 H   0  0  0  0  0  0  0  0  0  0  0  0
   -2.9360    4.4884   -0.5666 H   0  0  0  0  0  0  0  0  0  0  0  0
   -5.1905    2.4358    1.4463 H   0  0  0  0  0  0  0  0  0  0  0  0
   -7.6478    2.4503    1.2390 H   0  0  0  0  0  0  0  0  0  0  0  0
   -8.7432    3.8095   -0.5109 H   0  0  0  0  0  0  0  0  0  0  0  0
   -9.6805    4.5395   -5.1147 H   0  0  0  0  0  0  0  0  0  0  0  0
  -10.7540    5.6641   -7.0860 H   0  0  0  0  0  0  0  0  0  0  0  0
  -10.1856   10.5404   -7.6737 H   0  0  0  0  0  0  0  0  0  0  0  0
   -8.7351   10.3306   -5.3216 H   0  0  0  0  0  0  0  0  0  0  0  0
   -4.9004    5.3300   -1.7417 H   0  0  0  0  0  0  0  0  0  0  0  0
    1.0486    2.4529   -0.9948 H   0  0  0  0  0  0  0  0  0  0  0  0
  1  2  1  0  0  0  0
  1 30  1  0  0  0  0
  1 31  1  0  0  0  0
  1 32  1  0  0  0  0
  2  3  1  0  0  0  0
  2 29  2  0  0  0  0
  3  4  2  0  0  0  0
  3 33  1  0  0  0  0
  4  5  1  0  0  0  0
  4 34  1  0  0  0  0
  5  6  1  0  0  0  0
  5  7  2  0  0  0  0
  7  8  1  0  0  0  0
  7 29  1  0  0  0  0
  8  9  1  0  0  0  0
  8 35  1  0  0  0  0
  9 10  2  0  0  0  0
  9 11  1  0  0  0  0
 11 12  1  0  0  0  0
 11 36  1  0  0  0  0
 12 13  1  0  0  0  0
 12 28  2  0  0  0  0
 13 14  2  0  0  0  0
 13 37  1  0  0  0  0
 14 15  1  0  0  0  0
 14 38  1  0  0  0  0
 15 16  2  0  0  0  0
 15 39  1  0  0  0  0
 16 17  1  0  0  0  0
 16 28  1  0  0  0  0
 17 18  3  0  0  0  0
 18 19  1  0  0  0  0
 19 20  1  0  0  0  0
 19 27  2  0  0  0  0
 20 21  2  0  0  0  0
 20 40  1  0  0  0  0
 21 22  1  0  0  0  0
 21 41  1  0  0  0  0
 22 23  2  0  0  0  0
 22 26  1  0  0  0  0
 23 24  1  0  0  0  0
 24 25  2  0  0  0  0
 24 42  1  0  0  0  0
 25 26  1  0  0  0  0
 25 43  1  0  0  0  0
 26 27  1  0  0  0  0
 28 44  1  0  0  0  0
 29 45  1  0  0  0  0
M  END
$$$$
