CHEMBL3409417
 OpenBabel04072215363D

 42 44  0  0  0  0  0  0  0  0999 V2000
   -0.5035    2.0243    5.8705 N   0  0  0  0  0  0  0  0  0  0  0  0
   -1.1898    1.7918    4.9669 C   0  0  0  0  0  0  0  0  0  0  0  0
   -2.0169    1.5562    3.8134 C   0  0  0  0  0  0  0  0  0  0  0  0
   -1.6819    2.1051    2.5851 C   0  0  0  0  0  0  0  0  0  0  0  0
   -2.5648    1.9139    1.5245 C   0  0  0  0  0  0  0  0  0  0  0  0
   -2.3845    2.4393    0.2662 O   0  0  0  0  0  0  0  0  0  0  0  0
   -1.8405    3.6961    0.1355 C   0  0  0  0  0  0  0  0  0  0  0  0
   -1.0526    3.9088   -0.9887 C   0  0  0  0  0  0  0  0  0  0  0  0
   -0.4216    5.1404   -1.1809 C   0  0  0  0  0  0  0  0  0  0  0  0
   -0.5726    6.1793   -0.2591 C   0  0  0  0  0  0  0  0  0  0  0  0
    0.1114    7.4157   -0.3571 N   0  0  0  0  0  0  0  0  0  0  0  0
    0.9174    7.8140   -1.4079 C   0  0  0  0  0  0  0  0  0  0  0  0
    1.0644    7.2057   -2.4624 O   0  0  0  0  0  0  0  0  0  0  0  0
    1.6002    8.9903   -1.1183 N   0  0  0  0  0  0  0  0  0  0  0  0
    2.4895    9.5516   -2.0631 C   0  0  0  0  0  0  0  0  0  0  0  0
    3.7485    9.9593   -1.6382 C   0  0  0  0  0  0  0  0  0  0  0  0
    4.6654   10.4493   -2.5700 C   0  0  0  0  0  0  0  0  0  0  0  0
    4.3219   10.5752   -3.9247 C   0  0  0  0  0  0  0  0  0  0  0  0
    5.5365   11.2265   -4.9615 Cl  0  0  0  0  0  0  0  0  0  0  0  0
    3.0548   10.1886   -4.3696 C   0  0  0  0  0  0  0  0  0  0  0  0
    2.5865   10.2622   -5.8006 C   0  0  0  0  0  0  0  0  0  0  0  0
    3.4765   10.7494   -6.7045 F   0  0  0  0  0  0  0  0  0  0  0  0
    2.2187    9.0400   -6.2829 F   0  0  0  0  0  0  0  0  0  0  0  0
    1.4785   11.0496   -5.9292 F   0  0  0  0  0  0  0  0  0  0  0  0
    2.1457    9.6773   -3.4155 C   0  0  0  0  0  0  0  0  0  0  0  0
   -1.4160    5.9785    0.8359 C   0  0  0  0  0  0  0  0  0  0  0  0
   -2.0703    4.7541    1.0188 C   0  0  0  0  0  0  0  0  0  0  0  0
   -3.6853    1.1099    1.6956 C   0  0  0  0  0  0  0  0  0  0  0  0
   -3.9276    0.5889    2.9538 C   0  0  0  0  0  0  0  0  0  0  0  0
   -3.1296    0.8081    4.0204 N   0  0  0  0  0  0  0  0  0  0  0  0
   -0.7710    2.6835    2.4691 H   0  0  0  0  0  0  0  0  0  0  0  0
   -0.9086    3.1145   -1.7210 H   0  0  0  0  0  0  0  0  0  0  0  0
    0.1933    5.2396   -2.0694 H   0  0  0  0  0  0  0  0  0  0  0  0
   -0.0744    8.1011    0.3581 H   0  0  0  0  0  0  0  0  0  0  0  0
    1.8542    9.0923   -0.1462 H   0  0  0  0  0  0  0  0  0  0  0  0
    4.0579    9.8422   -0.6037 H   0  0  0  0  0  0  0  0  0  0  0  0
    5.6649   10.7199   -2.2346 H   0  0  0  0  0  0  0  0  0  0  0  0
    1.1526    9.3699   -3.7486 H   0  0  0  0  0  0  0  0  0  0  0  0
   -1.5788    6.7675    1.5735 H   0  0  0  0  0  0  0  0  0  0  0  0
   -2.7400    4.6343    1.8688 H   0  0  0  0  0  0  0  0  0  0  0  0
   -4.3591    0.9050    0.8708 H   0  0  0  0  0  0  0  0  0  0  0  0
   -4.7992   -0.0318    3.1443 H   0  0  0  0  0  0  0  0  0  0  0  0
  1  2  3  0  0  0  0
  2  3  1  0  0  0  0
  3  4  1  0  0  0  0
  3 30  2  0  0  0  0
  4  5  2  0  0  0  0
  4 31  1  0  0  0  0
  5  6  1  0  0  0  0
  5 28  1  0  0  0  0
  6  7  1  0  0  0  0
  7  8  1  0  0  0  0
  7 27  2  0  0  0  0
  8  9  2  0  0  0  0
  8 32  1  0  0  0  0
  9 10  1  0  0  0  0
  9 33  1  0  0  0  0
 10 11  1  0  0  0  0
 10 26  2  0  0  0  0
 11 12  1  0  0  0  0
 11 34  1  0  0  0  0
 12 13  2  0  0  0  0
 12 14  1  0  0  0  0
 14 15  1  0  0  0  0
 14 35  1  0  0  0  0
 15 16  1  0  0  0  0
 15 25  2  0  0  0  0
 16 17  2  0  0  0  0
 16 36  1  0  0  0  0
 17 18  1  0  0  0  0
 17 37  1  0  0  0  0
 18 19  1  0  0  0  0
 18 20  2  0  0  0  0
 20 21  1  0  0  0  0
 20 25  1  0  0  0  0
 21 22  1  0  0  0  0
 21 23  1  0  0  0  0
 21 24  1  0  0  0  0
 25 38  1  0  0  0  0
 26 27  1  0  0  0  0
 26 39  1  0  0  0  0
 27 40  1  0  0  0  0
 28 29  2  0  0  0  0
 28 41  1  0  0  0  0
 29 30  1  0  0  0  0
 29 42  1  0  0  0  0
M  END
$$$$
