CHEMBL255404
 OpenBabel04072215363D

 55 60  0  0  0  0  0  0  0  0999 V2000
    1.4017   -0.6955    0.5900 C   0  0  0  0  0  0  0  0  0  0  0  0
    2.6600   -0.0504    0.0589 C   0  0  0  0  0  0  0  0  0  0  0  0
    3.1106   -0.3411   -1.0466 O   0  0  0  0  0  0  0  0  0  0  0  0
    3.3533    0.9696    0.8989 C   0  0  0  0  0  0  0  0  0  0  0  0
    2.7782    1.3901    2.1003 C   0  0  0  0  0  0  0  0  0  0  0  0
    3.3427    2.4242    2.8346 C   0  0  0  0  0  0  0  0  0  0  0  0
    4.4982    3.0140    2.3470 C   0  0  0  0  0  0  0  0  0  0  0  0
    5.1584    2.5856    1.1743 C   0  0  0  0  0  0  0  0  0  0  0  0
    4.5612    1.5338    0.4450 C   0  0  0  0  0  0  0  0  0  0  0  0
    6.2778    3.4248    1.0933 C   0  0  0  0  0  0  0  0  0  0  0  0
    7.3317    3.5821    0.1519 C   0  0  0  0  0  0  0  0  0  0  0  0
    8.3512    4.6257    0.4542 C   0  0  0  0  0  0  0  0  0  0  0  0
    8.2010    5.5274    1.5633 C   0  0  0  0  0  0  0  0  0  0  0  0
    6.8105    5.6298    1.7556 C   0  0  0  0  0  0  0  0  0  0  0  0
    6.1466    4.4581    1.9540 C   0  0  0  0  0  0  0  0  0  0  0  0
    5.1764    4.1213    2.8383 N   0  0  0  0  0  0  0  0  0  0  0  0
    5.0855    4.8055    4.1217 C   0  0  0  0  0  0  0  0  0  0  0  0
    3.9118    5.7681    4.2456 C   0  0  0  0  0  0  0  0  0  0  0  0
    5.2113    3.8512    5.3004 C   0  0  0  0  0  0  0  0  0  0  0  0
    6.2024    6.7851    0.9402 C   0  0  0  0  0  0  0  0  0  0  0  0
    6.4338    7.9599    1.8398 C   0  0  0  0  0  0  0  0  0  0  0  0
    7.9135    8.0253    2.0651 C   0  0  0  0  0  0  0  0  0  0  0  0
    8.3944    9.0339    2.7733 N   0  0  0  0  0  0  0  0  0  0  0  0
    9.2394    8.4077    3.5958 N   0  0  0  0  0  0  0  0  0  0  0  0
    9.3535    9.0312    4.9020 C   0  0  0  0  0  0  0  0  0  0  0  0
    9.5376    7.1038    3.1700 C   0  0  0  0  0  0  0  0  0  0  0  0
    8.7983    6.8536    1.9899 C   0  0  0  0  0  0  0  0  0  0  0  0
    9.2058    4.6848   -0.7129 C   0  0  0  0  0  0  0  0  0  0  0  0
   10.1556    5.3912   -1.0231 O   0  0  0  0  0  0  0  0  0  0  0  0
    8.6634    3.7474   -1.6093 N   0  0  0  0  0  0  0  0  0  0  0  0
    7.4773    3.0222   -1.1872 C   0  0  0  0  0  0  0  0  0  0  0  0
    0.9822   -1.3603   -0.1701 H   0  0  0  0  0  0  0  0  0  0  0  0
    0.6429    0.0594    0.8200 H   0  0  0  0  0  0  0  0  0  0  0  0
    1.6362   -1.2894    1.4777 H   0  0  0  0  0  0  0  0  0  0  0  0
    1.8621    0.9541    2.4880 H   0  0  0  0  0  0  0  0  0  0  0  0
    2.8516    2.7763    3.7393 H   0  0  0  0  0  0  0  0  0  0  0  0
    4.9971    1.1898   -0.4995 H   0  0  0  0  0  0  0  0  0  0  0  0
    5.9840    5.4323    4.1895 H   0  0  0  0  0  0  0  0  0  0  0  0
    2.9534    5.2495    4.1821 H   0  0  0  0  0  0  0  0  0  0  0  0
    3.9366    6.5321    3.4601 H   0  0  0  0  0  0  0  0  0  0  0  0
    3.9567    6.2932    5.2078 H   0  0  0  0  0  0  0  0  0  0  0  0
    4.2885    3.2938    5.4642 H   0  0  0  0  0  0  0  0  0  0  0  0
    5.4365    4.4095    6.2152 H   0  0  0  0  0  0  0  0  0  0  0  0
    6.0253    3.1362    5.1358 H   0  0  0  0  0  0  0  0  0  0  0  0
    5.1639    6.6035    0.6634 H   0  0  0  0  0  0  0  0  0  0  0  0
    6.7635    6.9274   -0.0028 H   0  0  0  0  0  0  0  0  0  0  0  0
    5.9474    7.7456    2.8062 H   0  0  0  0  0  0  0  0  0  0  0  0
    6.0135    8.8897    1.4584 H   0  0  0  0  0  0  0  0  0  0  0  0
    8.8339   10.0040    4.8740 H   0  0  0  0  0  0  0  0  0  0  0  0
   10.3976    9.2072    5.1516 H   0  0  0  0  0  0  0  0  0  0  0  0
    8.8395    8.4149    5.6439 H   0  0  0  0  0  0  0  0  0  0  0  0
   10.1094    6.4516    3.8234 H   0  0  0  0  0  0  0  0  0  0  0  0
    8.9804    3.7505   -2.5700 H   0  0  0  0  0  0  0  0  0  0  0  0
    7.6513    1.9462   -1.2235 H   0  0  0  0  0  0  0  0  0  0  0  0
    6.6367    3.3099   -1.8281 H   0  0  0  0  0  0  0  0  0  0  0  0
  1  2  1  0  0  0  0
  1 32  1  0  0  0  0
  1 33  1  0  0  0  0
  1 34  1  0  0  0  0
  2  3  2  0  0  0  0
  2  4  1  0  0  0  0
  4  5  1  0  0  0  0
  4  9  2  0  0  0  0
  5  6  2  0  0  0  0
  5 35  1  0  0  0  0
  6  7  1  0  0  0  0
  6 36  1  0  0  0  0
  7  8  2  0  0  0  0
  7 16  1  0  0  0  0
  8  9  1  0  0  0  0
  8 10  1  0  0  0  0
  9 37  1  0  0  0  0
 10 11  1  0  0  0  0
 10 15  2  0  0  0  0
 11 12  2  0  0  0  0
 11 31  1  0  0  0  0
 12 13  1  0  0  0  0
 12 28  1  0  0  0  0
 13 14  2  0  0  0  0
 13 27  1  0  0  0  0
 14 15  1  0  0  0  0
 14 20  1  0  0  0  0
 15 16  1  0  0  0  0
 16 17  1  0  0  0  0
 17 18  1  0  0  0  0
 17 19  1  0  0  0  0
 17 38  1  0  0  0  0
 18 39  1  0  0  0  0
 18 40  1  0  0  0  0
 18 41  1  0  0  0  0
 19 42  1  0  0  0  0
 19 43  1  0  0  0  0
 19 44  1  0  0  0  0
 20 21  1  0  0  0  0
 20 45  1  0  0  0  0
 20 46  1  0  0  0  0
 21 22  1  0  0  0  0
 21 47  1  0  0  0  0
 21 48  1  0  0  0  0
 22 23  2  0  0  0  0
 22 27  1  0  0  0  0
 23 24  1  0  0  0  0
 24 25  1  0  0  0  0
 24 26  1  0  0  0  0
 25 49  1  0  0  0  0
 25 50  1  0  0  0  0
 25 51  1  0  0  0  0
 26 27  2  0  0  0  0
 26 52  1  0  0  0  0
 28 29  2  0  0  0  0
 28 30  1  0  0  0  0
 30 31  1  0  0  0  0
 30 53  1  0  0  0  0
 31 54  1  0  0  0  0
 31 55  1  0  0  0  0
M  END
$$$$
