CHEMBL217493
 OpenBabel04072215363D

 72 76  0  0  0  0  0  0  0  0999 V2000
    2.0991    0.6062    4.7840 C   0  0  0  0  0  0  0  0  0  0  0  0
    2.4608   -0.5456    4.0308 O   0  0  0  0  0  0  0  0  0  0  0  0
    3.7837   -0.8909    4.0899 C   0  0  0  0  0  0  0  0  0  0  0  0
    4.6326   -0.6043    5.1559 C   0  0  0  0  0  0  0  0  0  0  0  0
    5.9799   -0.9571    5.0842 C   0  0  0  0  0  0  0  0  0  0  0  0
    6.4778   -1.6281    3.9624 C   0  0  0  0  0  0  0  0  0  0  0  0
    8.1960   -1.8393    3.8905 Cl  0  0  0  0  0  0  0  0  0  0  0  0
    5.6087   -2.0372    2.9318 C   0  0  0  0  0  0  0  0  0  0  0  0
    6.0054   -2.7586    1.7772 N   0  0  0  0  0  0  0  0  0  0  0  0
    6.8503   -3.8977    1.7940 C   0  0  0  0  0  0  0  0  0  0  0  0
    6.8960   -4.6050    2.9461 N   0  0  0  0  0  0  0  0  0  0  0  0
    7.6296   -5.7129    2.9515 C   0  0  0  0  0  0  0  0  0  0  0  0
    8.2678   -6.2236    1.9011 N   0  0  0  0  0  0  0  0  0  0  0  0
    8.1896   -5.5408    0.7606 C   0  0  0  0  0  0  0  0  0  0  0  0
    8.8302   -6.1055   -0.3181 C   0  0  0  0  0  0  0  0  0  0  0  0
    8.8279   -5.5084   -1.5732 C   0  0  0  0  0  0  0  0  0  0  0  0
    9.4074   -6.0324   -2.6964 O   0  0  0  0  0  0  0  0  0  0  0  0
   10.0369   -7.3084   -2.5447 C   0  0  0  0  0  0  0  0  0  0  0  0
   10.5389   -7.7881   -3.9003 C   0  0  0  0  0  0  0  0  0  0  0  0
   11.5699   -6.8249   -4.4961 C   0  0  0  0  0  0  0  0  0  0  0  0
   12.1797   -7.3223   -5.7419 N   0  0  0  0  0  0  0  0  0  0  0  0
   13.1930   -6.3626   -6.2448 C   0  0  0  0  0  0  0  0  0  0  0  0
   12.5868   -5.0962   -6.8783 C   0  0  0  0  0  0  0  0  0  0  0  0
   11.6872   -5.4258   -7.9433 O   0  0  0  0  0  0  0  0  0  0  0  0
   10.6440   -6.2913   -7.4782 C   0  0  0  0  0  0  0  0  0  0  0  0
   11.2142   -7.5667   -6.8356 C   0  0  0  0  0  0  0  0  0  0  0  0
    8.2024   -4.2772   -1.7384 C   0  0  0  0  0  0  0  0  0  0  0  0
    7.5714   -3.6565   -0.6566 C   0  0  0  0  0  0  0  0  0  0  0  0
    6.9839   -2.4144   -0.7474 O   0  0  0  0  0  0  0  0  0  0  0  0
    7.4669   -1.4809   -1.7374 C   0  0  0  0  0  0  0  0  0  0  0  0
    8.8779   -0.9850   -1.3791 C   0  0  0  0  0  0  0  0  0  0  0  0
    9.3245    0.2069   -2.2203 C   0  0  0  0  0  0  0  0  0  0  0  0
    8.3111    1.3426   -2.1564 C   0  0  0  0  0  0  0  0  0  0  0  0
    6.9386    0.8605   -2.6105 C   0  0  0  0  0  0  0  0  0  0  0  0
    6.4589   -0.3202   -1.7731 C   0  0  0  0  0  0  0  0  0  0  0  0
    7.5091   -4.3213    0.6130 C   0  0  0  0  0  0  0  0  0  0  0  0
    4.2701   -1.6139    2.9954 C   0  0  0  0  0  0  0  0  0  0  0  0
    1.0575    0.8495    4.5494 H   0  0  0  0  0  0  0  0  0  0  0  0
    2.7147    1.4699    4.5075 H   0  0  0  0  0  0  0  0  0  0  0  0
    2.1532    0.4147    5.8607 H   0  0  0  0  0  0  0  0  0  0  0  0
    4.2794   -0.1047    6.0515 H   0  0  0  0  0  0  0  0  0  0  0  0
    6.6432   -0.6955    5.9047 H   0  0  0  0  0  0  0  0  0  0  0  0
    6.2689   -2.1351    1.0166 H   0  0  0  0  0  0  0  0  0  0  0  0
    7.7073   -6.2518    3.8893 H   0  0  0  0  0  0  0  0  0  0  0  0
    9.3281   -7.0566   -0.1469 H   0  0  0  0  0  0  0  0  0  0  0  0
    9.3100   -8.0424   -2.1764 H   0  0  0  0  0  0  0  0  0  0  0  0
   10.8779   -7.2309   -1.8451 H   0  0  0  0  0  0  0  0  0  0  0  0
    9.6737   -7.8675   -4.5660 H   0  0  0  0  0  0  0  0  0  0  0  0
   10.9759   -8.7885   -3.7878 H   0  0  0  0  0  0  0  0  0  0  0  0
   12.3716   -6.7004   -3.7558 H   0  0  0  0  0  0  0  0  0  0  0  0
   11.1148   -5.8385   -4.6318 H   0  0  0  0  0  0  0  0  0  0  0  0
   13.7832   -6.8830   -7.0106 H   0  0  0  0  0  0  0  0  0  0  0  0
   13.8963   -6.0894   -5.4492 H   0  0  0  0  0  0  0  0  0  0  0  0
   13.3849   -4.4779   -7.3014 H   0  0  0  0  0  0  0  0  0  0  0  0
   12.0588   -4.4814   -6.1404 H   0  0  0  0  0  0  0  0  0  0  0  0
   10.0371   -6.5643   -8.3478 H   0  0  0  0  0  0  0  0  0  0  0  0
    9.9979   -5.7407   -6.7853 H   0  0  0  0  0  0  0  0  0  0  0  0
   11.7487   -8.1304   -7.6108 H   0  0  0  0  0  0  0  0  0  0  0  0
   10.4000   -8.2249   -6.5175 H   0  0  0  0  0  0  0  0  0  0  0  0
    8.2181   -3.8343   -2.7280 H   0  0  0  0  0  0  0  0  0  0  0  0
    7.4582   -1.9295   -2.7371 H   0  0  0  0  0  0  0  0  0  0  0  0
    9.6047   -1.7956   -1.5086 H   0  0  0  0  0  0  0  0  0  0  0  0
    8.9168   -0.7216   -0.3144 H   0  0  0  0  0  0  0  0  0  0  0  0
    9.4559   -0.1067   -3.2640 H   0  0  0  0  0  0  0  0  0  0  0  0
   10.2999    0.5628   -1.8700 H   0  0  0  0  0  0  0  0  0  0  0  0
    8.6433    2.1746   -2.7873 H   0  0  0  0  0  0  0  0  0  0  0  0
    8.2483    1.7239   -1.1295 H   0  0  0  0  0  0  0  0  0  0  0  0
    6.9852    0.5716   -3.6679 H   0  0  0  0  0  0  0  0  0  0  0  0
    6.2176    1.6843   -2.5385 H   0  0  0  0  0  0  0  0  0  0  0  0
    5.5046   -0.6856   -2.1729 H   0  0  0  0  0  0  0  0  0  0  0  0
    6.2407    0.0158   -0.7513 H   0  0  0  0  0  0  0  0  0  0  0  0
    3.5895   -1.8704    2.1861 H   0  0  0  0  0  0  0  0  0  0  0  0
  1  2  1  0  0  0  0
  1 38  1  0  0  0  0
  1 39  1  0  0  0  0
  1 40  1  0  0  0  0
  2  3  1  0  0  0  0
  3  4  1  0  0  0  0
  3 37  2  0  0  0  0
  4  5  2  0  0  0  0
  4 41  1  0  0  0  0
  5  6  1  0  0  0  0
  5 42  1  0  0  0  0
  6  7  1  0  0  0  0
  6  8  2  0  0  0  0
  8  9  1  0  0  0  0
  8 37  1  0  0  0  0
  9 10  1  0  0  0  0
  9 43  1  0  0  0  0
 10 11  1  0  0  0  0
 10 36  2  0  0  0  0
 11 12  2  0  0  0  0
 12 13  1  0  0  0  0
 12 44  1  0  0  0  0
 13 14  2  0  0  0  0
 14 15  1  0  0  0  0
 14 36  1  0  0  0  0
 15 16  2  0  0  0  0
 15 45  1  0  0  0  0
 16 17  1  0  0  0  0
 16 27  1  0  0  0  0
 17 18  1  0  0  0  0
 18 19  1  0  0  0  0
 18 46  1  0  0  0  0
 18 47  1  0  0  0  0
 19 20  1  0  0  0  0
 19 48  1  0  0  0  0
 19 49  1  0  0  0  0
 20 21  1  0  0  0  0
 20 50  1  0  0  0  0
 20 51  1  0  0  0  0
 21 22  1  0  0  0  0
 21 26  1  0  0  0  0
 22 23  1  0  0  0  0
 22 52  1  0  0  0  0
 22 53  1  0  0  0  0
 23 24  1  0  0  0  0
 23 54  1  0  0  0  0
 23 55  1  0  0  0  0
 24 25  1  0  0  0  0
 25 26  1  0  0  0  0
 25 56  1  0  0  0  0
 25 57  1  0  0  0  0
 26 58  1  0  0  0  0
 26 59  1  0  0  0  0
 27 28  2  0  0  0  0
 27 60  1  0  0  0  0
 28 29  1  0  0  0  0
 28 36  1  0  0  0  0
 29 30  1  0  0  0  0
 30 31  1  0  0  0  0
 30 35  1  0  0  0  0
 30 61  1  0  0  0  0
 31 32  1  0  0  0  0
 31 62  1  0  0  0  0
 31 63  1  0  0  0  0
 32 33  1  0  0  0  0
 32 64  1  0  0  0  0
 32 65  1  0  0  0  0
 33 34  1  0  0  0  0
 33 66  1  0  0  0  0
 33 67  1  0  0  0  0
 34 35  1  0  0  0  0
 34 68  1  0  0  0  0
 34 69  1  0  0  0  0
 35 70  1  0  0  0  0
 35 71  1  0  0  0  0
 37 72  1  0  0  0  0
M  END
$$$$
