CHEMBL246166
 OpenBabel04072215363D

 53 57  0  0  0  0  0  0  0  0999 V2000
    1.0875   -0.1485   -0.2604 C   0  0  0  0  0  0  0  0  0  0  0  0
    2.4993   -0.2890   -0.3570 O   0  0  0  0  0  0  0  0  0  0  0  0
    3.1076    0.4952   -1.2724 C   0  0  0  0  0  0  0  0  0  0  0  0
    2.5990    1.3047   -2.0289 O   0  0  0  0  0  0  0  0  0  0  0  0
    4.6290    0.2427   -1.2397 C   0  0  0  0  0  0  0  0  0  0  0  0
    5.0750   -0.5990   -0.4722 O   0  0  0  0  0  0  0  0  0  0  0  0
    5.3496    1.0757   -2.0898 N   0  0  0  0  0  0  0  0  0  0  0  0
    6.7567    1.0701   -2.2188 C   0  0  0  0  0  0  0  0  0  0  0  0
    7.5393   -0.0161   -1.7835 C   0  0  0  0  0  0  0  0  0  0  0  0
    8.9445   -0.0098   -1.8550 C   0  0  0  0  0  0  0  0  0  0  0  0
    9.6236    1.0858   -2.3728 C   0  0  0  0  0  0  0  0  0  0  0  0
    8.8533    2.1351   -2.8220 C   0  0  0  0  0  0  0  0  0  0  0  0
    7.4263    2.1530   -2.7727 C   0  0  0  0  0  0  0  0  0  0  0  0
    6.8407    3.4660   -3.3206 C   0  0  0  0  0  0  0  0  0  0  0  0
    8.1218    4.1463   -3.6646 C   0  0  0  0  0  0  0  0  0  0  0  0
    9.2547    3.3780   -3.3775 C   0  0  0  0  0  0  0  0  0  0  0  0
   10.4042    3.9589   -3.6847 N   0  0  0  0  0  0  0  0  0  0  0  0
    9.9855    5.1432   -4.1982 N   0  0  0  0  0  0  0  0  0  0  0  0
    8.6130    5.3031   -4.2101 C   0  0  0  0  0  0  0  0  0  0  0  0
    7.8699    6.4870   -4.7101 C   0  0  0  0  0  0  0  0  0  0  0  0
    8.4890    7.5646   -5.3069 C   0  0  0  0  0  0  0  0  0  0  0  0
    7.3741    8.7855   -5.7508 S   0  0  0  0  0  0  0  0  0  0  0  0
    6.0636    7.8974   -5.1156 C   0  0  0  0  0  0  0  0  0  0  0  0
    4.7305    8.3971   -5.0827 C   0  0  0  0  0  0  0  0  0  0  0  0
    3.6262    8.8587   -5.0586 C   0  0  0  0  0  0  0  0  0  0  0  0
    2.2950    9.4677   -5.1105 C   0  0  0  0  0  0  0  0  0  0  0  0
    1.4234    8.8228   -4.1797 O   0  0  0  0  0  0  0  0  0  0  0  0
    0.1510    9.3343   -4.1478 C   0  0  0  0  0  0  0  0  0  0  0  0
   -0.4909    9.9310   -5.2359 C   0  0  0  0  0  0  0  0  0  0  0  0
   -1.7837   10.4383   -5.1016 C   0  0  0  0  0  0  0  0  0  0  0  0
   -2.4502   10.3341   -3.8846 C   0  0  0  0  0  0  0  0  0  0  0  0
   -1.8297    9.7073   -2.8048 C   0  0  0  0  0  0  0  0  0  0  0  0
   -0.5331    9.2032   -2.9377 C   0  0  0  0  0  0  0  0  0  0  0  0
    6.4572    6.6695   -4.6320 C   0  0  0  0  0  0  0  0  0  0  0  0
    0.7423   -0.7985    0.5511 H   0  0  0  0  0  0  0  0  0  0  0  0
    0.6094   -0.4706   -1.1907 H   0  0  0  0  0  0  0  0  0  0  0  0
    0.8170    0.8824   -0.0164 H   0  0  0  0  0  0  0  0  0  0  0  0
    4.8144    1.7996   -2.5596 H   0  0  0  0  0  0  0  0  0  0  0  0
    7.0837   -0.9167   -1.3841 H   0  0  0  0  0  0  0  0  0  0  0  0
    9.4983   -0.8720   -1.4925 H   0  0  0  0  0  0  0  0  0  0  0  0
   10.7047    1.1162   -2.4187 H   0  0  0  0  0  0  0  0  0  0  0  0
    6.2884    4.0015   -2.5444 H   0  0  0  0  0  0  0  0  0  0  0  0
    6.2321    3.2841   -4.2101 H   0  0  0  0  0  0  0  0  0  0  0  0
   10.6893    5.7972   -4.5195 H   0  0  0  0  0  0  0  0  0  0  0  0
    9.5381    7.7175   -5.5146 H   0  0  0  0  0  0  0  0  0  0  0  0
    1.9272    9.3495   -6.1349 H   0  0  0  0  0  0  0  0  0  0  0  0
    2.3701   10.5346   -4.8679 H   0  0  0  0  0  0  0  0  0  0  0  0
   -0.0247   10.0048   -6.2115 H   0  0  0  0  0  0  0  0  0  0  0  0
   -2.2680   10.9089   -5.9531 H   0  0  0  0  0  0  0  0  0  0  0  0
   -3.4552   10.7335   -3.7823 H   0  0  0  0  0  0  0  0  0  0  0  0
   -2.3560    9.6124   -1.8587 H   0  0  0  0  0  0  0  0  0  0  0  0
   -0.0542    8.7190   -2.0904 H   0  0  0  0  0  0  0  0  0  0  0  0
    5.7590    5.9614   -4.2052 H   0  0  0  0  0  0  0  0  0  0  0  0
  1  2  1  0  0  0  0
  1 35  1  0  0  0  0
  1 36  1  0  0  0  0
  1 37  1  0  0  0  0
  2  3  1  0  0  0  0
  3  4  2  0  0  0  0
  3  5  1  0  0  0  0
  5  6  2  0  0  0  0
  5  7  1  0  0  0  0
  7  8  1  0  0  0  0
  7 38  1  0  0  0  0
  8  9  1  0  0  0  0
  8 13  2  0  0  0  0
  9 10  2  0  0  0  0
  9 39  1  0  0  0  0
 10 11  1  0  0  0  0
 10 40  1  0  0  0  0
 11 12  2  0  0  0  0
 11 41  1  0  0  0  0
 12 13  1  0  0  0  0
 12 16  1  0  0  0  0
 13 14  1  0  0  0  0
 14 15  1  0  0  0  0
 14 42  1  0  0  0  0
 14 43  1  0  0  0  0
 15 16  1  0  0  0  0
 15 19  2  0  0  0  0
 16 17  2  0  0  0  0
 17 18  1  0  0  0  0
 18 19  1  0  0  0  0
 18 44  1  0  0  0  0
 19 20  1  0  0  0  0
 20 21  2  0  0  0  0
 20 34  1  0  0  0  0
 21 22  1  0  0  0  0
 21 45  1  0  0  0  0
 22 23  1  0  0  0  0
 23 24  1  0  0  0  0
 23 34  2  0  0  0  0
 24 25  3  0  0  0  0
 25 26  1  0  0  0  0
 26 27  1  0  0  0  0
 26 46  1  0  0  0  0
 26 47  1  0  0  0  0
 27 28  1  0  0  0  0
 28 29  1  0  0  0  0
 28 33  2  0  0  0  0
 29 30  2  0  0  0  0
 29 48  1  0  0  0  0
 30 31  1  0  0  0  0
 30 49  1  0  0  0  0
 31 32  2  0  0  0  0
 31 50  1  0  0  0  0
 32 33  1  0  0  0  0
 32 51  1  0  0  0  0
 33 52  1  0  0  0  0
 34 53  1  0  0  0  0
M  END
$$$$
