CHEMBL3985750
 OpenBabel04072215373D

 67 71  0  0  0  0  0  0  0  0999 V2000
    3.2854   -7.4712   -0.8582 C   0  0  0  0  0  0  0  0  0  0  0  0
    3.5023   -6.0621   -0.8334 O   0  0  0  0  0  0  0  0  0  0  0  0
    4.7929   -5.6594   -1.0557 C   0  0  0  0  0  0  0  0  0  0  0  0
    5.9243   -6.3877   -0.7364 C   0  0  0  0  0  0  0  0  0  0  0  0
    7.1833   -5.8381   -0.9884 C   0  0  0  0  0  0  0  0  0  0  0  0
    8.3647   -6.4362   -0.6294 O   0  0  0  0  0  0  0  0  0  0  0  0
    8.2768   -7.3972    0.4211 C   0  0  0  0  0  0  0  0  0  0  0  0
    7.3045   -4.6227   -1.6934 C   0  0  0  0  0  0  0  0  0  0  0  0
    6.1794   -3.9118   -2.1237 C   0  0  0  0  0  0  0  0  0  0  0  0
    6.2735   -2.7604   -2.9471 N   0  0  0  0  0  0  0  0  0  0  0  0
    4.9782   -2.1241   -3.3704 C   0  0  0  0  0  0  0  0  0  0  0  0
    4.3806   -2.8259   -4.5649 C   0  0  0  0  0  0  0  0  0  0  0  0
    3.1587   -2.2301   -5.2287 C   0  0  0  0  0  0  0  0  0  0  0  0
    3.0450   -3.5318   -4.4936 C   0  0  0  0  0  0  0  0  0  0  0  0
    7.3753   -2.1327   -3.6263 C   0  0  0  0  0  0  0  0  0  0  0  0
    7.4457   -0.7437   -3.4669 C   0  0  0  0  0  0  0  0  0  0  0  0
    7.9853    0.0330   -4.4689 C   0  0  0  0  0  0  0  0  0  0  0  0
    8.6486   -0.5219   -5.5376 C   0  0  0  0  0  0  0  0  0  0  0  0
    8.9506    0.3634   -6.4886 N   0  0  0  0  0  0  0  0  0  0  0  0
    9.7908   -0.0473   -7.4419 C   0  0  0  0  0  0  0  0  0  0  0  0
   10.3976   -1.2853   -7.4071 C   0  0  0  0  0  0  0  0  0  0  0  0
   11.6525   -1.3667   -8.1704 C   0  0  0  0  0  0  0  0  0  0  0  0
   12.0269   -2.0434   -9.3515 C   0  0  0  0  0  0  0  0  0  0  0  0
   13.2212   -1.6561   -9.8305 N   0  0  0  0  0  0  0  0  0  0  0  0
   13.6304   -0.6919   -8.9714 N   0  0  0  0  0  0  0  0  0  0  0  0
   15.0348   -0.2708   -8.9987 C   0  0  0  0  0  0  0  0  0  0  0  0
   15.3222    1.2145   -8.8043 C   0  0  0  0  0  0  0  0  0  0  0  0
   14.5222    2.0267   -8.3705 O   0  0  0  0  0  0  0  0  0  0  0  0
   16.6440    1.5691   -9.1009 N   0  0  0  0  0  0  0  0  0  0  0  0
   17.1107    2.9563   -9.0165 C   0  0  0  0  0  0  0  0  0  0  0  0
   17.3241    3.4408   -7.5804 C   0  0  0  0  0  0  0  0  0  0  0  0
   18.3824    2.7066   -6.9670 O   0  0  0  0  0  0  0  0  0  0  0  0
   12.6816   -0.4372   -8.0147 C   0  0  0  0  0  0  0  0  0  0  0  0
    9.9551   -2.2594   -6.5272 N   0  0  0  0  0  0  0  0  0  0  0  0
    8.9874   -1.8929   -5.5705 C   0  0  0  0  0  0  0  0  0  0  0  0
    8.2420   -2.7031   -4.6072 C   0  0  0  0  0  0  0  0  0  0  0  0
    4.9370   -4.4079   -1.6602 C   0  0  0  0  0  0  0  0  0  0  0  0
    2.2273   -7.6471   -1.0779 H   0  0  0  0  0  0  0  0  0  0  0  0
    3.5044   -7.9038    0.1226 H   0  0  0  0  0  0  0  0  0  0  0  0
    3.8676   -7.9684   -1.6427 H   0  0  0  0  0  0  0  0  0  0  0  0
    5.8210   -7.3657   -0.2868 H   0  0  0  0  0  0  0  0  0  0  0  0
    9.2934   -7.7003    0.6864 H   0  0  0  0  0  0  0  0  0  0  0  0
    7.7438   -8.2971    0.0957 H   0  0  0  0  0  0  0  0  0  0  0  0
    7.8094   -6.9678    1.3150 H   0  0  0  0  0  0  0  0  0  0  0  0
    8.2986   -4.2330   -1.8899 H   0  0  0  0  0  0  0  0  0  0  0  0
    5.0983   -1.0851   -3.6696 H   0  0  0  0  0  0  0  0  0  0  0  0
    4.2712   -2.0481   -2.5375 H   0  0  0  0  0  0  0  0  0  0  0  0
    5.1376   -3.2249   -5.2306 H   0  0  0  0  0  0  0  0  0  0  0  0
    3.1073   -2.2530   -6.3122 H   0  0  0  0  0  0  0  0  0  0  0  0
    2.7053   -1.3508   -4.7858 H   0  0  0  0  0  0  0  0  0  0  0  0
    2.9210   -4.4346   -5.0810 H   0  0  0  0  0  0  0  0  0  0  0  0
    2.4978   -3.5355   -3.5596 H   0  0  0  0  0  0  0  0  0  0  0  0
    6.9098   -0.2557   -2.6599 H   0  0  0  0  0  0  0  0  0  0  0  0
    7.8568    1.1129   -4.4299 H   0  0  0  0  0  0  0  0  0  0  0  0
   10.0377    0.6973   -8.1900 H   0  0  0  0  0  0  0  0  0  0  0  0
   11.4697   -2.7809   -9.9157 H   0  0  0  0  0  0  0  0  0  0  0  0
   15.4564   -0.5890   -9.9595 H   0  0  0  0  0  0  0  0  0  0  0  0
   15.5273   -0.8270   -8.1935 H   0  0  0  0  0  0  0  0  0  0  0  0
   17.2264    0.9290   -9.6288 H   0  0  0  0  0  0  0  0  0  0  0  0
   16.3871    3.5987   -9.5277 H   0  0  0  0  0  0  0  0  0  0  0  0
   18.0637    2.9992   -9.5584 H   0  0  0  0  0  0  0  0  0  0  0  0
   16.4247    3.3334   -6.9682 H   0  0  0  0  0  0  0  0  0  0  0  0
   17.6169    4.4965   -7.5778 H   0  0  0  0  0  0  0  0  0  0  0  0
   18.0720    1.7869   -6.9054 H   0  0  0  0  0  0  0  0  0  0  0  0
   12.8067    0.3810   -7.3160 H   0  0  0  0  0  0  0  0  0  0  0  0
    8.3036   -3.7884   -4.6886 H   0  0  0  0  0  0  0  0  0  0  0  0
    4.0117   -3.8571   -1.7862 H   0  0  0  0  0  0  0  0  0  0  0  0
  1  2  1  0  0  0  0
  1 38  1  0  0  0  0
  1 39  1  0  0  0  0
  1 40  1  0  0  0  0
  2  3  1  0  0  0  0
  3  4  1  0  0  0  0
  3 37  2  0  0  0  0
  4  5  2  0  0  0  0
  4 41  1  0  0  0  0
  5  6  1  0  0  0  0
  5  8  1  0  0  0  0
  6  7  1  0  0  0  0
  7 42  1  0  0  0  0
  7 43  1  0  0  0  0
  7 44  1  0  0  0  0
  8  9  2  0  0  0  0
  8 45  1  0  0  0  0
  9 10  1  0  0  0  0
  9 37  1  0  0  0  0
 10 11  1  0  0  0  0
 10 15  1  0  0  0  0
 11 12  1  0  0  0  0
 11 46  1  0  0  0  0
 11 47  1  0  0  0  0
 12 13  1  0  0  0  0
 12 14  1  0  0  0  0
 12 48  1  0  0  0  0
 13 14  1  0  0  0  0
 13 49  1  0  0  0  0
 13 50  1  0  0  0  0
 14 51  1  0  0  0  0
 14 52  1  0  0  0  0
 15 16  1  0  0  0  0
 15 36  2  0  0  0  0
 16 17  2  0  0  0  0
 16 53  1  0  0  0  0
 17 18  1  0  0  0  0
 17 54  1  0  0  0  0
 18 19  1  0  0  0  0
 18 35  2  0  0  0  0
 19 20  2  0  0  0  0
 20 21  1  0  0  0  0
 20 55  1  0  0  0  0
 21 22  1  0  0  0  0
 21 34  2  0  0  0  0
 22 23  1  0  0  0  0
 22 33  2  0  0  0  0
 23 24  2  0  0  0  0
 23 56  1  0  0  0  0
 24 25  1  0  0  0  0
 25 26  1  0  0  0  0
 25 33  1  0  0  0  0
 26 27  1  0  0  0  0
 26 57  1  0  0  0  0
 26 58  1  0  0  0  0
 27 28  2  0  0  0  0
 27 29  1  0  0  0  0
 29 30  1  0  0  0  0
 29 59  1  0  0  0  0
 30 31  1  0  0  0  0
 30 60  1  0  0  0  0
 30 61  1  0  0  0  0
 31 32  1  0  0  0  0
 31 62  1  0  0  0  0
 31 63  1  0  0  0  0
 32 64  1  0  0  0  0
 33 65  1  0  0  0  0
 34 35  1  0  0  0  0
 35 36  1  0  0  0  0
 36 66  1  0  0  0  0
 37 67  1  0  0  0  0
M  END
$$$$
