CHEMBL271795
 OpenBabel04072215363D

 45 48  0  0  0  0  0  0  0  0999 V2000
    2.8681    0.9565   -2.3489 C   0  0  0  0  0  0  0  0  0  0  0  0
    1.4624    0.6527   -1.9187 C   0  0  0  0  0  0  0  0  0  0  0  0
    0.9839   -0.6582   -2.0099 C   0  0  0  0  0  0  0  0  0  0  0  0
   -0.2999   -0.9563   -1.5763 C   0  0  0  0  0  0  0  0  0  0  0  0
   -1.1217    0.0481   -1.0626 C   0  0  0  0  0  0  0  0  0  0  0  0
   -2.2824   -0.3629   -0.5437 F   0  0  0  0  0  0  0  0  0  0  0  0
   -0.6994    1.3829   -1.0088 C   0  0  0  0  0  0  0  0  0  0  0  0
   -1.5146    2.4720   -0.5759 N   0  0  0  0  0  0  0  0  0  0  0  0
   -2.8925    2.4561   -0.4782 C   0  0  0  0  0  0  0  0  0  0  0  0
   -3.6222    1.5223   -0.7806 O   0  0  0  0  0  0  0  0  0  0  0  0
   -3.4160    3.6862   -0.0759 N   0  0  0  0  0  0  0  0  0  0  0  0
   -4.8151    3.8179    0.1041 C   0  0  0  0  0  0  0  0  0  0  0  0
   -5.5364    2.9209    0.8918 C   0  0  0  0  0  0  0  0  0  0  0  0
   -6.9359    2.9963    0.9631 C   0  0  0  0  0  0  0  0  0  0  0  0
   -7.6565    3.9764    0.2593 C   0  0  0  0  0  0  0  0  0  0  0  0
   -9.1441    4.0278    0.2910 C   0  0  0  0  0  0  0  0  0  0  0  0
   -9.8493    3.6983    1.4779 C   0  0  0  0  0  0  0  0  0  0  0  0
  -11.2270    3.8442    1.5971 C   0  0  0  0  0  0  0  0  0  0  0  0
  -11.9637    4.3831    0.5525 C   0  0  0  0  0  0  0  0  0  0  0  0
  -11.2954    4.6723   -0.6475 C   0  0  0  0  0  0  0  0  0  0  0  0
  -11.9589    5.3528   -2.0785 S   0  0  0  0  0  0  0  0  0  0  0  0
  -10.6052    5.2032   -2.9960 N   0  0  0  0  0  0  0  0  0  0  0  0
   -9.6382    4.6668   -2.2628 C   0  0  0  0  0  0  0  0  0  0  0  0
   -8.4657    4.3394   -2.8440 N   0  0  0  0  0  0  0  0  0  0  0  0
   -9.9239    4.4446   -0.8453 C   0  0  0  0  0  0  0  0  0  0  0  0
   -6.8899    4.9265   -0.4450 C   0  0  0  0  0  0  0  0  0  0  0  0
   -5.4924    4.8405   -0.5465 C   0  0  0  0  0  0  0  0  0  0  0  0
    0.6117    1.6710   -1.4195 C   0  0  0  0  0  0  0  0  0  0  0  0
    3.3829    0.0493   -2.6912 H   0  0  0  0  0  0  0  0  0  0  0  0
    3.4427    1.3616   -1.5110 H   0  0  0  0  0  0  0  0  0  0  0  0
    2.8709    1.6700   -3.1783 H   0  0  0  0  0  0  0  0  0  0  0  0
    1.6100   -1.4567   -2.3974 H   0  0  0  0  0  0  0  0  0  0  0  0
   -0.6769   -1.9739   -1.6107 H   0  0  0  0  0  0  0  0  0  0  0  0
   -1.0616    3.3668   -0.4408 H   0  0  0  0  0  0  0  0  0  0  0  0
   -2.9512    4.4793   -0.4868 H   0  0  0  0  0  0  0  0  0  0  0  0
   -5.0214    2.1370    1.4432 H   0  0  0  0  0  0  0  0  0  0  0  0
   -7.4488    2.2526    1.5684 H   0  0  0  0  0  0  0  0  0  0  0  0
   -9.3085    3.3350    2.3510 H   0  0  0  0  0  0  0  0  0  0  0  0
  -11.7250    3.5680    2.5237 H   0  0  0  0  0  0  0  0  0  0  0  0
  -13.0321    4.5542    0.6542 H   0  0  0  0  0  0  0  0  0  0  0  0
   -8.4064    4.3888   -3.8544 H   0  0  0  0  0  0  0  0  0  0  0  0
   -7.8535    3.6442   -2.4273 H   0  0  0  0  0  0  0  0  0  0  0  0
   -7.3812    5.7360   -0.9842 H   0  0  0  0  0  0  0  0  0  0  0  0
   -4.9729    5.5365   -1.1984 H   0  0  0  0  0  0  0  0  0  0  0  0
    0.9967    2.6872   -1.3798 H   0  0  0  0  0  0  0  0  0  0  0  0
  1  2  1  0  0  0  0
  1 29  1  0  0  0  0
  1 30  1  0  0  0  0
  1 31  1  0  0  0  0
  2  3  1  0  0  0  0
  2 28  2  0  0  0  0
  3  4  2  0  0  0  0
  3 32  1  0  0  0  0
  4  5  1  0  0  0  0
  4 33  1  0  0  0  0
  5  6  1  0  0  0  0
  5  7  2  0  0  0  0
  7  8  1  0  0  0  0
  7 28  1  0  0  0  0
  8  9  1  0  0  0  0
  8 34  1  0  0  0  0
  9 10  2  0  0  0  0
  9 11  1  0  0  0  0
 11 12  1  0  0  0  0
 11 35  1  0  0  0  0
 12 13  1  0  0  0  0
 12 27  2  0  0  0  0
 13 14  2  0  0  0  0
 13 36  1  0  0  0  0
 14 15  1  0  0  0  0
 14 37  1  0  0  0  0
 15 16  1  0  0  0  0
 15 26  2  0  0  0  0
 16 17  1  0  0  0  0
 16 25  2  0  0  0  0
 17 18  2  0  0  0  0
 17 38  1  0  0  0  0
 18 19  1  0  0  0  0
 18 39  1  0  0  0  0
 19 20  2  0  0  0  0
 19 40  1  0  0  0  0
 20 21  1  0  0  0  0
 20 25  1  0  0  0  0
 21 22  1  0  0  0  0
 22 23  2  0  0  0  0
 23 24  1  0  0  0  0
 23 25  1  0  0  0  0
 24 41  1  0  0  0  0
 24 42  1  0  0  0  0
 26 27  1  0  0  0  0
 26 43  1  0  0  0  0
 27 44  1  0  0  0  0
 28 45  1  0  0  0  0
M  END
$$$$
