CHEMBL3951171
 OpenBabel04072215373D

 95 98  0  0  0  0  0  0  0  0999 V2000
    6.8136   -6.5339    5.0658 C   0  0  0  0  0  0  0  0  0  0  0  0
    7.0624   -5.8359    3.8955 O   0  0  0  0  0  0  0  0  0  0  0  0
    6.1517   -5.5581    2.9208 C   0  0  0  0  0  0  0  0  0  0  0  0
    4.7892   -5.8885    3.0710 C   0  0  0  0  0  0  0  0  0  0  0  0
    3.8684   -5.5813    2.0648 C   0  0  0  0  0  0  0  0  0  0  0  0
    2.5387   -5.8682    2.1721 O   0  0  0  0  0  0  0  0  0  0  0  0
    1.9109   -6.4879    3.2328 C   0  0  0  0  0  0  0  0  0  0  0  0
    4.3298   -4.9393    0.8998 C   0  0  0  0  0  0  0  0  0  0  0  0
    5.6869   -4.5706    0.7086 C   0  0  0  0  0  0  0  0  0  0  0  0
    6.0528   -3.7401   -0.4262 N   0  0  0  0  0  0  0  0  0  0  0  0
    5.1730   -2.5489   -0.7086 C   0  0  0  0  0  0  0  0  0  0  0  0
    3.9572   -1.9975    0.0925 C   0  0  0  0  0  0  0  0  0  0  0  0
    4.3137   -1.2885    1.3380 N   0  0  0  0  0  0  0  0  0  0  0  0
    3.1275   -0.6529    1.9618 C   0  0  0  0  0  0  0  0  0  0  0  0
    2.1073   -1.7097    2.4096 C   0  0  0  0  0  0  0  0  0  0  0  0
    3.5540    0.1753    3.1827 C   0  0  0  0  0  0  0  0  0  0  0  0
    7.1196   -3.9556   -1.4795 C   0  0  0  0  0  0  0  0  0  0  0  0
    7.3269   -2.8258   -2.2955 C   0  0  0  0  0  0  0  0  0  0  0  0
    8.0218   -2.8011   -3.4282 C   0  0  0  0  0  0  0  0  0  0  0  0
    8.6611   -3.8716   -3.8789 C   0  0  0  0  0  0  0  0  0  0  0  0
    9.1818   -3.6956   -5.0808 N   0  0  0  0  0  0  0  0  0  0  0  0
    9.9186   -4.5977   -5.6796 C   0  0  0  0  0  0  0  0  0  0  0  0
   10.2974   -5.7597   -5.0355 C   0  0  0  0  0  0  0  0  0  0  0  0
   11.4433   -6.4544   -5.8540 C   0  0  0  0  0  0  0  0  0  0  0  0
   12.0403   -7.7118   -5.8097 C   0  0  0  0  0  0  0  0  0  0  0  0
   13.0796   -7.7646   -6.6978 N   0  0  0  0  0  0  0  0  0  0  0  0
   13.2063   -6.5914   -7.3121 N   0  0  0  0  0  0  0  0  0  0  0  0
   14.3307   -6.2407   -8.2642 C   0  0  0  0  0  0  0  0  0  0  0  0
   15.6759   -6.3746   -7.4593 C   0  0  0  0  0  0  0  0  0  0  0  0
   17.2178   -6.3170   -7.8454 C   0  0  0  0  0  0  0  0  0  0  0  0
   17.7703   -5.0315   -8.3628 N   0  0  0  0  0  0  0  0  0  0  0  0
   17.6150   -4.9175   -9.8215 C   0  0  0  0  0  0  0  0  0  0  0  0
   18.6533   -5.7830  -10.5918 C   0  0  0  0  0  0  0  0  0  0  0  0
   20.0425   -5.3901  -10.2835 N   0  0  0  0  0  0  0  0  0  0  0  0
   20.3888   -4.0937  -10.9258 C   0  0  0  0  0  0  0  0  0  0  0  0
   21.8722   -3.6982  -10.8382 C   0  0  0  0  0  0  0  0  0  0  0  0
   22.8176   -4.7355  -11.4540 C   0  0  0  0  0  0  0  0  0  0  0  0
   24.1494   -4.3066  -11.3453 O   0  0  0  0  0  0  0  0  0  0  0  0
   20.2630   -5.5037   -8.8246 C   0  0  0  0  0  0  0  0  0  0  0  0
   19.1985   -4.7378   -7.9891 C   0  0  0  0  0  0  0  0  0  0  0  0
   12.2288   -5.7848   -6.8544 C   0  0  0  0  0  0  0  0  0  0  0  0
    9.6417   -6.0572   -3.7609 N   0  0  0  0  0  0  0  0  0  0  0  0
    8.7771   -5.0848   -3.1644 C   0  0  0  0  0  0  0  0  0  0  0  0
    7.9449   -5.1435   -1.8971 C   0  0  0  0  0  0  0  0  0  0  0  0
    6.5952   -4.9001    1.7362 C   0  0  0  0  0  0  0  0  0  0  0  0
    2.1744    2.3322   -1.0427 Cl  0  0  0  0  0  0  0  0  0  0  0  0
    7.7451   -6.5852    5.6657 H   0  0  0  0  0  0  0  0  0  0  0  0
    6.4898   -7.5706    4.8307 H   0  0  0  0  0  0  0  0  0  0  0  0
    6.0353   -6.0278    5.6787 H   0  0  0  0  0  0  0  0  0  0  0  0
    4.4411   -6.3778    3.9748 H   0  0  0  0  0  0  0  0  0  0  0  0
    0.8264   -6.5803    3.0262 H   0  0  0  0  0  0  0  0  0  0  0  0
    2.0315   -5.8911    4.1697 H   0  0  0  0  0  0  0  0  0  0  0  0
    2.3257   -7.5091    3.3855 H   0  0  0  0  0  0  0  0  0  0  0  0
    3.5922   -4.7287    0.1467 H   0  0  0  0  0  0  0  0  0  0  0  0
    4.7524   -2.7129   -1.7268 H   0  0  0  0  0  0  0  0  0  0  0  0
    5.7734   -1.6242   -0.6510 H   0  0  0  0  0  0  0  0  0  0  0  0
    3.1734   -2.7368    0.2272 H   0  0  0  0  0  0  0  0  0  0  0  0
    3.4915   -1.2311   -0.5804 H   0  0  0  0  0  0  0  0  0  0  0  0
    4.9625   -0.5023    1.0782 H   0  0  0  0  0  0  0  0  0  0  0  0
    2.6315    0.0506    1.2498 H   0  0  0  0  0  0  0  0  0  0  0  0
    2.6096   -2.4616    3.0538 H   0  0  0  0  0  0  0  0  0  0  0  0
    1.6383   -2.2198    1.5465 H   0  0  0  0  0  0  0  0  0  0  0  0
    1.2722   -1.2356    2.9619 H   0  0  0  0  0  0  0  0  0  0  0  0
    4.0807   -0.4648    3.9206 H   0  0  0  0  0  0  0  0  0  0  0  0
    2.6592    0.6225    3.6708 H   0  0  0  0  0  0  0  0  0  0  0  0
    4.2226    1.0099    2.8811 H   0  0  0  0  0  0  0  0  0  0  0  0
    6.9268   -1.8484   -2.1658 H   0  0  0  0  0  0  0  0  0  0  0  0
    8.0431   -1.8882   -4.0050 H   0  0  0  0  0  0  0  0  0  0  0  0
   10.2433   -4.3187   -6.6546 H   0  0  0  0  0  0  0  0  0  0  0  0
   11.7635   -8.5337   -5.1754 H   0  0  0  0  0  0  0  0  0  0  0  0
   14.2111   -5.1978   -8.6511 H   0  0  0  0  0  0  0  0  0  0  0  0
   14.2994   -6.9121   -9.1538 H   0  0  0  0  0  0  0  0  0  0  0  0
   15.5973   -7.4122   -7.0794 H   0  0  0  0  0  0  0  0  0  0  0  0
   15.5482   -5.6585   -6.6289 H   0  0  0  0  0  0  0  0  0  0  0  0
   17.5092   -7.1721   -8.4815 H   0  0  0  0  0  0  0  0  0  0  0  0
   17.7072   -6.5153   -6.8643 H   0  0  0  0  0  0  0  0  0  0  0  0
   17.7270   -3.8511  -10.1063 H   0  0  0  0  0  0  0  0  0  0  0  0
   16.5867   -5.2097  -10.1096 H   0  0  0  0  0  0  0  0  0  0  0  0
   18.4672   -5.7080  -11.6820 H   0  0  0  0  0  0  0  0  0  0  0  0
   18.5305   -6.8570  -10.3445 H   0  0  0  0  0  0  0  0  0  0  0  0
   19.7956   -3.2610  -10.5025 H   0  0  0  0  0  0  0  0  0  0  0  0
   20.1503   -4.1657  -12.0121 H   0  0  0  0  0  0  0  0  0  0  0  0
   22.1606   -3.5032   -9.7867 H   0  0  0  0  0  0  0  0  0  0  0  0
   21.9932   -2.7430  -11.3990 H   0  0  0  0  0  0  0  0  0  0  0  0
   22.5697   -4.9247  -12.5228 H   0  0  0  0  0  0  0  0  0  0  0  0
   22.7182   -5.6945  -10.9049 H   0  0  0  0  0  0  0  0  0  0  0  0
   24.2287   -3.4672  -11.8711 H   0  0  0  0  0  0  0  0  0  0  0  0
   21.2905   -5.1701   -8.5538 H   0  0  0  0  0  0  0  0  0  0  0  0
   20.2292   -6.5811   -8.5520 H   0  0  0  0  0  0  0  0  0  0  0  0
   19.3905   -3.6541   -8.1418 H   0  0  0  0  0  0  0  0  0  0  0  0
   19.3859   -4.9306   -6.9079 H   0  0  0  0  0  0  0  0  0  0  0  0
   12.1489   -4.7611   -7.1967 H   0  0  0  0  0  0  0  0  0  0  0  0
    7.8892   -6.0638   -1.3185 H   0  0  0  0  0  0  0  0  0  0  0  0
    7.6252   -4.6027    1.6620 H   0  0  0  0  0  0  0  0  0  0  0  0
    1.7524    1.1275   -1.5551 H   0  0  0  0  0  0  0  0  0  0  0  0
  1  2  1  0  0  0  0
  1 47  1  0  0  0  0
  1 48  1  0  0  0  0
  1 49  1  0  0  0  0
  2  3  1  0  0  0  0
  3  4  1  0  0  0  0
  3 45  2  0  0  0  0
  4  5  2  0  0  0  0
  4 50  1  0  0  0  0
  5  6  1  0  0  0  0
  5  8  1  0  0  0  0
  6  7  1  0  0  0  0
  7 51  1  0  0  0  0
  7 52  1  0  0  0  0
  7 53  1  0  0  0  0
  8  9  2  0  0  0  0
  8 54  1  0  0  0  0
  9 10  1  0  0  0  0
  9 45  1  0  0  0  0
 10 11  1  0  0  0  0
 10 17  1  0  0  0  0
 11 12  1  0  0  0  0
 11 55  1  0  0  0  0
 11 56  1  0  0  0  0
 12 13  1  0  0  0  0
 12 57  1  0  0  0  0
 12 58  1  0  0  0  0
 13 14  1  0  0  0  0
 13 59  1  0  0  0  0
 14 15  1  0  0  0  0
 14 16  1  0  0  0  0
 14 60  1  0  0  0  0
 15 61  1  0  0  0  0
 15 62  1  0  0  0  0
 15 63  1  0  0  0  0
 16 64  1  0  0  0  0
 16 65  1  0  0  0  0
 16 66  1  0  0  0  0
 17 18  1  0  0  0  0
 17 44  2  0  0  0  0
 18 19  2  0  0  0  0
 18 67  1  0  0  0  0
 19 20  1  0  0  0  0
 19 68  1  0  0  0  0
 20 21  1  0  0  0  0
 20 43  2  0  0  0  0
 21 22  2  0  0  0  0
 22 23  1  0  0  0  0
 22 69  1  0  0  0  0
 23 24  1  0  0  0  0
 23 42  2  0  0  0  0
 24 25  1  0  0  0  0
 24 41  2  0  0  0  0
 25 26  2  0  0  0  0
 25 70  1  0  0  0  0
 26 27  1  0  0  0  0
 27 28  1  0  0  0  0
 27 41  1  0  0  0  0
 28 29  1  0  0  0  0
 28 71  1  0  0  0  0
 28 72  1  0  0  0  0
 29 30  1  0  0  0  0
 29 73  1  0  0  0  0
 29 74  1  0  0  0  0
 30 31  1  0  0  0  0
 30 75  1  0  0  0  0
 30 76  1  0  0  0  0
 31 32  1  0  0  0  0
 31 40  1  0  0  0  0
 32 33  1  0  0  0  0
 32 77  1  0  0  0  0
 32 78  1  0  0  0  0
 33 34  1  0  0  0  0
 33 79  1  0  0  0  0
 33 80  1  0  0  0  0
 34 35  1  0  0  0  0
 34 39  1  0  0  0  0
 35 36  1  0  0  0  0
 35 81  1  0  0  0  0
 35 82  1  0  0  0  0
 36 37  1  0  0  0  0
 36 83  1  0  0  0  0
 36 84  1  0  0  0  0
 37 38  1  0  0  0  0
 37 85  1  0  0  0  0
 37 86  1  0  0  0  0
 38 87  1  0  0  0  0
 39 40  1  0  0  0  0
 39 88  1  0  0  0  0
 39 89  1  0  0  0  0
 40 90  1  0  0  0  0
 40 91  1  0  0  0  0
 41 92  1  0  0  0  0
 42 43  1  0  0  0  0
 43 44  1  0  0  0  0
 44 93  1  0  0  0  0
 45 94  1  0  0  0  0
 46 95  1  0  0  0  0
M  END
$$$$
