CHEMBL181567
 OpenBabel04072215363D

 36 38  0  0  0  0  0  0  0  0999 V2000
    1.2611   -2.4607    0.6720 C   0  0  0  0  0  0  0  0  0  0  0  0
    2.6781   -2.2987    0.6932 O   0  0  0  0  0  0  0  0  0  0  0  0
    3.0967   -1.0034    0.7006 C   0  0  0  0  0  0  0  0  0  0  0  0
    2.3465   -0.0322    0.6965 O   0  0  0  0  0  0  0  0  0  0  0  0
    4.5572   -0.8898    0.7146 C   0  0  0  0  0  0  0  0  0  0  0  0
    5.4333   -1.9583    0.6828 C   0  0  0  0  0  0  0  0  0  0  0  0
    6.7074   -1.4843    0.6863 N   0  0  0  0  0  0  0  0  0  0  0  0
    7.7964   -2.2618    0.6395 N   0  0  0  0  0  0  0  0  0  0  0  0
    8.9065   -1.6011    0.6584 C   0  0  0  0  0  0  0  0  0  0  0  0
    9.0445   -0.2461    0.7354 N   0  0  0  0  0  0  0  0  0  0  0  0
    7.9940    0.5261    0.7827 C   0  0  0  0  0  0  0  0  0  0  0  0
    8.1571    1.8923    0.8384 N   0  0  0  0  0  0  0  0  0  0  0  0
    9.2022    2.5843    1.4804 C   0  0  0  0  0  0  0  0  0  0  0  0
    9.9591    2.0211    2.5163 C   0  0  0  0  0  0  0  0  0  0  0  0
   10.9900    2.7401    3.1234 C   0  0  0  0  0  0  0  0  0  0  0  0
   11.2902    4.0303    2.6913 C   0  0  0  0  0  0  0  0  0  0  0  0
   10.5468    4.5909    1.6592 C   0  0  0  0  0  0  0  0  0  0  0  0
   10.8024    5.8510    1.2046 O   0  0  0  0  0  0  0  0  0  0  0  0
    9.5125    3.8821    1.0567 C   0  0  0  0  0  0  0  0  0  0  0  0
    6.7006   -0.1172    0.7432 C   0  0  0  0  0  0  0  0  0  0  0  0
    5.3703    0.3048    0.7657 C   0  0  0  0  0  0  0  0  0  0  0  0
    4.7854    1.6764    0.8325 C   0  0  0  0  0  0  0  0  0  0  0  0
    1.0421   -3.5205    0.8270 H   0  0  0  0  0  0  0  0  0  0  0  0
    0.8646   -2.1622   -0.3036 H   0  0  0  0  0  0  0  0  0  0  0  0
    0.7848   -1.8910    1.4768 H   0  0  0  0  0  0  0  0  0  0  0  0
    5.2530   -3.0250    0.6478 H   0  0  0  0  0  0  0  0  0  0  0  0
    9.8483   -2.1743    0.6126 H   0  0  0  0  0  0  0  0  0  0  0  0
    7.3397    2.4688    0.7407 H   0  0  0  0  0  0  0  0  0  0  0  0
    9.7360    1.0219    2.8814 H   0  0  0  0  0  0  0  0  0  0  0  0
   11.5546    2.2883    3.9346 H   0  0  0  0  0  0  0  0  0  0  0  0
   12.0999    4.5738    3.1663 H   0  0  0  0  0  0  0  0  0  0  0  0
   11.5376    6.2219    1.7199 H   0  0  0  0  0  0  0  0  0  0  0  0
    8.9634    4.3425    0.2388 H   0  0  0  0  0  0  0  0  0  0  0  0
    5.5169    2.4749    0.9093 H   0  0  0  0  0  0  0  0  0  0  0  0
    4.1361    1.7643    1.7105 H   0  0  0  0  0  0  0  0  0  0  0  0
    4.1859    1.8737   -0.0627 H   0  0  0  0  0  0  0  0  0  0  0  0
  1  2  1  0  0  0  0
  1 23  1  0  0  0  0
  1 24  1  0  0  0  0
  1 25  1  0  0  0  0
  2  3  1  0  0  0  0
  3  4  2  0  0  0  0
  3  5  1  0  0  0  0
  5  6  2  0  0  0  0
  5 21  1  0  0  0  0
  6  7  1  0  0  0  0
  6 26  1  0  0  0  0
  7  8  1  0  0  0  0
  7 20  1  0  0  0  0
  8  9  2  0  0  0  0
  9 10  1  0  0  0  0
  9 27  1  0  0  0  0
 10 11  2  0  0  0  0
 11 12  1  0  0  0  0
 11 20  1  0  0  0  0
 12 13  1  0  0  0  0
 12 28  1  0  0  0  0
 13 14  1  0  0  0  0
 13 19  2  0  0  0  0
 14 15  2  0  0  0  0
 14 29  1  0  0  0  0
 15 16  1  0  0  0  0
 15 30  1  0  0  0  0
 16 17  2  0  0  0  0
 16 31  1  0  0  0  0
 17 18  1  0  0  0  0
 17 19  1  0  0  0  0
 18 32  1  0  0  0  0
 19 33  1  0  0  0  0
 20 21  2  0  0  0  0
 21 22  1  0  0  0  0
 22 34  1  0  0  0  0
 22 35  1  0  0  0  0
 22 36  1  0  0  0  0
M  END
$$$$
