CHEMBL3964582
 OpenBabel04072215373D

 56 60  0  0  1  0  0  0  0  0999 V2000
    0.6792    1.4861   -0.6363 C   0  0  0  0  0  0  0  0  0  0  0  0
    2.0919    1.4930   -0.8129 O   0  0  0  0  0  0  0  0  0  0  0  0
    2.7624    2.6003   -0.3618 C   0  0  0  0  0  0  0  0  0  0  0  0
    2.1609    3.7329    0.1904 C   0  0  0  0  0  0  0  0  0  0  0  0
    2.9426    4.7961    0.6263 C   0  0  0  0  0  0  0  0  0  0  0  0
    4.3366    4.7247    0.5258 C   0  0  0  0  0  0  0  0  0  0  0  0
    4.9637    3.5829    0.0064 C   0  0  0  0  0  0  0  0  0  0  0  0
    6.3763    3.4531   -0.0530 N   0  0  0  0  0  0  0  0  0  0  0  0
    7.2320    4.1336    0.8165 C   0  0  0  0  0  0  0  0  0  0  0  0
    6.8608    4.7656    1.7994 O   0  0  0  0  0  0  0  0  0  0  0  0
    8.5616    4.0262    0.4243 N   0  0  0  0  0  0  0  0  0  0  0  0
    9.5832    4.6344    1.1982 C   0  0  0  0  0  0  0  0  0  0  0  0
    9.5874    4.5472    2.5938 C   0  0  0  0  0  0  0  0  0  0  0  0
   10.5186    5.2628    3.3537 C   0  0  0  0  0  0  0  0  0  0  0  0
   11.4715    6.0789    2.7380 C   0  0  0  0  0  0  0  0  0  0  0  0
   12.3566    6.9767    3.6040 C   0  0  3  0  0  0  0  0  0  0  0  0
   13.8663    6.7220    3.4222 C   0  0  0  0  0  0  0  0  0  0  0  0
   14.7311    7.9375    3.4793 N   0  0  0  0  0  0  0  0  0  0  0  0
   14.2724    8.9228    2.7804 C   0  0  0  0  0  0  0  0  0  0  0  0
   15.1069    9.9946    2.2318 C   0  0  0  0  0  0  0  0  0  0  0  0
   16.0579   10.7173    2.9391 C   0  0  0  0  0  0  0  0  0  0  0  0
   16.7971   11.6875    2.2547 C   0  0  0  0  0  0  0  0  0  0  0  0
   16.6543   11.8426    0.8678 C   0  0  0  0  0  0  0  0  0  0  0  0
   15.6775   11.1282    0.1732 C   0  0  0  0  0  0  0  0  0  0  0  0
   14.8395   10.2867    0.8923 C   0  0  0  0  0  0  0  0  0  0  0  0
   13.6032    9.8839    0.3591 N   0  0  0  0  0  0  0  0  0  0  0  0
   12.5609    9.6131    1.2362 C   0  0  0  0  0  0  0  0  0  0  0  0
   11.4064    9.8918    0.9333 O   0  0  0  0  0  0  0  0  0  0  0  0
   12.9504    9.0036    2.4096 N   0  0  0  0  0  0  0  0  0  0  0  0
   12.0174    8.4486    3.3619 C   0  0  0  0  0  0  0  0  0  0  0  0
   11.4989    6.1088    1.3315 C   0  0  0  0  0  0  0  0  0  0  0  0
   10.5782    5.3757    0.5655 C   0  0  0  0  0  0  0  0  0  0  0  0
    4.1602    2.5404   -0.4723 C   0  0  0  0  0  0  0  0  0  0  0  0
    0.3022    0.5168   -0.9731 H   0  0  0  0  0  0  0  0  0  0  0  0
    0.2058    2.2580   -1.2522 H   0  0  0  0  0  0  0  0  0  0  0  0
    0.4061    1.5968    0.4190 H   0  0  0  0  0  0  0  0  0  0  0  0
    1.0883    3.8197    0.3021 H   0  0  0  0  0  0  0  0  0  0  0  0
    2.4836    5.6867    1.0498 H   0  0  0  0  0  0  0  0  0  0  0  0
    4.9159    5.5791    0.8616 H   0  0  0  0  0  0  0  0  0  0  0  0
    6.7661    2.6232   -0.4786 H   0  0  0  0  0  0  0  0  0  0  0  0
    8.6969    4.0166   -0.5749 H   0  0  0  0  0  0  0  0  0  0  0  0
    8.8339    3.9558    3.1105 H   0  0  0  0  0  0  0  0  0  0  0  0
   10.4517    5.2023    4.4403 H   0  0  0  0  0  0  0  0  0  0  0  0
   12.1179    6.7612    4.6551 H   0  0  0  0  0  0  0  0  0  0  0  0
   14.0731    6.2258    2.4625 H   0  0  0  0  0  0  0  0  0  0  0  0
   14.2132    6.0142    4.1840 H   0  0  0  0  0  0  0  0  0  0  0  0
   16.1771   10.5788    4.0096 H   0  0  0  0  0  0  0  0  0  0  0  0
   17.4888   12.3279    2.7977 H   0  0  0  0  0  0  0  0  0  0  0  0
   17.2717   12.5646    0.3367 H   0  0  0  0  0  0  0  0  0  0  0  0
   15.5317   11.2952   -0.8894 H   0  0  0  0  0  0  0  0  0  0  0  0
   13.3291   10.2106   -0.5569 H   0  0  0  0  0  0  0  0  0  0  0  0
   10.9764    8.6113    3.0619 H   0  0  0  0  0  0  0  0  0  0  0  0
   12.1665    8.9970    4.3031 H   0  0  0  0  0  0  0  0  0  0  0  0
   12.2048    6.7484    0.8070 H   0  0  0  0  0  0  0  0  0  0  0  0
   10.6004    5.4687   -0.5168 H   0  0  0  0  0  0  0  0  0  0  0  0
    4.6071    1.6511   -0.9016 H   0  0  0  0  0  0  0  0  0  0  0  0
  1  2  1  0  0  0  0
  1 34  1  0  0  0  0
  1 35  1  0  0  0  0
  1 36  1  0  0  0  0
  2  3  1  0  0  0  0
  3  4  1  0  0  0  0
  3 33  2  0  0  0  0
  4  5  2  0  0  0  0
  4 37  1  0  0  0  0
  5  6  1  0  0  0  0
  5 38  1  0  0  0  0
  6  7  2  0  0  0  0
  6 39  1  0  0  0  0
  7  8  1  0  0  0  0
  7 33  1  0  0  0  0
  8  9  1  0  0  0  0
  8 40  1  0  0  0  0
  9 10  2  0  0  0  0
  9 11  1  0  0  0  0
 11 12  1  0  0  0  0
 11 41  1  0  0  0  0
 12 13  1  0  0  0  0
 12 32  2  0  0  0  0
 13 14  2  0  0  0  0
 13 42  1  0  0  0  0
 14 15  1  0  0  0  0
 14 43  1  0  0  0  0
 15 16  1  0  0  0  0
 15 31  2  0  0  0  0
 16 17  1  0  0  0  0
 16 30  1  0  0  0  0
 16 44  1  0  0  0  0
 17 18  1  0  0  0  0
 17 45  1  0  0  0  0
 17 46  1  0  0  0  0
 18 19  2  0  0  0  0
 19 20  1  0  0  0  0
 19 29  1  0  0  0  0
 20 21  1  0  0  0  0
 20 25  2  0  0  0  0
 21 22  2  0  0  0  0
 21 47  1  0  0  0  0
 22 23  1  0  0  0  0
 22 48  1  0  0  0  0
 23 24  2  0  0  0  0
 23 49  1  0  0  0  0
 24 25  1  0  0  0  0
 24 50  1  0  0  0  0
 25 26  1  0  0  0  0
 26 27  1  0  0  0  0
 26 51  1  0  0  0  0
 27 28  2  0  0  0  0
 27 29  1  0  0  0  0
 29 30  1  0  0  0  0
 30 52  1  0  0  0  0
 30 53  1  0  0  0  0
 31 32  1  0  0  0  0
 31 54  1  0  0  0  0
 32 55  1  0  0  0  0
 33 56  1  0  0  0  0
M  END
$$$$
