CHEMBL1290470
 OpenBabel04072215363D

 41 43  0  0  0  0  0  0  0  0999 V2000
    1.1032   -0.7752    0.2640 N   0  0  0  0  0  0  0  0  0  0  0  0
    2.3587   -0.2959    0.0078 C   0  0  0  0  0  0  0  0  0  0  0  0
    2.8268   -0.3156   -1.1254 O   0  0  0  0  0  0  0  0  0  0  0  0
    3.0613    0.2573    1.1583 C   0  0  0  0  0  0  0  0  0  0  0  0
    2.7856   -0.0704    2.5361 C   0  0  0  0  0  0  0  0  0  0  0  0
    3.6065    0.5719    3.4401 C   0  0  0  0  0  0  0  0  0  0  0  0
    3.6692    0.4249    4.9030 C   0  0  0  0  0  0  0  0  0  0  0  0
    3.3740   -0.8165    5.4900 C   0  0  0  0  0  0  0  0  0  0  0  0
    3.4156   -0.9840    6.8765 C   0  0  0  0  0  0  0  0  0  0  0  0
    3.7608    0.0859    7.6974 C   0  0  0  0  0  0  0  0  0  0  0  0
    4.0665    1.3219    7.1333 C   0  0  0  0  0  0  0  0  0  0  0  0
    4.0203    1.4904    5.7469 C   0  0  0  0  0  0  0  0  0  0  0  0
    4.6592    1.6241    2.6185 S   0  0  0  0  0  0  0  0  0  0  0  0
    4.1468    1.1254    1.0721 C   0  0  0  0  0  0  0  0  0  0  0  0
    4.7777    1.6297   -0.0743 N   0  0  0  0  0  0  0  0  0  0  0  0
    6.0084    2.2772   -0.0610 C   0  0  0  0  0  0  0  0  0  0  0  0
    6.7109    2.4998    0.9236 O   0  0  0  0  0  0  0  0  0  0  0  0
    6.5784    2.7225   -1.3566 C   0  0  0  0  0  0  0  0  0  0  0  0
    5.8282    3.2272   -2.4215 C   0  0  0  0  0  0  0  0  0  0  0  0
    6.4823    3.7396   -3.5606 C   0  0  0  0  0  0  0  0  0  0  0  0
    7.8801    3.7539   -3.6296 C   0  0  0  0  0  0  0  0  0  0  0  0
    8.6367    4.2188   -4.6658 O   0  0  0  0  0  0  0  0  0  0  0  0
    8.0625    5.2422   -5.4551 C   0  0  0  0  0  0  0  0  0  0  0  0
    9.0848    5.9149   -6.0438 F   0  0  0  0  0  0  0  0  0  0  0  0
    7.3472    4.6680   -6.4524 F   0  0  0  0  0  0  0  0  0  0  0  0
    8.6244    3.2293   -2.5757 C   0  0  0  0  0  0  0  0  0  0  0  0
    7.9818    2.7284   -1.4468 C   0  0  0  0  0  0  0  0  0  0  0  0
    0.5610   -1.1066   -0.5243 H   0  0  0  0  0  0  0  0  0  0  0  0
    0.6088   -0.5471    1.1164 H   0  0  0  0  0  0  0  0  0  0  0  0
    2.0313   -0.7828    2.8486 H   0  0  0  0  0  0  0  0  0  0  0  0
    3.1282   -1.6759    4.8718 H   0  0  0  0  0  0  0  0  0  0  0  0
    3.1895   -1.9527    7.3116 H   0  0  0  0  0  0  0  0  0  0  0  0
    3.7973   -0.0433    8.7744 H   0  0  0  0  0  0  0  0  0  0  0  0
    4.3459    2.1574    7.7701 H   0  0  0  0  0  0  0  0  0  0  0  0
    4.2633    2.4695    5.3390 H   0  0  0  0  0  0  0  0  0  0  0  0
    4.3892    1.3184   -0.9612 H   0  0  0  0  0  0  0  0  0  0  0  0
    4.7447    3.2696   -2.3679 H   0  0  0  0  0  0  0  0  0  0  0  0
    5.8737    4.1143   -4.3800 H   0  0  0  0  0  0  0  0  0  0  0  0
    7.4484    5.9571   -4.8976 H   0  0  0  0  0  0  0  0  0  0  0  0
    9.7114    3.2312   -2.6179 H   0  0  0  0  0  0  0  0  0  0  0  0
    8.5864    2.3615   -0.6165 H   0  0  0  0  0  0  0  0  0  0  0  0
  1  2  1  0  0  0  0
  1 28  1  0  0  0  0
  1 29  1  0  0  0  0
  2  3  2  0  0  0  0
  2  4  1  0  0  0  0
  4  5  1  0  0  0  0
  4 14  2  0  0  0  0
  5  6  2  0  0  0  0
  5 30  1  0  0  0  0
  6  7  1  0  0  0  0
  6 13  1  0  0  0  0
  7  8  1  0  0  0  0
  7 12  2  0  0  0  0
  8  9  2  0  0  0  0
  8 31  1  0  0  0  0
  9 10  1  0  0  0  0
  9 32  1  0  0  0  0
 10 11  2  0  0  0  0
 10 33  1  0  0  0  0
 11 12  1  0  0  0  0
 11 34  1  0  0  0  0
 12 35  1  0  0  0  0
 13 14  1  0  0  0  0
 14 15  1  0  0  0  0
 15 16  1  0  0  0  0
 15 36  1  0  0  0  0
 16 17  2  0  0  0  0
 16 18  1  0  0  0  0
 18 19  1  0  0  0  0
 18 27  2  0  0  0  0
 19 20  2  0  0  0  0
 19 37  1  0  0  0  0
 20 21  1  0  0  0  0
 20 38  1  0  0  0  0
 21 22  1  0  0  0  0
 21 26  2  0  0  0  0
 22 23  1  0  0  0  0
 23 24  1  0  0  0  0
 23 25  1  0  0  0  0
 23 39  1  0  0  0  0
 26 27  1  0  0  0  0
 26 40  1  0  0  0  0
 27 41  1  0  0  0  0
M  END
$$$$
