CHEMBL3962805
 OpenBabel04072215373D

 76 80  0  0  0  0  0  0  0  0999 V2000
   11.9756   -0.7489   -8.6831 C   0  0  0  0  0  0  0  0  0  0  0  0
   10.7180   -0.1538   -8.3854 O   0  0  0  0  0  0  0  0  0  0  0  0
   10.7567    1.2675   -8.5670 C   0  0  0  0  0  0  0  0  0  0  0  0
    9.3783    1.8449   -8.2486 C   0  0  0  0  0  0  0  0  0  0  0  0
    9.0202    1.5911   -6.8614 N   0  0  0  0  0  0  0  0  0  0  0  0
    8.0619    2.3381   -6.2042 C   0  0  0  0  0  0  0  0  0  0  0  0
    7.5364    3.3091   -6.7516 O   0  0  0  0  0  0  0  0  0  0  0  0
    7.7767    1.9657   -4.7261 C   0  0  0  0  0  0  0  0  0  0  0  0
    6.3845    2.5229   -4.3582 C   0  0  0  0  0  0  0  0  0  0  0  0
    7.7489    0.4367   -4.5399 C   0  0  0  0  0  0  0  0  0  0  0  0
    8.7784    2.5792   -3.8314 N   0  0  0  0  0  0  0  0  0  0  0  0
    9.8184    3.4033   -4.1590 C   0  0  0  0  0  0  0  0  0  0  0  0
   10.4286    3.7750   -2.9798 C   0  0  0  0  0  0  0  0  0  0  0  0
   11.5803    4.6460   -2.9137 C   0  0  0  0  0  0  0  0  0  0  0  0
   11.8465    5.4531   -1.8208 C   0  0  0  0  0  0  0  0  0  0  0  0
   12.9475    6.2429   -1.7508 N   0  0  0  0  0  0  0  0  0  0  0  0
   13.7887    6.1875   -2.8015 C   0  0  0  0  0  0  0  0  0  0  0  0
   14.9668    6.9126   -2.7858 C   0  0  0  0  0  0  0  0  0  0  0  0
   15.8932    6.8134   -3.8304 C   0  0  0  0  0  0  0  0  0  0  0  0
   15.6494    6.0275   -4.9693 C   0  0  0  0  0  0  0  0  0  0  0  0
   16.6059    5.9269   -6.0276 N   0  0  0  0  0  0  0  0  0  0  0  0
   16.5897    4.6428   -6.7804 C   0  0  0  0  0  0  0  0  0  0  0  0
   15.8851    4.7913   -8.1066 C   0  0  0  0  0  0  0  0  0  0  0  0
   15.8491    3.6508   -9.1022 C   0  0  0  0  0  0  0  0  0  0  0  0
   16.6707    4.8736   -9.3928 C   0  0  0  0  0  0  0  0  0  0  0  0
   17.6440    6.8649   -6.3199 C   0  0  0  0  0  0  0  0  0  0  0  0
   18.8885    6.4859   -6.8451 C   0  0  0  0  0  0  0  0  0  0  0  0
   19.9309    7.4021   -7.0391 C   0  0  0  0  0  0  0  0  0  0  0  0
   21.1732    7.0958   -7.5311 O   0  0  0  0  0  0  0  0  0  0  0  0
   21.3826    5.7530   -7.9553 C   0  0  0  0  0  0  0  0  0  0  0  0
   19.7493    8.7401   -6.6973 C   0  0  0  0  0  0  0  0  0  0  0  0
   18.5175    9.1676   -6.2175 C   0  0  0  0  0  0  0  0  0  0  0  0
   18.2262   10.4491   -5.8321 O   0  0  0  0  0  0  0  0  0  0  0  0
   18.9810   11.4698   -6.4771 C   0  0  0  0  0  0  0  0  0  0  0  0
   17.4804    8.2395   -6.0512 C   0  0  0  0  0  0  0  0  0  0  0  0
   14.4270    5.3354   -4.9812 C   0  0  0  0  0  0  0  0  0  0  0  0
   13.5193    5.3763   -3.9254 C   0  0  0  0  0  0  0  0  0  0  0  0
   12.4106    4.6160   -3.9850 N   0  0  0  0  0  0  0  0  0  0  0  0
    9.6899    3.1059   -1.9857 C   0  0  0  0  0  0  0  0  0  0  0  0
    8.6969    2.3693   -2.4919 N   0  0  0  0  0  0  0  0  0  0  0  0
   11.8841   -1.8311   -8.5576 H   0  0  0  0  0  0  0  0  0  0  0  0
   12.7433   -0.3804   -7.9960 H   0  0  0  0  0  0  0  0  0  0  0  0
   12.2645   -0.5407   -9.7179 H   0  0  0  0  0  0  0  0  0  0  0  0
   11.0245    1.4968   -9.6041 H   0  0  0  0  0  0  0  0  0  0  0  0
   11.5100    1.6948   -7.8946 H   0  0  0  0  0  0  0  0  0  0  0  0
    8.6091    1.3678   -8.8655 H   0  0  0  0  0  0  0  0  0  0  0  0
    9.3630    2.9227   -8.4393 H   0  0  0  0  0  0  0  0  0  0  0  0
    9.2877    0.6775   -6.5160 H   0  0  0  0  0  0  0  0  0  0  0  0
    5.6111    2.1128   -5.0179 H   0  0  0  0  0  0  0  0  0  0  0  0
    6.3512    3.6154   -4.4469 H   0  0  0  0  0  0  0  0  0  0  0  0
    6.1066    2.2735   -3.3274 H   0  0  0  0  0  0  0  0  0  0  0  0
    7.0788   -0.0340   -5.2687 H   0  0  0  0  0  0  0  0  0  0  0  0
    7.4017    0.1569   -3.5388 H   0  0  0  0  0  0  0  0  0  0  0  0
    8.7424   -0.0096   -4.6603 H   0  0  0  0  0  0  0  0  0  0  0  0
   10.0450    3.6818   -5.1795 H   0  0  0  0  0  0  0  0  0  0  0  0
   11.1832    5.5058   -0.9642 H   0  0  0  0  0  0  0  0  0  0  0  0
   15.1871    7.5487   -1.9316 H   0  0  0  0  0  0  0  0  0  0  0  0
   16.8280    7.3564   -3.7148 H   0  0  0  0  0  0  0  0  0  0  0  0
   16.1039    3.8489   -6.2030 H   0  0  0  0  0  0  0  0  0  0  0  0
   17.5913    4.2332   -6.9268 H   0  0  0  0  0  0  0  0  0  0  0  0
   14.9754    5.3757   -8.0237 H   0  0  0  0  0  0  0  0  0  0  0  0
   14.9487    3.5085   -9.6916 H   0  0  0  0  0  0  0  0  0  0  0  0
   16.3759    2.7297   -8.8797 H   0  0  0  0  0  0  0  0  0  0  0  0
   16.3165    5.5661  -10.1483 H   0  0  0  0  0  0  0  0  0  0  0  0
   17.7485    4.7650   -9.3673 H   0  0  0  0  0  0  0  0  0  0  0  0
   19.0804    5.4489   -7.0714 H   0  0  0  0  0  0  0  0  0  0  0  0
   22.3898    5.6855   -8.3724 H   0  0  0  0  0  0  0  0  0  0  0  0
   20.6753    5.4726   -8.7442 H   0  0  0  0  0  0  0  0  0  0  0  0
   21.3250    5.0632   -7.1062 H   0  0  0  0  0  0  0  0  0  0  0  0
   20.5884    9.4196   -6.8018 H   0  0  0  0  0  0  0  0  0  0  0  0
   18.5201   12.4313   -6.2310 H   0  0  0  0  0  0  0  0  0  0  0  0
   18.9502   11.3527   -7.5656 H   0  0  0  0  0  0  0  0  0  0  0  0
   20.0129   11.4944   -6.1124 H   0  0  0  0  0  0  0  0  0  0  0  0
   16.5246    8.6197   -5.6958 H   0  0  0  0  0  0  0  0  0  0  0  0
   14.1422    4.7174   -5.8285 H   0  0  0  0  0  0  0  0  0  0  0  0
    9.8365    3.1066   -0.9130 H   0  0  0  0  0  0  0  0  0  0  0  0
  1  2  1  0  0  0  0
  1 41  1  0  0  0  0
  1 42  1  0  0  0  0
  1 43  1  0  0  0  0
  2  3  1  0  0  0  0
  3  4  1  0  0  0  0
  3 44  1  0  0  0  0
  3 45  1  0  0  0  0
  4  5  1  0  0  0  0
  4 46  1  0  0  0  0
  4 47  1  0  0  0  0
  5  6  1  0  0  0  0
  5 48  1  0  0  0  0
  6  7  2  0  0  0  0
  6  8  1  0  0  0  0
  8  9  1  0  0  0  0
  8 10  1  0  0  0  0
  8 11  1  0  0  0  0
  9 49  1  0  0  0  0
  9 50  1  0  0  0  0
  9 51  1  0  0  0  0
 10 52  1  0  0  0  0
 10 53  1  0  0  0  0
 10 54  1  0  0  0  0
 11 12  1  0  0  0  0
 11 40  1  0  0  0  0
 12 13  2  0  0  0  0
 12 55  1  0  0  0  0
 13 14  1  0  0  0  0
 13 39  1  0  0  0  0
 14 15  1  0  0  0  0
 14 38  2  0  0  0  0
 15 16  2  0  0  0  0
 15 56  1  0  0  0  0
 16 17  1  0  0  0  0
 17 18  1  0  0  0  0
 17 37  2  0  0  0  0
 18 19  2  0  0  0  0
 18 57  1  0  0  0  0
 19 20  1  0  0  0  0
 19 58  1  0  0  0  0
 20 21  1  0  0  0  0
 20 36  2  0  0  0  0
 21 22  1  0  0  0  0
 21 26  1  0  0  0  0
 22 23  1  0  0  0  0
 22 59  1  0  0  0  0
 22 60  1  0  0  0  0
 23 24  1  0  0  0  0
 23 25  1  0  0  0  0
 23 61  1  0  0  0  0
 24 25  1  0  0  0  0
 24 62  1  0  0  0  0
 24 63  1  0  0  0  0
 25 64  1  0  0  0  0
 25 65  1  0  0  0  0
 26 27  1  0  0  0  0
 26 35  2  0  0  0  0
 27 28  2  0  0  0  0
 27 66  1  0  0  0  0
 28 29  1  0  0  0  0
 28 31  1  0  0  0  0
 29 30  1  0  0  0  0
 30 67  1  0  0  0  0
 30 68  1  0  0  0  0
 30 69  1  0  0  0  0
 31 32  2  0  0  0  0
 31 70  1  0  0  0  0
 32 33  1  0  0  0  0
 32 35  1  0  0  0  0
 33 34  1  0  0  0  0
 34 71  1  0  0  0  0
 34 72  1  0  0  0  0
 34 73  1  0  0  0  0
 35 74  1  0  0  0  0
 36 37  1  0  0  0  0
 36 75  1  0  0  0  0
 37 38  1  0  0  0  0
 39 40  2  0  0  0  0
 39 76  1  0  0  0  0
M  END
$$$$
