CHEMBL3582441
 OpenBabel04072215363D

 65 70  0  0  1  0  0  0  0  0999 V2000
    0.3173    1.0542    9.0843 O   0  0  0  0  0  0  0  0  0  0  0  0
    0.3922    0.5519    7.9712 C   0  0  0  0  0  0  0  0  0  0  0  0
   -0.5872    0.6792    7.0471 O   0  0  0  0  0  0  0  0  0  0  0  0
    1.5464   -0.3383    7.5392 C   0  0  0  0  0  0  0  0  0  0  0  0
    1.7958   -0.3848    6.0698 N   0  0  0  0  0  0  0  0  0  0  0  0
    2.9944   -1.2603    5.8427 C   0  0  0  0  0  0  0  0  0  0  0  0
    4.3539   -0.7026    6.3641 C   0  0  0  0  0  0  0  0  0  0  0  0
    4.5763    0.6678    5.8989 N   0  0  0  0  0  0  0  0  0  0  0  0
    5.6787    1.0268    5.1491 C   0  0  0  0  0  0  0  0  0  0  0  0
    6.9308    0.4525    5.3758 C   0  0  0  0  0  0  0  0  0  0  0  0
    8.0595    0.8589    4.6459 C   0  0  0  0  0  0  0  0  0  0  0  0
    9.3709    0.2663    4.9306 C   0  0  0  0  0  0  0  0  0  0  0  0
    9.8569   -0.2550    6.1249 C   0  0  0  0  0  0  0  0  0  0  0  0
   11.1102   -0.7826    5.9914 N   0  0  0  0  0  0  0  0  0  0  0  0
   11.4167   -0.5807    4.7271 C   0  0  0  0  0  0  0  0  0  0  0  0
   12.5729   -0.9415    4.0117 C   0  0  0  0  0  0  0  0  0  0  0  0
   12.6493   -0.6386    2.7116 C   0  0  0  0  0  0  0  0  0  0  0  0
   11.5269    0.1288    2.0756 C   0  0  0  0  0  0  0  0  0  0  0  0
   11.7083    0.5296    0.7726 N   0  0  0  0  0  0  0  0  0  0  0  0
   12.0140   -0.3614   -0.3333 C   0  0  0  0  0  0  0  0  0  0  0  0
   12.7359    0.5586   -1.3024 C   0  0  0  0  0  0  0  0  0  0  0  0
   11.9617    1.8679   -1.1718 C   0  0  0  0  0  0  0  0  0  0  0  0
   11.4469    1.8858    0.2854 C   0  0  2  0  0  0  0  0  0  0  0  0
   12.1412    2.9279    1.1446 C   0  0  0  0  0  0  0  0  0  0  0  0
   11.3916    3.9763    1.7072 C   0  0  0  0  0  0  0  0  0  0  0  0
   11.9910    4.9193    2.5476 C   0  0  0  0  0  0  0  0  0  0  0  0
   13.3498    4.8277    2.8375 C   0  0  0  0  0  0  0  0  0  0  0  0
   14.0990    3.8026    2.2750 C   0  0  0  0  0  0  0  0  0  0  0  0
   15.4061    3.7114    2.5542 F   0  0  0  0  0  0  0  0  0  0  0  0
   13.5138    2.8622    1.4324 C   0  0  0  0  0  0  0  0  0  0  0  0
   10.4470    0.4709    2.7205 N   0  0  0  0  0  0  0  0  0  0  0  0
   10.4141    0.0801    4.0377 N   0  0  0  0  0  0  0  0  0  0  0  0
    7.8897    1.8476    3.6839 C   0  0  0  0  0  0  0  0  0  0  0  0
    6.6259    2.3667    3.5028 C   0  0  0  0  0  0  0  0  0  0  0  0
    5.5391    1.9857    4.2108 N   0  0  0  0  0  0  0  0  0  0  0  0
    3.4424    1.5930    5.9860 C   0  0  0  0  0  0  0  0  0  0  0  0
    2.1463    0.9365    5.4691 C   0  0  0  0  0  0  0  0  0  0  0  0
   -0.3317    0.1827    6.2392 H   0  0  0  0  0  0  0  0  0  0  0  0
    1.2766   -1.3497    7.8688 H   0  0  0  0  0  0  0  0  0  0  0  0
    2.4270   -0.0151    8.1005 H   0  0  0  0  0  0  0  0  0  0  0  0
    3.0869   -1.4356    4.7623 H   0  0  0  0  0  0  0  0  0  0  0  0
    2.8175   -2.2479    6.2869 H   0  0  0  0  0  0  0  0  0  0  0  0
    5.1411   -1.3940    6.0444 H   0  0  0  0  0  0  0  0  0  0  0  0
    4.3711   -0.7041    7.4600 H   0  0  0  0  0  0  0  0  0  0  0  0
    7.0400   -0.2946    6.1543 H   0  0  0  0  0  0  0  0  0  0  0  0
    9.3540   -0.2809    7.0831 H   0  0  0  0  0  0  0  0  0  0  0  0
   13.3816   -1.4390    4.5274 H   0  0  0  0  0  0  0  0  0  0  0  0
   13.5299   -0.8602    2.1216 H   0  0  0  0  0  0  0  0  0  0  0  0
   11.0818   -0.7361   -0.7740 H   0  0  0  0  0  0  0  0  0  0  0  0
   12.6321   -1.2180   -0.0514 H   0  0  0  0  0  0  0  0  0  0  0  0
   12.7479    0.1709   -2.3246 H   0  0  0  0  0  0  0  0  0  0  0  0
   13.7740    0.6993   -0.9782 H   0  0  0  0  0  0  0  0  0  0  0  0
   11.1070    1.8480   -1.8589 H   0  0  0  0  0  0  0  0  0  0  0  0
   12.5775    2.7328   -1.4402 H   0  0  0  0  0  0  0  0  0  0  0  0
   10.3651    2.0699    0.2755 H   0  0  0  0  0  0  0  0  0  0  0  0
   10.3243    4.0550    1.5090 H   0  0  0  0  0  0  0  0  0  0  0  0
   11.3942    5.7161    2.9846 H   0  0  0  0  0  0  0  0  0  0  0  0
   13.8263    5.5420    3.5009 H   0  0  0  0  0  0  0  0  0  0  0  0
   14.1346    2.0689    1.0294 H   0  0  0  0  0  0  0  0  0  0  0  0
    8.7159    2.2243    3.0933 H   0  0  0  0  0  0  0  0  0  0  0  0
    6.4449    3.1388    2.7613 H   0  0  0  0  0  0  0  0  0  0  0  0
    3.6011    2.5314    5.4426 H   0  0  0  0  0  0  0  0  0  0  0  0
    3.3114    1.8794    7.0360 H   0  0  0  0  0  0  0  0  0  0  0  0
    2.2489    0.7835    4.3843 H   0  0  0  0  0  0  0  0  0  0  0  0
    1.3135    1.6384    5.5768 H   0  0  0  0  0  0  0  0  0  0  0  0
  1  2  2  0  0  0  0
  2  3  1  0  0  0  0
  2  4  1  0  0  0  0
  3 38  1  0  0  0  0
  4  5  1  0  0  0  0
  4 39  1  0  0  0  0
  4 40  1  0  0  0  0
  5  6  1  0  0  0  0
  5 37  1  0  0  0  0
  6  7  1  0  0  0  0
  6 41  1  0  0  0  0
  6 42  1  0  0  0  0
  7  8  1  0  0  0  0
  7 43  1  0  0  0  0
  7 44  1  0  0  0  0
  8  9  1  0  0  0  0
  8 36  1  0  0  0  0
  9 10  1  0  0  0  0
  9 35  2  0  0  0  0
 10 11  2  0  0  0  0
 10 45  1  0  0  0  0
 11 12  1  0  0  0  0
 11 33  1  0  0  0  0
 12 13  2  0  0  0  0
 12 32  1  0  0  0  0
 13 14  1  0  0  0  0
 13 46  1  0  0  0  0
 14 15  2  0  0  0  0
 15 16  1  0  0  0  0
 15 32  1  0  0  0  0
 16 17  2  0  0  0  0
 16 47  1  0  0  0  0
 17 18  1  0  0  0  0
 17 48  1  0  0  0  0
 18 19  1  0  0  0  0
 18 31  2  0  0  0  0
 19 20  1  0  0  0  0
 19 23  1  0  0  0  0
 20 21  1  0  0  0  0
 20 49  1  0  0  0  0
 20 50  1  0  0  0  0
 21 22  1  0  0  0  0
 21 51  1  0  0  0  0
 21 52  1  0  0  0  0
 22 23  1  0  0  0  0
 22 53  1  0  0  0  0
 22 54  1  0  0  0  0
 23 24  1  0  0  0  0
 23 55  1  1  0  0  0
 24 25  1  0  0  0  0
 24 30  2  0  0  0  0
 25 26  2  0  0  0  0
 25 56  1  0  0  0  0
 26 27  1  0  0  0  0
 26 57  1  0  0  0  0
 27 28  2  0  0  0  0
 27 58  1  0  0  0  0
 28 29  1  0  0  0  0
 28 30  1  0  0  0  0
 30 59  1  0  0  0  0
 31 32  1  0  0  0  0
 33 34  2  0  0  0  0
 33 60  1  0  0  0  0
 34 35  1  0  0  0  0
 34 61  1  0  0  0  0
 36 37  1  0  0  0  0
 36 62  1  0  0  0  0
 36 63  1  0  0  0  0
 37 64  1  0  0  0  0
 37 65  1  0  0  0  0
M  END
$$$$
