CHEMBL1974664
 OpenBabel04072215363D

 43 46  0  0  0  0  0  0  0  0999 V2000
    0.9992    0.0369    0.1360 C   0  0  0  0  0  0  0  0  0  0  0  0
    2.4068   -0.1044   -0.0583 O   0  0  0  0  0  0  0  0  0  0  0  0
    2.9906    0.8071   -0.9004 C   0  0  0  0  0  0  0  0  0  0  0  0
    2.4541    2.0799   -1.0684 C   0  0  0  0  0  0  0  0  0  0  0  0
    3.0482    2.9957   -1.9213 C   0  0  0  0  0  0  0  0  0  0  0  0
    4.2080    2.6715   -2.6334 C   0  0  0  0  0  0  0  0  0  0  0  0
    4.6889    3.6798   -3.6165 C   0  0  0  0  0  0  0  0  0  0  0  0
    3.9118    4.6887   -3.8263 N   0  0  0  0  0  0  0  0  0  0  0  0
    4.2404    5.6723   -4.6972 N   0  0  0  0  0  0  0  0  0  0  0  0
    4.0937    7.0054   -4.2024 C   0  0  0  0  0  0  0  0  0  0  0  0
    3.7105    7.2661   -2.9290 N   0  0  0  0  0  0  0  0  0  0  0  0
    4.5376    8.0562   -2.2247 C   0  0  0  0  0  0  0  0  0  0  0  0
    5.7566    8.4840   -2.6166 N   0  0  0  0  0  0  0  0  0  0  0  0
    5.9273    8.3200   -3.9554 C   0  0  0  0  0  0  0  0  0  0  0  0
    4.8092    8.0556   -4.7777 C   0  0  0  0  0  0  0  0  0  0  0  0
    5.3383    8.2672   -6.0398 N   0  0  0  0  0  0  0  0  0  0  0  0
    6.5230    7.5605   -6.0241 C   0  0  0  0  0  0  0  0  0  0  0  0
    7.0837    6.7520   -7.0051 C   0  0  0  0  0  0  0  0  0  0  0  0
    8.1553    5.9667   -6.5917 C   0  0  0  0  0  0  0  0  0  0  0  0
    8.7030    6.1043   -5.3120 C   0  0  0  0  0  0  0  0  0  0  0  0
    8.1758    7.0097   -4.3707 C   0  0  0  0  0  0  0  0  0  0  0  0
    7.0010    7.7042   -4.7138 C   0  0  0  0  0  0  0  0  0  0  0  0
    4.8077    1.4246   -2.4177 C   0  0  0  0  0  0  0  0  0  0  0  0
    4.1902    0.4845   -1.5685 C   0  0  0  0  0  0  0  0  0  0  0  0
    4.8842   -0.7036   -1.4730 O   0  0  0  0  0  0  0  0  0  0  0  0
    4.1232   -1.8759   -1.1957 C   0  0  0  0  0  0  0  0  0  0  0  0
    0.6423   -0.8364    0.6895 H   0  0  0  0  0  0  0  0  0  0  0  0
    0.4679    0.0679   -0.8223 H   0  0  0  0  0  0  0  0  0  0  0  0
    0.7673    0.9185    0.7425 H   0  0  0  0  0  0  0  0  0  0  0  0
    1.5627    2.4117   -0.5453 H   0  0  0  0  0  0  0  0  0  0  0  0
    2.5873    3.9793   -2.0323 H   0  0  0  0  0  0  0  0  0  0  0  0
    5.6678    3.5244   -4.1154 H   0  0  0  0  0  0  0  0  0  0  0  0
    5.1233    5.5826   -5.2037 H   0  0  0  0  0  0  0  0  0  0  0  0
    4.2096    8.3230   -1.2262 H   0  0  0  0  0  0  0  0  0  0  0  0
    5.3314    9.1927   -6.4414 H   0  0  0  0  0  0  0  0  0  0  0  0
    6.6200    6.6307   -7.9783 H   0  0  0  0  0  0  0  0  0  0  0  0
    8.5373    5.2062   -7.2695 H   0  0  0  0  0  0  0  0  0  0  0  0
    9.5208    5.4498   -5.0184 H   0  0  0  0  0  0  0  0  0  0  0  0
    8.5531    7.0273   -3.3537 H   0  0  0  0  0  0  0  0  0  0  0  0
    5.7316    1.1613   -2.9251 H   0  0  0  0  0  0  0  0  0  0  0  0
    4.7449   -2.7438   -1.4396 H   0  0  0  0  0  0  0  0  0  0  0  0
    3.2235   -1.9324   -1.8191 H   0  0  0  0  0  0  0  0  0  0  0  0
    3.8799   -1.9537   -0.1316 H   0  0  0  0  0  0  0  0  0  0  0  0
  1  2  1  0  0  0  0
  1 27  1  0  0  0  0
  1 28  1  0  0  0  0
  1 29  1  0  0  0  0
  2  3  1  0  0  0  0
  3  4  1  0  0  0  0
  3 24  2  0  0  0  0
  4  5  2  0  0  0  0
  4 30  1  0  0  0  0
  5  6  1  0  0  0  0
  5 31  1  0  0  0  0
  6  7  1  0  0  0  0
  6 23  2  0  0  0  0
  7  8  2  3  0  0  0
  7 32  1  0  0  0  0
  8  9  1  0  0  0  0
  9 10  1  0  0  0  0
  9 33  1  0  0  0  0
 10 11  1  0  0  0  0
 10 15  2  0  0  0  0
 11 12  2  0  0  0  0
 12 13  1  0  0  0  0
 12 34  1  0  0  0  0
 13 14  2  0  0  0  0
 14 15  1  0  0  0  0
 14 22  1  0  0  0  0
 15 16  1  0  0  0  0
 16 17  1  0  0  0  0
 16 35  1  0  0  0  0
 17 18  1  0  0  0  0
 17 22  2  0  0  0  0
 18 19  2  0  0  0  0
 18 36  1  0  0  0  0
 19 20  1  0  0  0  0
 19 37  1  0  0  0  0
 20 21  2  0  0  0  0
 20 38  1  0  0  0  0
 21 22  1  0  0  0  0
 21 39  1  0  0  0  0
 23 24  1  0  0  0  0
 23 40  1  0  0  0  0
 24 25  1  0  0  0  0
 25 26  1  0  0  0  0
 26 41  1  0  0  0  0
 26 42  1  0  0  0  0
 26 43  1  0  0  0  0
M  END
$$$$
