CHEMBL4459889
 OpenBabel04072215383D

 45 48  0  0  0  0  0  0  0  0999 V2000
    9.3489    0.0214    0.6095 C   0  0  0  0  0  0  0  0  0  0  0  0
    9.7612   -0.8614    1.6476 O   0  0  0  0  0  0  0  0  0  0  0  0
    9.0367   -0.8423    2.8089 C   0  0  0  0  0  0  0  0  0  0  0  0
    7.9194   -0.0505    3.0672 C   0  0  0  0  0  0  0  0  0  0  0  0
    7.2847   -0.1090    4.3168 C   0  0  0  0  0  0  0  0  0  0  0  0
    7.7474   -0.9590    5.3363 C   0  0  0  0  0  0  0  0  0  0  0  0
    7.1419   -0.8846    6.7239 C   0  0  0  0  0  0  0  0  0  0  0  0
    6.7042   -2.2033    7.3537 C   0  0  0  0  0  0  0  0  0  0  0  0
    7.4584   -2.8658    8.0620 O   0  0  0  0  0  0  0  0  0  0  0  0
    5.4066   -2.5616    7.0278 N   0  0  0  0  0  0  0  0  0  0  0  0
    4.7928   -3.7663    7.4438 C   0  0  0  0  0  0  0  0  0  0  0  0
    4.1529   -4.4954    6.4312 C   0  0  0  0  0  0  0  0  0  0  0  0
    3.5035   -5.6971    6.6955 C   0  0  0  0  0  0  0  0  0  0  0  0
    3.4979   -6.0925    8.0226 C   0  0  0  0  0  0  0  0  0  0  0  0
    2.9230   -7.2183    8.4982 O   0  0  0  0  0  0  0  0  0  0  0  0
    3.2188   -7.2306    9.8381 C   0  0  0  0  0  0  0  0  0  0  0  0
    2.8409   -8.4910   10.4990 C   0  0  0  0  0  0  0  0  0  0  0  0
    2.6302   -9.6305    9.6845 C   0  0  0  0  0  0  0  0  0  0  0  0
    2.3389  -10.8893   10.2069 C   0  0  0  0  0  0  0  0  0  0  0  0
    2.2457  -11.0494   11.5823 C   0  0  0  0  0  0  0  0  0  0  0  0
    2.4191   -9.9415   12.4142 C   0  0  0  0  0  0  0  0  0  0  0  0
    2.7105   -8.6698   11.8826 C   0  0  0  0  0  0  0  0  0  0  0  0
    2.8537   -7.3729   13.0156 Cl  0  0  0  0  0  0  0  0  0  0  0  0
    3.8776   -6.1513   10.2404 N   0  0  0  0  0  0  0  0  0  0  0  0
    4.0929   -5.4227    9.0753 C   0  0  0  0  0  0  0  0  0  0  0  0
    4.7765   -4.2184    8.7864 C   0  0  0  0  0  0  0  0  0  0  0  0
    8.8648   -1.7582    5.0632 C   0  0  0  0  0  0  0  0  0  0  0  0
    9.4979   -1.6982    3.8116 C   0  0  0  0  0  0  0  0  0  0  0  0
   10.0141   -0.1301   -0.2470 H   0  0  0  0  0  0  0  0  0  0  0  0
    9.4406    1.0680    0.9189 H   0  0  0  0  0  0  0  0  0  0  0  0
    8.3299   -0.2052    0.2798 H   0  0  0  0  0  0  0  0  0  0  0  0
    7.5311    0.6408    2.3252 H   0  0  0  0  0  0  0  0  0  0  0  0
    6.4387    0.5530    4.4944 H   0  0  0  0  0  0  0  0  0  0  0  0
    6.2752   -0.2115    6.7164 H   0  0  0  0  0  0  0  0  0  0  0  0
    7.8732   -0.4202    7.3965 H   0  0  0  0  0  0  0  0  0  0  0  0
    5.0851   -2.1841    6.1442 H   0  0  0  0  0  0  0  0  0  0  0  0
    4.2077   -4.1611    5.3971 H   0  0  0  0  0  0  0  0  0  0  0  0
    3.0497   -6.2994    5.9203 H   0  0  0  0  0  0  0  0  0  0  0  0
    2.7016   -9.5463    8.5951 H   0  0  0  0  0  0  0  0  0  0  0  0
    2.1986  -11.7360    9.5399 H   0  0  0  0  0  0  0  0  0  0  0  0
    2.0378  -12.0291   11.9994 H   0  0  0  0  0  0  0  0  0  0  0  0
    2.3266  -10.0805   13.4891 H   0  0  0  0  0  0  0  0  0  0  0  0
    5.2452   -3.6551    9.5859 H   0  0  0  0  0  0  0  0  0  0  0  0
    9.2787   -2.4114    5.8296 H   0  0  0  0  0  0  0  0  0  0  0  0
   10.3788   -2.3106    3.6272 H   0  0  0  0  0  0  0  0  0  0  0  0
  1  2  1  0  0  0  0
  1 29  1  0  0  0  0
  1 30  1  0  0  0  0
  1 31  1  0  0  0  0
  2  3  1  0  0  0  0
  3  4  1  0  0  0  0
  3 28  2  0  0  0  0
  4  5  2  0  0  0  0
  4 32  1  0  0  0  0
  5  6  1  0  0  0  0
  5 33  1  0  0  0  0
  6  7  1  0  0  0  0
  6 27  2  0  0  0  0
  7  8  1  0  0  0  0
  7 34  1  0  0  0  0
  7 35  1  0  0  0  0
  8  9  2  0  0  0  0
  8 10  1  0  0  0  0
 10 11  1  0  0  0  0
 10 36  1  0  0  0  0
 11 12  1  0  0  0  0
 11 26  2  0  0  0  0
 12 13  2  0  0  0  0
 12 37  1  0  0  0  0
 13 14  1  0  0  0  0
 13 38  1  0  0  0  0
 14 15  1  0  0  0  0
 14 25  2  0  0  0  0
 15 16  1  0  0  0  0
 16 17  1  0  0  0  0
 16 24  2  0  0  0  0
 17 18  1  0  0  0  0
 17 22  2  0  0  0  0
 18 19  2  0  0  0  0
 18 39  1  0  0  0  0
 19 20  1  0  0  0  0
 19 40  1  0  0  0  0
 20 21  2  0  0  0  0
 20 41  1  0  0  0  0
 21 22  1  0  0  0  0
 21 42  1  0  0  0  0
 22 23  1  0  0  0  0
 24 25  1  0  0  0  0
 25 26  1  0  0  0  0
 26 43  1  0  0  0  0
 27 28  1  0  0  0  0
 27 44  1  0  0  0  0
 28 45  1  0  0  0  0
M  END
$$$$
