CHEMBL571703
 OpenBabel04072215383D

 54 58  0  0  0  0  0  0  0  0999 V2000
    0.8091    0.5265    0.1536 C   0  0  0  0  0  0  0  0  0  0  0  0
    2.2968    0.3064    0.0909 C   0  0  0  0  0  0  0  0  0  0  0  0
    3.0901    1.4577    0.0240 C   0  0  0  0  0  0  0  0  0  0  0  0
    4.4758    1.3716    0.0079 C   0  0  0  0  0  0  0  0  0  0  0  0
    5.1287    0.1272    0.0048 C   0  0  0  0  0  0  0  0  0  0  0  0
    6.5417    0.0252   -0.0627 C   0  0  0  0  0  0  0  0  0  0  0  0
    7.3267    1.2049    0.0383 N   0  0  0  0  0  0  0  0  0  0  0  0
    8.5851    1.4176   -0.5582 C   0  0  0  0  0  0  0  0  0  0  0  0
    9.5175    2.2746    0.0367 C   0  0  0  0  0  0  0  0  0  0  0  0
   10.7330    2.5531   -0.5946 C   0  0  0  0  0  0  0  0  0  0  0  0
   11.0121    2.0125   -1.8501 C   0  0  0  0  0  0  0  0  0  0  0  0
   10.0772    1.1873   -2.4874 C   0  0  0  0  0  0  0  0  0  0  0  0
   10.3191    0.6269   -3.8634 C   0  0  0  0  0  0  0  0  0  0  0  0
   11.4995    1.0305   -4.4135 F   0  0  0  0  0  0  0  0  0  0  0  0
   10.3473   -0.7342   -3.8841 F   0  0  0  0  0  0  0  0  0  0  0  0
    9.3548    0.9949   -4.7539 F   0  0  0  0  0  0  0  0  0  0  0  0
    8.8736    0.8976   -1.8281 C   0  0  0  0  0  0  0  0  0  0  0  0
    7.1837   -1.1589   -0.1557 N   0  0  0  0  0  0  0  0  0  0  0  0
    6.4341   -2.2723   -0.1769 C   0  0  0  0  0  0  0  0  0  0  0  0
    5.0528   -2.2744   -0.0850 C   0  0  0  0  0  0  0  0  0  0  0  0
    4.3483   -1.0571    0.0160 C   0  0  0  0  0  0  0  0  0  0  0  0
    2.9128   -0.9696    0.1050 C   0  0  0  0  0  0  0  0  0  0  0  0
    2.1570   -2.1627    0.2055 N   0  0  0  0  0  0  0  0  0  0  0  0
    0.9225   -2.5597   -0.3494 C   0  0  0  0  0  0  0  0  0  0  0  0
    0.4809   -1.9280   -1.4661 N   0  0  0  0  0  0  0  0  0  0  0  0
   -0.7666   -2.1802   -1.9082 C   0  0  0  0  0  0  0  0  0  0  0  0
   -1.6170   -3.0819   -1.3103 C   0  0  0  0  0  0  0  0  0  0  0  0
   -1.1496   -3.7732   -0.1987 C   0  0  0  0  0  0  0  0  0  0  0  0
    0.1333   -3.5188    0.3303 C   0  0  0  0  0  0  0  0  0  0  0  0
    0.5858   -4.2007    1.5667 C   0  0  0  0  0  0  0  0  0  0  0  0
   -0.2886   -4.5331    2.5910 C   0  0  0  0  0  0  0  0  0  0  0  0
    0.2529   -5.1436    3.6995 C   0  0  0  0  0  0  0  0  0  0  0  0
    1.5587   -5.4238    3.8253 N   0  0  0  0  0  0  0  0  0  0  0  0
    2.3286   -5.0675    2.7891 C   0  0  0  0  0  0  0  0  0  0  0  0
    1.9140   -4.4719    1.6594 N   0  0  0  0  0  0  0  0  0  0  0  0
    0.5747    1.5366    0.5075 H   0  0  0  0  0  0  0  0  0  0  0  0
    0.3290   -0.1592    0.8569 H   0  0  0  0  0  0  0  0  0  0  0  0
    0.3683    0.4358   -0.8421 H   0  0  0  0  0  0  0  0  0  0  0  0
    2.6277    2.4418   -0.0071 H   0  0  0  0  0  0  0  0  0  0  0  0
    5.0446    2.2968   -0.0486 H   0  0  0  0  0  0  0  0  0  0  0  0
    7.2653    1.5496    0.9897 H   0  0  0  0  0  0  0  0  0  0  0  0
    9.3102    2.7235    1.0040 H   0  0  0  0  0  0  0  0  0  0  0  0
   11.4560    3.2037   -0.1101 H   0  0  0  0  0  0  0  0  0  0  0  0
   11.9585    2.2476   -2.3341 H   0  0  0  0  0  0  0  0  0  0  0  0
    8.1353    0.2664   -2.3265 H   0  0  0  0  0  0  0  0  0  0  0  0
    6.9922   -3.1994   -0.2735 H   0  0  0  0  0  0  0  0  0  0  0  0
    4.5414   -3.2294   -0.1323 H   0  0  0  0  0  0  0  0  0  0  0  0
    2.6211   -2.9470    0.6554 H   0  0  0  0  0  0  0  0  0  0  0  0
   -1.0753   -1.6002   -2.7730 H   0  0  0  0  0  0  0  0  0  0  0  0
   -2.6181   -3.2416   -1.6944 H   0  0  0  0  0  0  0  0  0  0  0  0
   -1.8069   -4.5084    0.2591 H   0  0  0  0  0  0  0  0  0  0  0  0
   -1.3471   -4.3133    2.5522 H   0  0  0  0  0  0  0  0  0  0  0  0
   -0.3692   -5.4257    4.5439 H   0  0  0  0  0  0  0  0  0  0  0  0
    3.3897   -5.2772    2.8757 H   0  0  0  0  0  0  0  0  0  0  0  0
  1  2  1  0  0  0  0
  1 36  1  0  0  0  0
  1 37  1  0  0  0  0
  1 38  1  0  0  0  0
  2  3  1  0  0  0  0
  2 22  2  0  0  0  0
  3  4  2  0  0  0  0
  3 39  1  0  0  0  0
  4  5  1  0  0  0  0
  4 40  1  0  0  0  0
  5  6  1  0  0  0  0
  5 21  2  0  0  0  0
  6  7  1  0  0  0  0
  6 18  2  0  0  0  0
  7  8  1  0  0  0  0
  7 41  1  0  0  0  0
  8  9  1  0  0  0  0
  8 17  2  0  0  0  0
  9 10  2  0  0  0  0
  9 42  1  0  0  0  0
 10 11  1  0  0  0  0
 10 43  1  0  0  0  0
 11 12  2  0  0  0  0
 11 44  1  0  0  0  0
 12 13  1  0  0  0  0
 12 17  1  0  0  0  0
 13 14  1  0  0  0  0
 13 15  1  0  0  0  0
 13 16  1  0  0  0  0
 17 45  1  0  0  0  0
 18 19  1  0  0  0  0
 19 20  2  0  0  0  0
 19 46  1  0  0  0  0
 20 21  1  0  0  0  0
 20 47  1  0  0  0  0
 21 22  1  0  0  0  0
 22 23  1  0  0  0  0
 23 24  1  0  0  0  0
 23 48  1  0  0  0  0
 24 25  1  0  0  0  0
 24 29  2  0  0  0  0
 25 26  2  0  0  0  0
 26 27  1  0  0  0  0
 26 49  1  0  0  0  0
 27 28  2  0  0  0  0
 27 50  1  0  0  0  0
 28 29  1  0  0  0  0
 28 51  1  0  0  0  0
 29 30  1  0  0  0  0
 30 31  1  0  0  0  0
 30 35  2  0  0  0  0
 31 32  2  0  0  0  0
 31 52  1  0  0  0  0
 32 33  1  0  0  0  0
 32 53  1  0  0  0  0
 33 34  2  0  0  0  0
 34 35  1  0  0  0  0
 34 54  1  0  0  0  0
M  END
$$$$
