CHEMBL3902581
 OpenBabel04072215373D

 63 66  0  0  0  0  0  0  0  0999 V2000
    1.9503    3.4408    0.1117 C   0  0  0  0  0  0  0  0  0  0  0  0
    3.0009    2.4554    0.1569 N   0  0  0  0  0  0  0  0  0  0  0  0
    3.9492    2.5114    1.1627 C   0  0  0  0  0  0  0  0  0  0  0  0
    3.8903    3.3147    2.0809 O   0  0  0  0  0  0  0  0  0  0  0  0
    5.0863    1.5500    1.0970 C   0  0  0  0  0  0  0  0  0  0  0  0
    5.4763    0.9405   -0.0979 C   0  0  0  0  0  0  0  0  0  0  0  0
    6.5892    0.1030   -0.1091 C   0  0  0  0  0  0  0  0  0  0  0  0
    7.0429   -0.5778   -1.2107 O   0  0  0  0  0  0  0  0  0  0  0  0
    6.3819   -0.3286   -2.4511 C   0  0  0  0  0  0  0  0  0  0  0  0
    7.3301   -0.0840    1.0767 C   0  0  0  0  0  0  0  0  0  0  0  0
    6.9767    0.5412    2.2903 C   0  0  0  0  0  0  0  0  0  0  0  0
    7.7213    0.2781    3.4641 N   0  0  0  0  0  0  0  0  0  0  0  0
    6.9534    0.1897    4.7636 C   0  0  0  0  0  0  0  0  0  0  0  0
    5.7544   -0.7702    4.8617 C   0  0  0  0  0  0  0  0  0  0  0  0
    6.0582   -2.2632    4.8957 C   0  0  0  0  0  0  0  0  0  0  0  0
    4.8493   -2.9806    5.1659 O   0  0  0  0  0  0  0  0  0  0  0  0
    9.0530    0.7682    3.7862 C   0  0  0  0  0  0  0  0  0  0  0  0
    9.8050   -0.1102    4.5583 C   0  0  0  0  0  0  0  0  0  0  0  0
   10.8044    0.3725    5.3843 C   0  0  0  0  0  0  0  0  0  0  0  0
   11.2217    1.6768    5.3383 C   0  0  0  0  0  0  0  0  0  0  0  0
   12.0700    2.0060    6.3155 N   0  0  0  0  0  0  0  0  0  0  0  0
   12.7012    3.1764    6.1950 C   0  0  0  0  0  0  0  0  0  0  0  0
   12.5748    3.9621    5.0675 C   0  0  0  0  0  0  0  0  0  0  0  0
   13.7496    4.7842    4.7621 C   0  0  0  0  0  0  0  0  0  0  0  0
   14.0233    6.1728    4.7475 C   0  0  0  0  0  0  0  0  0  0  0  0
   15.3206    6.4571    4.5191 N   0  0  0  0  0  0  0  0  0  0  0  0
   15.8986    5.2461    4.3943 N   0  0  0  0  0  0  0  0  0  0  0  0
   17.1967    5.0733    3.7582 C   0  0  0  0  0  0  0  0  0  0  0  0
   18.3277    6.0076    4.1770 C   0  0  0  0  0  0  0  0  0  0  0  0
   18.8038    5.7162    5.4873 O   0  0  0  0  0  0  0  0  0  0  0  0
   15.0212    4.2284    4.6671 C   0  0  0  0  0  0  0  0  0  0  0  0
   11.5645    3.7036    4.1457 N   0  0  0  0  0  0  0  0  0  0  0  0
   10.7929    2.5461    4.3030 C   0  0  0  0  0  0  0  0  0  0  0  0
    9.6137    2.0639    3.5820 C   0  0  0  0  0  0  0  0  0  0  0  0
    5.8262    1.3383    2.2745 C   0  0  0  0  0  0  0  0  0  0  0  0
    1.2563    3.1800   -0.6889 H   0  0  0  0  0  0  0  0  0  0  0  0
    2.3945    4.4206   -0.0850 H   0  0  0  0  0  0  0  0  0  0  0  0
    1.4251    3.4681    1.0711 H   0  0  0  0  0  0  0  0  0  0  0  0
    2.9758    1.6927   -0.5020 H   0  0  0  0  0  0  0  0  0  0  0  0
    4.9321    1.1482   -1.0100 H   0  0  0  0  0  0  0  0  0  0  0  0
    6.8807   -0.9151   -3.2292 H   0  0  0  0  0  0  0  0  0  0  0  0
    6.4581    0.7271   -2.7345 H   0  0  0  0  0  0  0  0  0  0  0  0
    5.3343   -0.6496   -2.4185 H   0  0  0  0  0  0  0  0  0  0  0  0
    8.1801   -0.7624    1.0548 H   0  0  0  0  0  0  0  0  0  0  0  0
    6.6158    1.1965    5.0343 H   0  0  0  0  0  0  0  0  0  0  0  0
    7.6124   -0.1166    5.5868 H   0  0  0  0  0  0  0  0  0  0  0  0
    4.9916   -0.5694    4.1032 H   0  0  0  0  0  0  0  0  0  0  0  0
    5.2604   -0.5392    5.8174 H   0  0  0  0  0  0  0  0  0  0  0  0
    6.7744   -2.5251    5.6848 H   0  0  0  0  0  0  0  0  0  0  0  0
    6.4439   -2.6226    3.9399 H   0  0  0  0  0  0  0  0  0  0  0  0
    4.4970   -2.6775    6.0208 H   0  0  0  0  0  0  0  0  0  0  0  0
    9.5134   -1.1515    4.6436 H   0  0  0  0  0  0  0  0  0  0  0  0
   11.2671   -0.3001    6.0969 H   0  0  0  0  0  0  0  0  0  0  0  0
   13.4208    3.3972    6.9775 H   0  0  0  0  0  0  0  0  0  0  0  0
   13.3435    6.9983    4.9107 H   0  0  0  0  0  0  0  0  0  0  0  0
   17.0069    5.2007    2.6865 H   0  0  0  0  0  0  0  0  0  0  0  0
   17.5033    4.0346    3.9314 H   0  0  0  0  0  0  0  0  0  0  0  0
   18.0621    7.0667    4.1108 H   0  0  0  0  0  0  0  0  0  0  0  0
   19.1767    5.8435    3.5009 H   0  0  0  0  0  0  0  0  0  0  0  0
   18.2667    6.2476    6.1026 H   0  0  0  0  0  0  0  0  0  0  0  0
   15.3626    3.2017    4.7132 H   0  0  0  0  0  0  0  0  0  0  0  0
    9.1233    2.7632    2.9000 H   0  0  0  0  0  0  0  0  0  0  0  0
    5.4885    1.8268    3.1853 H   0  0  0  0  0  0  0  0  0  0  0  0
  1  2  1  0  0  0  0
  1 36  1  0  0  0  0
  1 37  1  0  0  0  0
  1 38  1  0  0  0  0
  2  3  1  0  0  0  0
  2 39  1  0  0  0  0
  3  4  2  0  0  0  0
  3  5  1  0  0  0  0
  5  6  1  0  0  0  0
  5 35  2  0  0  0  0
  6  7  2  0  0  0  0
  6 40  1  0  0  0  0
  7  8  1  0  0  0  0
  7 10  1  0  0  0  0
  8  9  1  0  0  0  0
  9 41  1  0  0  0  0
  9 42  1  0  0  0  0
  9 43  1  0  0  0  0
 10 11  2  0  0  0  0
 10 44  1  0  0  0  0
 11 12  1  0  0  0  0
 11 35  1  0  0  0  0
 12 13  1  0  0  0  0
 12 17  1  0  0  0  0
 13 14  1  0  0  0  0
 13 45  1  0  0  0  0
 13 46  1  0  0  0  0
 14 15  1  0  0  0  0
 14 47  1  0  0  0  0
 14 48  1  0  0  0  0
 15 16  1  0  0  0  0
 15 49  1  0  0  0  0
 15 50  1  0  0  0  0
 16 51  1  0  0  0  0
 17 18  1  0  0  0  0
 17 34  2  0  0  0  0
 18 19  2  0  0  0  0
 18 52  1  0  0  0  0
 19 20  1  0  0  0  0
 19 53  1  0  0  0  0
 20 21  1  0  0  0  0
 20 33  2  0  0  0  0
 21 22  2  0  0  0  0
 22 23  1  0  0  0  0
 22 54  1  0  0  0  0
 23 24  1  0  0  0  0
 23 32  2  0  0  0  0
 24 25  1  0  0  0  0
 24 31  2  0  0  0  0
 25 26  2  0  0  0  0
 25 55  1  0  0  0  0
 26 27  1  0  0  0  0
 27 28  1  0  0  0  0
 27 31  1  0  0  0  0
 28 29  1  0  0  0  0
 28 56  1  0  0  0  0
 28 57  1  0  0  0  0
 29 30  1  0  0  0  0
 29 58  1  0  0  0  0
 29 59  1  0  0  0  0
 30 60  1  0  0  0  0
 31 61  1  0  0  0  0
 32 33  1  0  0  0  0
 33 34  1  0  0  0  0
 34 62  1  0  0  0  0
 35 63  1  0  0  0  0
M  END
$$$$
