CHEMBL222225
 OpenBabel04072215363D

 37 39  0  0  0  0  0  0  0  0999 V2000
    6.1464   -0.0844    6.9190 N   0  0  0  0  0  0  0  0  0  0  0  0
    6.2997   -0.2689    5.7804 C   0  0  0  0  0  0  0  0  0  0  0  0
    6.4483   -0.4662    4.3843 C   0  0  0  0  0  0  0  0  0  0  0  0
    6.1268    0.4435    3.4047 C   0  0  0  0  0  0  0  0  0  0  0  0
    6.2885   -0.0057    2.1083 N   0  0  0  0  0  0  0  0  0  0  0  0
    6.7021   -1.2599    2.0973 C   0  0  0  0  0  0  0  0  0  0  0  0
    6.8012   -1.9247    0.9202 N   0  0  0  0  0  0  0  0  0  0  0  0
    6.6551   -3.3158    0.7287 C   0  0  0  0  0  0  0  0  0  0  0  0
    6.1485   -3.7598   -0.4965 C   0  0  0  0  0  0  0  0  0  0  0  0
    5.8906   -5.1221   -0.7150 C   0  0  0  0  0  0  0  0  0  0  0  0
    5.2776   -5.5894   -2.0186 C   0  0  0  0  0  0  0  0  0  0  0  0
    3.8185   -5.8061   -1.9886 N   0  0  0  0  0  0  0  0  0  0  0  0
    3.3376   -6.2605   -3.3157 C   0  0  0  0  0  0  0  0  0  0  0  0
    3.3087   -5.1661   -4.4140 C   0  0  0  0  0  0  0  0  0  0  0  0
    2.6434   -3.9102   -4.0336 N   0  0  0  0  0  0  0  0  0  0  0  0
    3.0162   -3.4857   -2.6759 C   0  0  0  0  0  0  0  0  0  0  0  0
    3.0273   -4.6152   -1.6215 C   0  0  0  0  0  0  0  0  0  0  0  0
    6.2172   -6.0167    0.3019 C   0  0  0  0  0  0  0  0  0  0  0  0
    6.7792   -5.5126    1.4609 C   0  0  0  0  0  0  0  0  0  0  0  0
    6.9904   -4.1973    1.6895 N   0  0  0  0  0  0  0  0  0  0  0  0
    7.0495   -1.8887    3.6679 S   0  0  0  0  0  0  0  0  0  0  0  0
    5.7397    1.4427    3.5723 H   0  0  0  0  0  0  0  0  0  0  0  0
    6.4327   -1.3856    0.1485 H   0  0  0  0  0  0  0  0  0  0  0  0
    5.9156   -3.0426   -1.2774 H   0  0  0  0  0  0  0  0  0  0  0  0
    5.7592   -6.5460   -2.2657 H   0  0  0  0  0  0  0  0  0  0  0  0
    5.5772   -4.8981   -2.8152 H   0  0  0  0  0  0  0  0  0  0  0  0
    2.3174   -6.6478   -3.1895 H   0  0  0  0  0  0  0  0  0  0  0  0
    3.9321   -7.1137   -3.6650 H   0  0  0  0  0  0  0  0  0  0  0  0
    2.7906   -5.5672   -5.2938 H   0  0  0  0  0  0  0  0  0  0  0  0
    4.3293   -4.9407   -4.7420 H   0  0  0  0  0  0  0  0  0  0  0  0
    1.6346   -4.0544   -4.0629 H   0  0  0  0  0  0  0  0  0  0  0  0
    2.3026   -2.7171   -2.3550 H   0  0  0  0  0  0  0  0  0  0  0  0
    3.9948   -2.9963   -2.7132 H   0  0  0  0  0  0  0  0  0  0  0  0
    1.9901   -4.9439   -1.4647 H   0  0  0  0  0  0  0  0  0  0  0  0
    3.3375   -4.2173   -0.6495 H   0  0  0  0  0  0  0  0  0  0  0  0
    6.0507   -7.0832    0.1955 H   0  0  0  0  0  0  0  0  0  0  0  0
    7.0844   -6.1705    2.2704 H   0  0  0  0  0  0  0  0  0  0  0  0
  1  2  3  0  0  0  0
  2  3  1  0  0  0  0
  3  4  2  0  0  0  0
  3 21  1  0  0  0  0
  4  5  1  0  0  0  0
  4 22  1  0  0  0  0
  5  6  2  0  0  0  0
  6  7  1  0  0  0  0
  6 21  1  0  0  0  0
  7  8  1  0  0  0  0
  7 23  1  0  0  0  0
  8  9  1  0  0  0  0
  8 20  2  0  0  0  0
  9 10  2  0  0  0  0
  9 24  1  0  0  0  0
 10 11  1  0  0  0  0
 10 18  1  0  0  0  0
 11 12  1  0  0  0  0
 11 25  1  0  0  0  0
 11 26  1  0  0  0  0
 12 13  1  0  0  0  0
 12 17  1  0  0  0  0
 13 14  1  0  0  0  0
 13 27  1  0  0  0  0
 13 28  1  0  0  0  0
 14 15  1  0  0  0  0
 14 29  1  0  0  0  0
 14 30  1  0  0  0  0
 15 16  1  0  0  0  0
 15 31  1  0  0  0  0
 16 17  1  0  0  0  0
 16 32  1  0  0  0  0
 16 33  1  0  0  0  0
 17 34  1  0  0  0  0
 17 35  1  0  0  0  0
 18 19  2  0  0  0  0
 18 36  1  0  0  0  0
 19 20  1  0  0  0  0
 19 37  1  0  0  0  0
M  END
$$$$
