CHEMBL3686060
 OpenBabel04072215373D

 53 57  0  0  1  0  0  0  0  0999 V2000
    2.6016    1.3240   -0.3183 O   0  0  0  0  0  0  0  0  0  0  0  0
    2.5117    0.1468   -0.6338 C   0  0  0  0  0  0  0  0  0  0  0  0
    1.4644   -0.3015   -1.4091 N   0  0  0  0  0  0  0  0  0  0  0  0
    0.3675    0.6246   -1.7181 C   0  0  0  0  0  0  0  0  0  0  0  0
   -0.7111    0.7472   -0.6319 C   0  0  0  0  0  0  0  0  0  0  0  0
   -0.4706   -0.0770    0.4148 F   0  0  0  0  0  0  0  0  0  0  0  0
   -0.8276    2.0045   -0.1594 F   0  0  0  0  0  0  0  0  0  0  0  0
   -1.9182    0.3901   -1.1380 F   0  0  0  0  0  0  0  0  0  0  0  0
    3.3826   -0.8788   -0.3137 N   0  0  0  0  0  0  0  0  0  0  0  0
    4.5720   -0.7753    0.4444 C   0  0  0  0  0  0  0  0  0  0  0  0
    5.0422    0.4332    0.9604 C   0  0  0  0  0  0  0  0  0  0  0  0
    6.2584    0.4911    1.6287 C   0  0  0  0  0  0  0  0  0  0  0  0
    7.0045   -0.6679    1.8192 C   0  0  0  0  0  0  0  0  0  0  0  0
    6.5120   -1.9174    1.4248 C   0  0  0  0  0  0  0  0  0  0  0  0
    7.2100   -3.1570    1.7930 C   0  0  0  0  0  0  0  0  0  0  0  0
    7.3184   -4.3602    1.1059 C   0  0  0  0  0  0  0  0  0  0  0  0
    8.0314   -5.3015    1.8042 N   0  0  0  0  0  0  0  0  0  0  0  0
    8.3653   -4.7128    2.9340 C   0  0  0  0  0  0  0  0  0  0  0  0
    9.1029   -5.2047    4.0548 C   0  0  0  0  0  0  0  0  0  0  0  0
    9.3620   -4.4152    5.1279 C   0  0  0  0  0  0  0  0  0  0  0  0
   10.1205   -4.9842    6.2100 C   0  0  0  0  0  0  0  0  0  0  0  0
   10.1710   -6.2569    6.5627 N   0  0  0  0  0  0  0  0  0  0  0  0
   10.9759   -6.4899    7.6572 N   0  0  0  0  0  0  0  0  0  0  0  0
   11.5402   -5.3896    8.1127 C   0  0  0  0  0  0  0  0  0  0  0  0
   12.5028   -5.3121    9.2577 C   0  0  3  0  0  0  0  0  0  0  0  0
   12.7526   -6.6473    9.9426 C   0  0  0  0  0  0  0  0  0  0  0  0
   13.0339   -6.2387   11.3649 C   0  0  0  0  0  0  0  0  0  0  0  0
   12.1168   -5.0505   11.5489 C   0  0  0  0  0  0  0  0  0  0  0  0
   11.9677   -4.4283   10.2665 O   0  0  0  0  0  0  0  0  0  0  0  0
   11.1301   -3.9879    7.2139 S   0  0  0  0  0  0  0  0  0  0  0  0
    8.8269   -3.0461    5.1381 C   0  0  0  0  0  0  0  0  0  0  0  0
    8.0991   -2.5960    4.1053 C   0  0  0  0  0  0  0  0  0  0  0  0
    7.8858   -3.4060    2.9894 N   0  0  0  0  0  0  0  0  0  0  0  0
    5.3111   -1.9492    0.6881 C   0  0  0  0  0  0  0  0  0  0  0  0
    1.2046   -1.2719   -1.2910 H   0  0  0  0  0  0  0  0  0  0  0  0
   -0.0850    0.2642   -2.6461 H   0  0  0  0  0  0  0  0  0  0  0  0
    0.7867    1.6194   -1.9274 H   0  0  0  0  0  0  0  0  0  0  0  0
    3.1759   -1.7824   -0.7062 H   0  0  0  0  0  0  0  0  0  0  0  0
    4.4939    1.3626    0.8398 H   0  0  0  0  0  0  0  0  0  0  0  0
    6.6246    1.4457    2.0014 H   0  0  0  0  0  0  0  0  0  0  0  0
    7.9779   -0.5671    2.2930 H   0  0  0  0  0  0  0  0  0  0  0  0
    6.9157   -4.5977    0.1288 H   0  0  0  0  0  0  0  0  0  0  0  0
    9.4502   -6.2341    4.0026 H   0  0  0  0  0  0  0  0  0  0  0  0
   13.4520   -4.8780    8.9203 H   0  0  0  0  0  0  0  0  0  0  0  0
   13.5743   -7.2038    9.4819 H   0  0  0  0  0  0  0  0  0  0  0  0
   11.8638   -7.2895    9.9235 H   0  0  0  0  0  0  0  0  0  0  0  0
   14.0798   -5.9274   11.4638 H   0  0  0  0  0  0  0  0  0  0  0  0
   12.8446   -7.0351   12.0898 H   0  0  0  0  0  0  0  0  0  0  0  0
   12.5182   -4.3255   12.2632 H   0  0  0  0  0  0  0  0  0  0  0  0
   11.1233   -5.3602   11.8898 H   0  0  0  0  0  0  0  0  0  0  0  0
    8.9924   -2.4137    6.0016 H   0  0  0  0  0  0  0  0  0  0  0  0
    7.6632   -1.6075    4.1290 H   0  0  0  0  0  0  0  0  0  0  0  0
    4.9364   -2.9011    0.3256 H   0  0  0  0  0  0  0  0  0  0  0  0
  1  2  2  0  0  0  0
  2  3  1  0  0  0  0
  2  9  1  0  0  0  0
  3  4  1  0  0  0  0
  3 35  1  0  0  0  0
  4  5  1  0  0  0  0
  4 36  1  0  0  0  0
  4 37  1  0  0  0  0
  5  6  1  0  0  0  0
  5  7  1  0  0  0  0
  5  8  1  0  0  0  0
  9 10  1  0  0  0  0
  9 38  1  0  0  0  0
 10 11  1  0  0  0  0
 10 34  2  0  0  0  0
 11 12  2  0  0  0  0
 11 39  1  0  0  0  0
 12 13  1  0  0  0  0
 12 40  1  0  0  0  0
 13 14  2  0  0  0  0
 13 41  1  0  0  0  0
 14 15  1  0  0  0  0
 14 34  1  0  0  0  0
 15 16  2  0  0  0  0
 15 33  1  0  0  0  0
 16 17  1  0  0  0  0
 16 42  1  0  0  0  0
 17 18  2  0  0  0  0
 18 19  1  0  0  0  0
 18 33  1  0  0  0  0
 19 20  2  0  0  0  0
 19 43  1  0  0  0  0
 20 21  1  0  0  0  0
 20 31  1  0  0  0  0
 21 22  2  0  0  0  0
 21 30  1  0  0  0  0
 22 23  1  0  0  0  0
 23 24  2  0  0  0  0
 24 25  1  0  0  0  0
 24 30  1  0  0  0  0
 25 26  1  0  0  0  0
 25 29  1  0  0  0  0
 25 44  1  0  0  0  0
 26 27  1  0  0  0  0
 26 45  1  0  0  0  0
 26 46  1  0  0  0  0
 27 28  1  0  0  0  0
 27 47  1  0  0  0  0
 27 48  1  0  0  0  0
 28 29  1  0  0  0  0
 28 49  1  0  0  0  0
 28 50  1  0  0  0  0
 31 32  2  0  0  0  0
 31 51  1  0  0  0  0
 32 33  1  0  0  0  0
 32 52  1  0  0  0  0
 34 53  1  0  0  0  0
M  END
$$$$
