CHEMBL435748
 OpenBabel04072215383D

 47 50  0  0  0  0  0  0  0  0999 V2000
    6.5258   -2.1284    5.3786 C   0  0  0  0  0  0  0  0  0  0  0  0
    7.0270   -2.1561    3.9829 C   0  0  0  0  0  0  0  0  0  0  0  0
    6.3832   -1.9415    2.7805 C   0  0  0  0  0  0  0  0  0  0  0  0
    7.3642   -1.9490    1.7482 C   0  0  0  0  0  0  0  0  0  0  0  0
    7.3426   -1.7127    0.3591 C   0  0  0  0  0  0  0  0  0  0  0  0
    6.1817   -1.4348   -0.2567 F   0  0  0  0  0  0  0  0  0  0  0  0
    8.5342   -1.7380   -0.3765 C   0  0  0  0  0  0  0  0  0  0  0  0
    8.4429   -1.4814   -1.7293 O   0  0  0  0  0  0  0  0  0  0  0  0
    9.4646   -0.7628   -2.3387 C   0  0  0  0  0  0  0  0  0  0  0  0
   10.1714    0.1123   -1.5913 N   0  0  0  0  0  0  0  0  0  0  0  0
   11.1972    0.7077   -2.2078 C   0  0  0  0  0  0  0  0  0  0  0  0
   11.5622    0.5204   -3.4828 N   0  0  0  0  0  0  0  0  0  0  0  0
   10.8156   -0.3293   -4.2065 C   0  0  0  0  0  0  0  0  0  0  0  0
   11.1568   -0.3974   -5.5565 N   0  0  0  0  0  0  0  0  0  0  0  0
    9.7240   -0.9978   -3.6761 C   0  0  0  0  0  0  0  0  0  0  0  0
    8.9183   -1.9490   -4.4499 C   0  0  0  0  0  0  0  0  0  0  0  0
    9.4453   -2.6677   -5.3924 N   0  0  0  0  0  0  0  0  0  0  0  0
    8.4471   -3.4856   -5.9477 O   0  0  0  0  0  0  0  0  0  0  0  0
    9.0774   -4.5894   -6.6012 C   0  0  0  0  0  0  0  0  0  0  0  0
    8.0385   -5.4290   -7.2970 C   0  0  0  0  0  0  0  0  0  0  0  0
    7.3271   -4.9156   -8.3912 C   0  0  0  0  0  0  0  0  0  0  0  0
    6.3731   -5.6970   -9.0452 C   0  0  0  0  0  0  0  0  0  0  0  0
    6.1200   -6.9974   -8.6119 C   0  0  0  0  0  0  0  0  0  0  0  0
    6.8198   -7.5173   -7.5247 C   0  0  0  0  0  0  0  0  0  0  0  0
    7.7742   -6.7377   -6.8697 C   0  0  0  0  0  0  0  0  0  0  0  0
    9.7333   -2.0798    0.2577 C   0  0  0  0  0  0  0  0  0  0  0  0
    9.7837   -2.3256    1.6349 C   0  0  0  0  0  0  0  0  0  0  0  0
    8.5868   -2.2416    2.3536 C   0  0  0  0  0  0  0  0  0  0  0  0
    8.3480   -2.4004    3.6995 N   0  0  0  0  0  0  0  0  0  0  0  0
    5.4632   -1.8685    5.4106 H   0  0  0  0  0  0  0  0  0  0  0  0
    7.0715   -1.3765    5.9593 H   0  0  0  0  0  0  0  0  0  0  0  0
    6.6583   -3.1007    5.8625 H   0  0  0  0  0  0  0  0  0  0  0  0
    5.3273   -1.7371    2.6546 H   0  0  0  0  0  0  0  0  0  0  0  0
   11.7927    1.3992   -1.6206 H   0  0  0  0  0  0  0  0  0  0  0  0
   12.0504    0.0551   -5.7089 H   0  0  0  0  0  0  0  0  0  0  0  0
   11.0947   -1.3490   -5.9203 H   0  0  0  0  0  0  0  0  0  0  0  0
    7.8536   -2.0543   -4.1777 H   0  0  0  0  0  0  0  0  0  0  0  0
    9.6069   -5.1808   -5.8447 H   0  0  0  0  0  0  0  0  0  0  0  0
    9.8127   -4.2319   -7.3326 H   0  0  0  0  0  0  0  0  0  0  0  0
    7.5137   -3.9000   -8.7351 H   0  0  0  0  0  0  0  0  0  0  0  0
    5.8257   -5.2899   -9.8912 H   0  0  0  0  0  0  0  0  0  0  0  0
    5.3753   -7.6044   -9.1195 H   0  0  0  0  0  0  0  0  0  0  0  0
    6.6210   -8.5305   -7.1850 H   0  0  0  0  0  0  0  0  0  0  0  0
    8.3095   -7.1584   -6.0216 H   0  0  0  0  0  0  0  0  0  0  0  0
   10.6606   -2.1376   -0.3068 H   0  0  0  0  0  0  0  0  0  0  0  0
   10.7262   -2.5532    2.1235 H   0  0  0  0  0  0  0  0  0  0  0  0
    9.0601   -2.6133    4.3847 H   0  0  0  0  0  0  0  0  0  0  0  0
  1  2  1  0  0  0  0
  1 30  1  0  0  0  0
  1 31  1  0  0  0  0
  1 32  1  0  0  0  0
  2  3  2  0  0  0  0
  2 29  1  0  0  0  0
  3  4  1  0  0  0  0
  3 33  1  0  0  0  0
  4  5  1  0  0  0  0
  4 28  2  0  0  0  0
  5  6  1  0  0  0  0
  5  7  2  0  0  0  0
  7  8  1  0  0  0  0
  7 26  1  0  0  0  0
  8  9  1  0  0  0  0
  9 10  1  0  0  0  0
  9 15  2  0  0  0  0
 10 11  2  0  0  0  0
 11 12  1  0  0  0  0
 11 34  1  0  0  0  0
 12 13  2  0  0  0  0
 13 14  1  0  0  0  0
 13 15  1  0  0  0  0
 14 35  1  0  0  0  0
 14 36  1  0  0  0  0
 15 16  1  0  0  0  0
 16 17  2  0  0  0  0
 16 37  1  0  0  0  0
 17 18  1  0  0  0  0
 18 19  1  0  0  0  0
 19 20  1  0  0  0  0
 19 38  1  0  0  0  0
 19 39  1  0  0  0  0
 20 21  1  0  0  0  0
 20 25  2  0  0  0  0
 21 22  2  0  0  0  0
 21 40  1  0  0  0  0
 22 23  1  0  0  0  0
 22 41  1  0  0  0  0
 23 24  2  0  0  0  0
 23 42  1  0  0  0  0
 24 25  1  0  0  0  0
 24 43  1  0  0  0  0
 25 44  1  0  0  0  0
 26 27  2  0  0  0  0
 26 45  1  0  0  0  0
 27 28  1  0  0  0  0
 27 46  1  0  0  0  0
 28 29  1  0  0  0  0
 29 47  1  0  0  0  0
M  END
$$$$
