CHEMBL3671509
 OpenBabel04072215373D

 55 57  0  0  0  0  0  0  0  0999 V2000
    3.4168   -3.1750    2.3308 C   0  0  0  0  0  0  0  0  0  0  0  0
    3.5065   -2.8780    1.0287 C   0  0  0  0  0  0  0  0  0  0  0  0
    3.7175   -1.4655    0.6139 C   0  0  0  0  0  0  0  0  0  0  0  0
    3.3002   -0.5201    1.2762 O   0  0  0  0  0  0  0  0  0  0  0  0
    4.4519   -1.2400   -0.5281 N   0  0  0  0  0  0  0  0  0  0  0  0
    5.3179   -2.2167   -1.0653 C   0  0  0  0  0  0  0  0  0  0  0  0
    6.4216   -2.5976   -0.3049 C   0  0  0  0  0  0  0  0  0  0  0  0
    7.1348   -3.7718   -0.6305 C   0  0  0  0  0  0  0  0  0  0  0  0
    8.1421   -4.3366    0.1615 C   0  0  0  0  0  0  0  0  0  0  0  0
    8.4696   -3.7537    1.4157 N   0  0  0  0  0  0  0  0  0  0  0  0
    9.1607   -4.4470    2.4389 C   0  0  0  0  0  0  0  0  0  0  0  0
    8.8148   -5.7650    2.7757 C   0  0  0  0  0  0  0  0  0  0  0  0
    9.5778   -6.4923    3.6901 C   0  0  0  0  0  0  0  0  0  0  0  0
   10.6779   -5.8948    4.2963 C   0  0  0  0  0  0  0  0  0  0  0  0
   11.7704   -6.9164    5.4519 Br  0  0  0  0  0  0  0  0  0  0  0  0
   10.9941   -4.5626    4.0380 C   0  0  0  0  0  0  0  0  0  0  0  0
   10.2263   -3.8496    3.1223 C   0  0  0  0  0  0  0  0  0  0  0  0
   10.5464   -2.5733    2.8554 F   0  0  0  0  0  0  0  0  0  0  0  0
    8.7677   -5.4762   -0.1925 N   0  0  0  0  0  0  0  0  0  0  0  0
    8.3679   -6.0643   -1.3262 C   0  0  0  0  0  0  0  0  0  0  0  0
    7.3916   -5.6359   -2.1248 N   0  0  0  0  0  0  0  0  0  0  0  0
    6.7750   -4.5051   -1.7719 C   0  0  0  0  0  0  0  0  0  0  0  0
    5.7134   -4.0643   -2.5490 C   0  0  0  0  0  0  0  0  0  0  0  0
    4.9837   -2.9166   -2.2283 C   0  0  0  0  0  0  0  0  0  0  0  0
    3.9475   -2.6384   -3.0840 O   0  0  0  0  0  0  0  0  0  0  0  0
    3.6867   -1.2469   -3.2840 C   0  0  0  0  0  0  0  0  0  0  0  0
    3.1962   -0.9936   -4.7127 C   0  0  0  0  0  0  0  0  0  0  0  0
    2.9711    0.4396   -4.9179 N   0  0  0  0  0  0  0  0  0  0  0  0
    3.9031    1.3597   -5.2972 C   0  0  0  0  0  0  0  0  0  0  0  0
    5.2125    1.0838   -6.2837 S   0  0  0  0  0  0  0  0  0  0  0  0
    3.7318    2.6061   -4.7668 N   0  0  0  0  0  0  0  0  0  0  0  0
    3.1148    2.8797   -3.4757 C   0  0  0  0  0  0  0  0  0  0  0  0
    3.7122    4.1042   -2.8073 C   0  0  0  0  0  0  0  0  0  0  0  0
    3.3277   -4.2035    2.6641 H   0  0  0  0  0  0  0  0  0  0  0  0
    3.4511   -2.3990    3.0917 H   0  0  0  0  0  0  0  0  0  0  0  0
    3.4929   -3.6562    0.2747 H   0  0  0  0  0  0  0  0  0  0  0  0
    4.8182   -0.2958   -0.4843 H   0  0  0  0  0  0  0  0  0  0  0  0
    6.6691   -2.0433    0.5981 H   0  0  0  0  0  0  0  0  0  0  0  0
    8.8264   -2.8091    1.2941 H   0  0  0  0  0  0  0  0  0  0  0  0
    7.9663   -6.2438    2.2915 H   0  0  0  0  0  0  0  0  0  0  0  0
    9.3148   -7.5280    3.8933 H   0  0  0  0  0  0  0  0  0  0  0  0
   11.8402   -4.0806    4.5154 H   0  0  0  0  0  0  0  0  0  0  0  0
    8.8779   -6.9776   -1.6032 H   0  0  0  0  0  0  0  0  0  0  0  0
    5.4226   -4.6514   -3.4183 H   0  0  0  0  0  0  0  0  0  0  0  0
    4.5824   -0.6364   -3.1142 H   0  0  0  0  0  0  0  0  0  0  0  0
    2.9028   -0.9332   -2.5835 H   0  0  0  0  0  0  0  0  0  0  0  0
    2.2460   -1.5041   -4.8883 H   0  0  0  0  0  0  0  0  0  0  0  0
    3.9162   -1.3783   -5.4366 H   0  0  0  0  0  0  0  0  0  0  0  0
    2.0984    0.8098   -4.5698 H   0  0  0  0  0  0  0  0  0  0  0  0
    4.4084    3.2869   -5.1055 H   0  0  0  0  0  0  0  0  0  0  0  0
    3.2632    2.0088   -2.8267 H   0  0  0  0  0  0  0  0  0  0  0  0
    2.0411    3.0119   -3.6349 H   0  0  0  0  0  0  0  0  0  0  0  0
    4.7913    3.9805   -2.6597 H   0  0  0  0  0  0  0  0  0  0  0  0
    3.2525    4.2626   -1.8265 H   0  0  0  0  0  0  0  0  0  0  0  0
    3.5574    5.0020   -3.4122 H   0  0  0  0  0  0  0  0  0  0  0  0
  1  2  2  0  0  0  0
  1 34  1  0  0  0  0
  1 35  1  0  0  0  0
  2  3  1  0  0  0  0
  2 36  1  0  0  0  0
  3  4  2  0  0  0  0
  3  5  1  0  0  0  0
  5  6  1  0  0  0  0
  5 37  1  0  0  0  0
  6  7  1  0  0  0  0
  6 24  2  0  0  0  0
  7  8  2  0  0  0  0
  7 38  1  0  0  0  0
  8  9  1  0  0  0  0
  8 22  1  0  0  0  0
  9 10  1  0  0  0  0
  9 19  2  0  0  0  0
 10 11  1  0  0  0  0
 10 39  1  0  0  0  0
 11 12  1  0  0  0  0
 11 17  2  0  0  0  0
 12 13  2  0  0  0  0
 12 40  1  0  0  0  0
 13 14  1  0  0  0  0
 13 41  1  0  0  0  0
 14 15  1  0  0  0  0
 14 16  2  0  0  0  0
 16 17  1  0  0  0  0
 16 42  1  0  0  0  0
 17 18  1  0  0  0  0
 19 20  1  0  0  0  0
 20 21  2  0  0  0  0
 20 43  1  0  0  0  0
 21 22  1  0  0  0  0
 22 23  2  0  0  0  0
 23 24  1  0  0  0  0
 23 44  1  0  0  0  0
 24 25  1  0  0  0  0
 25 26  1  0  0  0  0
 26 27  1  0  0  0  0
 26 45  1  0  0  0  0
 26 46  1  0  0  0  0
 27 28  1  0  0  0  0
 27 47  1  0  0  0  0
 27 48  1  0  0  0  0
 28 29  1  0  0  0  0
 28 49  1  0  0  0  0
 29 30  2  0  0  0  0
 29 31  1  0  0  0  0
 31 32  1  0  0  0  0
 31 50  1  0  0  0  0
 32 33  1  0  0  0  0
 32 51  1  0  0  0  0
 32 52  1  0  0  0  0
 33 53  1  0  0  0  0
 33 54  1  0  0  0  0
 33 55  1  0  0  0  0
M  END
$$$$
