CHEMBL3961102
 OpenBabel04072215373D

 57 60  0  0  1  0  0  0  0  0999 V2000
    1.1415    0.5331   -3.0180 C   0  0  0  0  0  0  0  0  0  0  0  0
    1.6412    0.4846   -1.5675 C   0  0  1  0  0  0  0  0  0  0  0  0
    2.8151   -0.3922   -1.4340 N   0  0  0  0  0  0  0  0  0  0  0  0
    2.5969   -1.7428   -1.7289 C   0  0  0  0  0  0  0  0  0  0  0  0
    1.3710   -2.3025   -1.5913 N   0  0  0  0  0  0  0  0  0  0  0  0
    1.1985   -3.5853   -1.9737 C   0  0  0  0  0  0  0  0  0  0  0  0
    2.1083   -4.4299   -2.4860 N   0  0  0  0  0  0  0  0  0  0  0  0
    3.3087   -3.8430   -2.5798 C   0  0  0  0  0  0  0  0  0  0  0  0
    4.4277   -4.4370   -3.0868 N   0  0  0  0  0  0  0  0  0  0  0  0
    5.4867   -3.5530   -3.0943 C   0  0  0  0  0  0  0  0  0  0  0  0
    6.7829   -3.8729   -3.6837 C   0  0  0  0  0  0  0  0  0  0  0  0
    6.8553   -4.7428   -4.7682 C   0  0  0  0  0  0  0  0  0  0  0  0
    8.0800   -5.0224   -5.3802 C   0  0  0  0  0  0  0  0  0  0  0  0
    9.2632   -4.4508   -4.9184 C   0  0  0  0  0  0  0  0  0  0  0  0
   10.5189   -4.7249   -5.5054 N   0  0  0  0  0  0  0  0  0  0  0  0
   10.7453   -5.5564   -6.5869 C   0  0  0  0  0  0  0  0  0  0  0  0
    9.9070   -6.2036   -7.2105 O   0  0  0  0  0  0  0  0  0  0  0  0
   12.1896   -5.6320   -7.0301 C   0  0  0  0  0  0  0  0  0  0  0  0
   12.2767   -5.2291   -8.4970 C   0  0  0  0  0  0  0  0  0  0  0  0
   11.8586   -3.7910   -8.7121 C   0  0  0  0  0  0  0  0  0  0  0  0
   11.9788   -2.9152   -7.8630 O   0  0  0  0  0  0  0  0  0  0  0  0
   11.3838   -3.5427   -9.9755 N   0  0  0  0  0  0  0  0  0  0  0  0
   10.9463   -2.2303  -10.2512 O   0  0  0  0  0  0  0  0  0  0  0  0
    9.1998   -3.5692   -3.8322 C   0  0  0  0  0  0  0  0  0  0  0  0
    7.9694   -3.2848   -3.2185 C   0  0  0  0  0  0  0  0  0  0  0  0
    5.0153   -2.3789   -2.5282 C   0  0  0  0  0  0  0  0  0  0  0  0
    3.6358   -2.5485   -2.2208 C   0  0  0  0  0  0  0  0  0  0  0  0
    2.0533    1.8808   -1.1091 C   0  0  0  0  0  0  0  0  0  0  0  0
    1.4112    2.4880   -0.0187 C   0  0  0  0  0  0  0  0  0  0  0  0
    1.8337    3.7341    0.4516 C   0  0  0  0  0  0  0  0  0  0  0  0
    2.8920    4.3950   -0.1692 C   0  0  0  0  0  0  0  0  0  0  0  0
    3.5138    3.8239   -1.2765 C   0  0  0  0  0  0  0  0  0  0  0  0
    3.0967    2.5770   -1.7446 C   0  0  0  0  0  0  0  0  0  0  0  0
    0.6642   -0.4087   -3.3069 H   0  0  0  0  0  0  0  0  0  0  0  0
    1.9600    0.7072   -3.7244 H   0  0  0  0  0  0  0  0  0  0  0  0
    0.3990    1.3272   -3.1541 H   0  0  0  0  0  0  0  0  0  0  0  0
    0.8291    0.1325   -0.9173 H   0  0  0  0  0  0  0  0  0  0  0  0
    3.1708   -0.3464   -0.4801 H   0  0  0  0  0  0  0  0  0  0  0  0
    0.1952   -3.9821   -1.8612 H   0  0  0  0  0  0  0  0  0  0  0  0
    4.4398   -5.3817   -3.4454 H   0  0  0  0  0  0  0  0  0  0  0  0
    5.9650   -5.1983   -5.1936 H   0  0  0  0  0  0  0  0  0  0  0  0
    8.0498   -5.6850   -6.2353 H   0  0  0  0  0  0  0  0  0  0  0  0
   11.3129   -4.2224   -5.1230 H   0  0  0  0  0  0  0  0  0  0  0  0
   12.5014   -6.6780   -6.9191 H   0  0  0  0  0  0  0  0  0  0  0  0
   12.8428   -5.0246   -6.3984 H   0  0  0  0  0  0  0  0  0  0  0  0
   11.6501   -5.8849   -9.1136 H   0  0  0  0  0  0  0  0  0  0  0  0
   13.3095   -5.3312   -8.8481 H   0  0  0  0  0  0  0  0  0  0  0  0
   11.1520   -4.2582  -10.6565 H   0  0  0  0  0  0  0  0  0  0  0  0
   11.1340   -1.7621   -9.4096 H   0  0  0  0  0  0  0  0  0  0  0  0
   10.0943   -3.0836   -3.4506 H   0  0  0  0  0  0  0  0  0  0  0  0
    7.9466   -2.6012   -2.3722 H   0  0  0  0  0  0  0  0  0  0  0  0
    5.5821   -1.4653   -2.4064 H   0  0  0  0  0  0  0  0  0  0  0  0
    0.5816    1.9913    0.4793 H   0  0  0  0  0  0  0  0  0  0  0  0
    1.3428    4.1853    1.3100 H   0  0  0  0  0  0  0  0  0  0  0  0
    3.2333    5.3544    0.2108 H   0  0  0  0  0  0  0  0  0  0  0  0
    4.3328    4.3411   -1.7691 H   0  0  0  0  0  0  0  0  0  0  0  0
    3.6017    2.1360   -2.6021 H   0  0  0  0  0  0  0  0  0  0  0  0
  1  2  1  0  0  0  0
  1 34  1  0  0  0  0
  1 35  1  0  0  0  0
  1 36  1  0  0  0  0
  2  3  1  0  0  0  0
  2 28  1  0  0  0  0
  2 37  1  1  0  0  0
  3  4  1  0  0  0  0
  3 38  1  0  0  0  0
  4  5  1  0  0  0  0
  4 27  2  0  0  0  0
  5  6  2  0  0  0  0
  6  7  1  0  0  0  0
  6 39  1  0  0  0  0
  7  8  2  0  0  0  0
  8  9  1  0  0  0  0
  8 27  1  0  0  0  0
  9 10  1  0  0  0  0
  9 40  1  0  0  0  0
 10 11  1  0  0  0  0
 10 26  2  0  0  0  0
 11 12  1  0  0  0  0
 11 25  2  0  0  0  0
 12 13  2  0  0  0  0
 12 41  1  0  0  0  0
 13 14  1  0  0  0  0
 13 42  1  0  0  0  0
 14 15  1  0  0  0  0
 14 24  2  0  0  0  0
 15 16  1  0  0  0  0
 15 43  1  0  0  0  0
 16 17  2  0  0  0  0
 16 18  1  0  0  0  0
 18 19  1  0  0  0  0
 18 44  1  0  0  0  0
 18 45  1  0  0  0  0
 19 20  1  0  0  0  0
 19 46  1  0  0  0  0
 19 47  1  0  0  0  0
 20 21  2  0  0  0  0
 20 22  1  0  0  0  0
 22 23  1  0  0  0  0
 22 48  1  0  0  0  0
 23 49  1  0  0  0  0
 24 25  1  0  0  0  0
 24 50  1  0  0  0  0
 25 51  1  0  0  0  0
 26 27  1  0  0  0  0
 26 52  1  0  0  0  0
 28 29  1  0  0  0  0
 28 33  2  0  0  0  0
 29 30  2  0  0  0  0
 29 53  1  0  0  0  0
 30 31  1  0  0  0  0
 30 54  1  0  0  0  0
 31 32  2  0  0  0  0
 31 55  1  0  0  0  0
 32 33  1  0  0  0  0
 32 56  1  0  0  0  0
 33 57  1  0  0  0  0
M  END
$$$$
