CHEMBL3397928
 OpenBabel04072215363D

 56 59  0  0  0  0  0  0  0  0999 V2000
    1.1669    0.7090    0.1755 O   0  0  0  0  0  0  0  0  0  0  0  0
    2.2746    0.1911    0.0661 C   0  0  0  0  0  0  0  0  0  0  0  0
    2.8567   -0.2911   -1.0969 N   0  0  0  0  0  0  0  0  0  0  0  0
    2.2895   -0.2146   -2.3868 C   0  0  0  0  0  0  0  0  0  0  0  0
    1.2182    0.6233   -2.6829 C   0  0  0  0  0  0  0  0  0  0  0  0
    0.6530    0.6378   -3.9584 C   0  0  0  0  0  0  0  0  0  0  0  0
    1.1552   -0.1774   -4.9707 C   0  0  0  0  0  0  0  0  0  0  0  0
    0.6446   -0.2510   -6.2425 O   0  0  0  0  0  0  0  0  0  0  0  0
   -0.0700    0.9215   -6.6566 C   0  0  0  0  0  0  0  0  0  0  0  0
   -0.6876    0.7305   -8.0498 C   0  0  0  0  0  0  0  0  0  0  0  0
   -1.2841    1.9719   -8.5807 N   0  0  0  0  0  0  0  0  0  0  0  0
   -2.4194    2.4878   -7.8021 C   0  0  0  0  0  0  0  0  0  0  0  0
   -3.6417    1.7852   -8.3546 C   0  0  0  0  0  0  0  0  0  0  0  0
   -3.3311    1.6426   -9.8311 C   0  0  0  0  0  0  0  0  0  0  0  0
   -1.8143    1.7723   -9.9420 C   0  0  0  0  0  0  0  0  0  0  0  0
    2.2378   -1.0090   -4.6862 C   0  0  0  0  0  0  0  0  0  0  0  0
    2.8155   -1.0146   -3.4067 C   0  0  0  0  0  0  0  0  0  0  0  0
    3.0549   -0.0061    1.3120 C   0  0  0  0  0  0  0  0  0  0  0  0
    2.3536   -0.2594    2.4936 C   0  0  0  0  0  0  0  0  0  0  0  0
    3.0458   -0.4212    3.6867 C   0  0  0  0  0  0  0  0  0  0  0  0
    4.4410   -0.3394    3.6966 C   0  0  0  0  0  0  0  0  0  0  0  0
    5.1791   -0.1125    2.5176 C   0  0  0  0  0  0  0  0  0  0  0  0
    6.6611   -0.1521    2.5062 C   0  0  0  0  0  0  0  0  0  0  0  0
    7.3650   -1.0257    3.3577 C   0  0  0  0  0  0  0  0  0  0  0  0
    8.7557   -1.1560    3.2886 C   0  0  0  0  0  0  0  0  0  0  0  0
    9.4769   -0.4259    2.3488 C   0  0  0  0  0  0  0  0  0  0  0  0
    8.8017    0.4479    1.5080 C   0  0  0  0  0  0  0  0  0  0  0  0
    9.4601    1.1581    0.5476 O   0  0  0  0  0  0  0  0  0  0  0  0
    7.4194    0.6067    1.5968 C   0  0  0  0  0  0  0  0  0  0  0  0
    4.4527    0.0812    1.3279 C   0  0  0  0  0  0  0  0  0  0  0  0
    3.6855   -0.8649   -1.0051 H   0  0  0  0  0  0  0  0  0  0  0  0
    0.7913    1.2925   -1.9426 H   0  0  0  0  0  0  0  0  0  0  0  0
   -0.1971    1.2938   -4.0984 H   0  0  0  0  0  0  0  0  0  0  0  0
    0.6244    1.7713   -6.6707 H   0  0  0  0  0  0  0  0  0  0  0  0
   -0.8901    1.1129   -5.9630 H   0  0  0  0  0  0  0  0  0  0  0  0
   -1.4146   -0.0913   -8.0190 H   0  0  0  0  0  0  0  0  0  0  0  0
    0.1133    0.4000   -8.7240 H   0  0  0  0  0  0  0  0  0  0  0  0
   -2.4993    3.5671   -7.9845 H   0  0  0  0  0  0  0  0  0  0  0  0
   -2.3345    2.3705   -6.7195 H   0  0  0  0  0  0  0  0  0  0  0  0
   -4.5598    2.3549   -8.1789 H   0  0  0  0  0  0  0  0  0  0  0  0
   -3.7616    0.7968   -7.8947 H   0  0  0  0  0  0  0  0  0  0  0  0
   -3.8189    2.4423  -10.3998 H   0  0  0  0  0  0  0  0  0  0  0  0
   -3.6915    0.6844  -10.2167 H   0  0  0  0  0  0  0  0  0  0  0  0
   -1.5700    2.6547  -10.5442 H   0  0  0  0  0  0  0  0  0  0  0  0
   -1.3738    0.9117  -10.4590 H   0  0  0  0  0  0  0  0  0  0  0  0
    2.6376   -1.6578   -5.4601 H   0  0  0  0  0  0  0  0  0  0  0  0
    3.6625   -1.6719   -3.2187 H   0  0  0  0  0  0  0  0  0  0  0  0
    1.2673   -0.3302    2.4813 H   0  0  0  0  0  0  0  0  0  0  0  0
    2.5021   -0.6168    4.6073 H   0  0  0  0  0  0  0  0  0  0  0  0
    4.9485   -0.4602    4.6515 H   0  0  0  0  0  0  0  0  0  0  0  0
    6.8323   -1.6486    4.0736 H   0  0  0  0  0  0  0  0  0  0  0  0
    9.2659   -1.8451    3.9557 H   0  0  0  0  0  0  0  0  0  0  0  0
   10.5523   -0.5526    2.2879 H   0  0  0  0  0  0  0  0  0  0  0  0
   10.3789    0.8452    0.5090 H   0  0  0  0  0  0  0  0  0  0  0  0
    6.9443    1.3180    0.9261 H   0  0  0  0  0  0  0  0  0  0  0  0
    4.9795    0.3009    0.4031 H   0  0  0  0  0  0  0  0  0  0  0  0
  1  2  2  0  0  0  0
  2  3  1  0  0  0  0
  2 18  1  0  0  0  0
  3  4  1  0  0  0  0
  3 31  1  0  0  0  0
  4  5  1  0  0  0  0
  4 17  2  0  0  0  0
  5  6  2  0  0  0  0
  5 32  1  0  0  0  0
  6  7  1  0  0  0  0
  6 33  1  0  0  0  0
  7  8  1  0  0  0  0
  7 16  2  0  0  0  0
  8  9  1  0  0  0  0
  9 10  1  0  0  0  0
  9 34  1  0  0  0  0
  9 35  1  0  0  0  0
 10 11  1  0  0  0  0
 10 36  1  0  0  0  0
 10 37  1  0  0  0  0
 11 12  1  0  0  0  0
 11 15  1  0  0  0  0
 12 13  1  0  0  0  0
 12 38  1  0  0  0  0
 12 39  1  0  0  0  0
 13 14  1  0  0  0  0
 13 40  1  0  0  0  0
 13 41  1  0  0  0  0
 14 15  1  0  0  0  0
 14 42  1  0  0  0  0
 14 43  1  0  0  0  0
 15 44  1  0  0  0  0
 15 45  1  0  0  0  0
 16 17  1  0  0  0  0
 16 46  1  0  0  0  0
 17 47  1  0  0  0  0
 18 19  1  0  0  0  0
 18 30  2  0  0  0  0
 19 20  2  0  0  0  0
 19 48  1  0  0  0  0
 20 21  1  0  0  0  0
 20 49  1  0  0  0  0
 21 22  2  0  0  0  0
 21 50  1  0  0  0  0
 22 23  1  0  0  0  0
 22 30  1  0  0  0  0
 23 24  1  0  0  0  0
 23 29  2  0  0  0  0
 24 25  2  0  0  0  0
 24 51  1  0  0  0  0
 25 26  1  0  0  0  0
 25 52  1  0  0  0  0
 26 27  2  0  0  0  0
 26 53  1  0  0  0  0
 27 28  1  0  0  0  0
 27 29  1  0  0  0  0
 28 54  1  0  0  0  0
 29 55  1  0  0  0  0
 30 56  1  0  0  0  0
M  END
$$$$
