CHEMBL3920239
 OpenBabel04072215373D

 51 55  0  0  0  0  0  0  0  0999 V2000
    2.4519   -0.3419    0.9108 C   0  0  0  0  0  0  0  0  0  0  0  0
    0.9546   -0.2634    0.9714 C   0  0  0  0  0  0  0  0  0  0  0  0
    0.3553    0.9349    1.3741 C   0  0  0  0  0  0  0  0  0  0  0  0
   -1.0267    1.0295    1.4409 C   0  0  0  0  0  0  0  0  0  0  0  0
   -1.8164   -0.0767    1.1140 C   0  0  0  0  0  0  0  0  0  0  0  0
   -1.2541   -1.2882    0.6958 C   0  0  0  0  0  0  0  0  0  0  0  0
   -2.0354   -2.4301    0.3514 N   0  0  0  0  0  0  0  0  0  0  0  0
   -3.4183   -2.4351    0.2788 C   0  0  0  0  0  0  0  0  0  0  0  0
   -4.1226   -1.4372    0.4361 O   0  0  0  0  0  0  0  0  0  0  0  0
   -3.9768   -3.6902    0.0383 N   0  0  0  0  0  0  0  0  0  0  0  0
   -5.4075   -3.7984    0.0082 C   0  0  0  0  0  0  0  0  0  0  0  0
   -6.1082   -2.8676   -0.7578 C   0  0  0  0  0  0  0  0  0  0  0  0
   -7.4885   -2.7644   -0.6654 C   0  0  0  0  0  0  0  0  0  0  0  0
   -8.2678   -3.6935    0.0379 C   0  0  0  0  0  0  0  0  0  0  0  0
   -9.7473   -3.4801    0.0671 C   0  0  0  0  0  0  0  0  0  0  0  0
  -10.5007   -3.5974    1.2507 C   0  0  0  0  0  0  0  0  0  0  0  0
  -11.8368   -3.4189    1.4001 N   0  0  0  0  0  0  0  0  0  0  0  0
  -12.5444   -2.9976    0.3411 C   0  0  0  0  0  0  0  0  0  0  0  0
  -11.8791   -2.7553   -0.8470 C   0  0  0  0  0  0  0  0  0  0  0  0
  -12.3441   -2.2306   -2.0174 N   0  0  0  0  0  0  0  0  0  0  0  0
  -11.4228   -2.1308   -2.9754 N   0  0  0  0  0  0  0  0  0  0  0  0
  -10.3297   -2.6492   -2.4220 C   0  0  0  0  0  0  0  0  0  0  0  0
   -9.2115   -2.7560   -3.1445 N   0  0  0  0  0  0  0  0  0  0  0  0
  -10.5161   -3.0091   -1.0414 C   0  0  0  0  0  0  0  0  0  0  0  0
   -7.5643   -4.7119    0.7796 C   0  0  0  0  0  0  0  0  0  0  0  0
   -8.2235   -5.6963    1.5610 C   0  0  0  0  0  0  0  0  0  0  0  0
   -7.5520   -6.5259    2.4591 C   0  0  0  0  0  0  0  0  0  0  0  0
   -6.1745   -6.4722    2.5385 C   0  0  0  0  0  0  0  0  0  0  0  0
   -5.4720   -5.6147    1.6939 C   0  0  0  0  0  0  0  0  0  0  0  0
   -6.1257   -4.7271    0.8030 C   0  0  0  0  0  0  0  0  0  0  0  0
    0.1460   -1.3696    0.6288 C   0  0  0  0  0  0  0  0  0  0  0  0
    2.9106    0.5988    1.2377 H   0  0  0  0  0  0  0  0  0  0  0  0
    2.7844   -0.5318   -0.1150 H   0  0  0  0  0  0  0  0  0  0  0  0
    2.8199   -1.1313    1.5719 H   0  0  0  0  0  0  0  0  0  0  0  0
    0.9526    1.8010    1.6374 H   0  0  0  0  0  0  0  0  0  0  0  0
   -1.4992    1.9474    1.7518 H   0  0  0  0  0  0  0  0  0  0  0  0
   -2.8867    0.0753    1.2046 H   0  0  0  0  0  0  0  0  0  0  0  0
   -1.5414   -3.2430    0.0151 H   0  0  0  0  0  0  0  0  0  0  0  0
   -3.4592   -4.4632    0.4216 H   0  0  0  0  0  0  0  0  0  0  0  0
   -5.5794   -2.1429   -1.3739 H   0  0  0  0  0  0  0  0  0  0  0  0
   -7.9471   -1.9007   -1.1449 H   0  0  0  0  0  0  0  0  0  0  0  0
  -10.0147   -3.8410    2.1939 H   0  0  0  0  0  0  0  0  0  0  0  0
  -13.6050   -2.8339    0.4850 H   0  0  0  0  0  0  0  0  0  0  0  0
  -13.2797   -1.8993   -2.2192 H   0  0  0  0  0  0  0  0  0  0  0  0
   -9.1663   -2.2968   -4.0459 H   0  0  0  0  0  0  0  0  0  0  0  0
   -8.3799   -3.2509   -2.8549 H   0  0  0  0  0  0  0  0  0  0  0  0
   -9.3029   -5.8196    1.5156 H   0  0  0  0  0  0  0  0  0  0  0  0
   -8.1147   -7.1952    3.1055 H   0  0  0  0  0  0  0  0  0  0  0  0
   -5.6436   -7.0955    3.2522 H   0  0  0  0  0  0  0  0  0  0  0  0
   -4.3911   -5.6200    1.7902 H   0  0  0  0  0  0  0  0  0  0  0  0
    0.6263   -2.2903    0.3107 H   0  0  0  0  0  0  0  0  0  0  0  0
  1  2  1  0  0  0  0
  1 32  1  0  0  0  0
  1 33  1  0  0  0  0
  1 34  1  0  0  0  0
  2  3  1  0  0  0  0
  2 31  2  0  0  0  0
  3  4  2  0  0  0  0
  3 35  1  0  0  0  0
  4  5  1  0  0  0  0
  4 36  1  0  0  0  0
  5  6  2  0  0  0  0
  5 37  1  0  0  0  0
  6  7  1  0  0  0  0
  6 31  1  0  0  0  0
  7  8  1  0  0  0  0
  7 38  1  0  0  0  0
  8  9  2  0  0  0  0
  8 10  1  0  0  0  0
 10 11  1  0  0  0  0
 10 39  1  0  0  0  0
 11 12  1  0  0  0  0
 11 30  2  0  0  0  0
 12 13  2  0  0  0  0
 12 40  1  0  0  0  0
 13 14  1  0  0  0  0
 13 41  1  0  0  0  0
 14 15  1  0  0  0  0
 14 25  2  0  0  0  0
 15 16  1  0  0  0  0
 15 24  2  0  0  0  0
 16 17  2  0  0  0  0
 16 42  1  0  0  0  0
 17 18  1  0  0  0  0
 18 19  2  0  0  0  0
 18 43  1  0  0  0  0
 19 20  1  0  0  0  0
 19 24  1  0  0  0  0
 20 21  1  0  0  0  0
 20 44  1  0  0  0  0
 21 22  2  0  0  0  0
 22 23  1  0  0  0  0
 22 24  1  0  0  0  0
 23 45  1  0  0  0  0
 23 46  1  0  0  0  0
 25 26  1  0  0  0  0
 25 30  1  0  0  0  0
 26 27  2  0  0  0  0
 26 47  1  0  0  0  0
 27 28  1  0  0  0  0
 27 48  1  0  0  0  0
 28 29  2  0  0  0  0
 28 49  1  0  0  0  0
 29 30  1  0  0  0  0
 29 50  1  0  0  0  0
 31 51  1  0  0  0  0
M  END
$$$$
