CHEMBL3961228
 OpenBabel04072215373D

 55 58  0  0  0  0  0  0  0  0999 V2000
    0.5812    5.5343   -1.1172 C   0  0  0  0  0  0  0  0  0  0  0  0
    0.1956    4.5508   -2.2149 C   0  0  0  0  0  0  0  0  0  0  0  0
   -1.0865    4.1445   -1.9925 F   0  0  0  0  0  0  0  0  0  0  0  0
    0.1225    5.2675   -3.3804 F   0  0  0  0  0  0  0  0  0  0  0  0
    1.1855    3.4085   -2.3138 C   0  0  0  0  0  0  0  0  0  0  0  0
    2.2625    3.5367   -3.2179 C   0  0  0  0  0  0  0  0  0  0  0  0
    3.2722    2.5685   -3.3297 C   0  0  0  0  0  0  0  0  0  0  0  0
    4.3779    2.7197   -4.2067 N   0  0  0  0  0  0  0  0  0  0  0  0
    4.8306    3.9523   -4.6397 C   0  0  0  0  0  0  0  0  0  0  0  0
    4.4217    5.0191   -4.1928 O   0  0  0  0  0  0  0  0  0  0  0  0
    5.7847    3.8529   -5.6466 N   0  0  0  0  0  0  0  0  0  0  0  0
    6.3322    5.0455   -6.1852 C   0  0  0  0  0  0  0  0  0  0  0  0
    6.6976    6.0969   -5.3388 C   0  0  0  0  0  0  0  0  0  0  0  0
    7.0504    7.3396   -5.8578 C   0  0  0  0  0  0  0  0  0  0  0  0
    7.1336    7.5248   -7.2384 C   0  0  0  0  0  0  0  0  0  0  0  0
    7.4845    8.7298   -7.8209 O   0  0  0  0  0  0  0  0  0  0  0  0
    8.4299    9.5190   -7.1899 C   0  0  0  0  0  0  0  0  0  0  0  0
    9.5043    8.9888   -6.4883 C   0  0  0  0  0  0  0  0  0  0  0  0
   10.3363    9.8639   -5.8288 C   0  0  0  0  0  0  0  0  0  0  0  0
   10.2005   11.1990   -5.8906 N   0  0  0  0  0  0  0  0  0  0  0  0
    9.2118   11.7183   -6.6320 C   0  0  0  0  0  0  0  0  0  0  0  0
    9.0946   13.1188   -6.7305 N   0  0  0  0  0  0  0  0  0  0  0  0
    9.9291   14.0085   -6.0782 C   0  0  0  0  0  0  0  0  0  0  0  0
   10.8713   13.7433   -5.3453 O   0  0  0  0  0  0  0  0  0  0  0  0
    9.6377   15.4636   -6.2691 C   0  0  0  0  0  0  0  0  0  0  0  0
    8.3053   16.0163   -5.8168 C   0  0  0  0  0  0  0  0  0  0  0  0
    8.6942   16.0815   -7.2668 C   0  0  0  0  0  0  0  0  0  0  0  0
    8.2951   10.9089   -7.2992 C   0  0  0  0  0  0  0  0  0  0  0  0
    6.8027    6.4658   -8.0913 C   0  0  0  0  0  0  0  0  0  0  0  0
    6.4221    5.2184   -7.5676 C   0  0  0  0  0  0  0  0  0  0  0  0
    3.1764    1.4159   -2.5546 C   0  0  0  0  0  0  0  0  0  0  0  0
    2.1089    1.2601   -1.6627 C   0  0  0  0  0  0  0  0  0  0  0  0
    1.1244    2.2507   -1.5353 C   0  0  0  0  0  0  0  0  0  0  0  0
   -0.1301    1.9721   -0.3836 Cl  0  0  0  0  0  0  0  0  0  0  0  0
   -0.1603    6.3385   -1.0590 H   0  0  0  0  0  0  0  0  0  0  0  0
    1.5519    5.9992   -1.3223 H   0  0  0  0  0  0  0  0  0  0  0  0
    0.6241    5.0543   -0.1347 H   0  0  0  0  0  0  0  0  0  0  0  0
    2.2895    4.4307   -3.8404 H   0  0  0  0  0  0  0  0  0  0  0  0
    5.0406    1.9604   -4.2621 H   0  0  0  0  0  0  0  0  0  0  0  0
    5.6467    3.0825   -6.2859 H   0  0  0  0  0  0  0  0  0  0  0  0
    6.6670    5.9750   -4.2581 H   0  0  0  0  0  0  0  0  0  0  0  0
    7.2493    8.1494   -5.1618 H   0  0  0  0  0  0  0  0  0  0  0  0
    9.6779    7.9214   -6.4097 H   0  0  0  0  0  0  0  0  0  0  0  0
   11.1500    9.5091   -5.2031 H   0  0  0  0  0  0  0  0  0  0  0  0
    8.3474   13.4844   -7.2953 H   0  0  0  0  0  0  0  0  0  0  0  0
   10.5093   16.0724   -6.0302 H   0  0  0  0  0  0  0  0  0  0  0  0
    8.3251   16.9274   -5.2283 H   0  0  0  0  0  0  0  0  0  0  0  0
    7.5278   15.3213   -5.5220 H   0  0  0  0  0  0  0  0  0  0  0  0
    8.9663   17.0551   -7.6647 H   0  0  0  0  0  0  0  0  0  0  0  0
    8.1618   15.4659   -7.9763 H   0  0  0  0  0  0  0  0  0  0  0  0
    7.4844   11.3306   -7.8831 H   0  0  0  0  0  0  0  0  0  0  0  0
    6.8139    6.6161   -9.1679 H   0  0  0  0  0  0  0  0  0  0  0  0
    6.1279    4.4265   -8.2505 H   0  0  0  0  0  0  0  0  0  0  0  0
    3.9352    0.6399   -2.6034 H   0  0  0  0  0  0  0  0  0  0  0  0
    2.0552    0.3633   -1.0487 H   0  0  0  0  0  0  0  0  0  0  0  0
  1  2  1  0  0  0  0
  1 35  1  0  0  0  0
  1 36  1  0  0  0  0
  1 37  1  0  0  0  0
  2  3  1  0  0  0  0
  2  4  1  0  0  0  0
  2  5  1  0  0  0  0
  5  6  1  0  0  0  0
  5 33  2  0  0  0  0
  6  7  2  0  0  0  0
  6 38  1  0  0  0  0
  7  8  1  0  0  0  0
  7 31  1  0  0  0  0
  8  9  1  0  0  0  0
  8 39  1  0  0  0  0
  9 10  2  0  0  0  0
  9 11  1  0  0  0  0
 11 12  1  0  0  0  0
 11 40  1  0  0  0  0
 12 13  1  0  0  0  0
 12 30  2  0  0  0  0
 13 14  2  0  0  0  0
 13 41  1  0  0  0  0
 14 15  1  0  0  0  0
 14 42  1  0  0  0  0
 15 16  1  0  0  0  0
 15 29  2  0  0  0  0
 16 17  1  0  0  0  0
 17 18  1  0  0  0  0
 17 28  2  0  0  0  0
 18 19  2  0  0  0  0
 18 43  1  0  0  0  0
 19 20  1  0  0  0  0
 19 44  1  0  0  0  0
 20 21  2  0  0  0  0
 21 22  1  0  0  0  0
 21 28  1  0  0  0  0
 22 23  1  0  0  0  0
 22 45  1  0  0  0  0
 23 24  2  0  0  0  0
 23 25  1  0  0  0  0
 25 26  1  0  0  0  0
 25 27  1  0  0  0  0
 25 46  1  0  0  0  0
 26 27  1  0  0  0  0
 26 47  1  0  0  0  0
 26 48  1  0  0  0  0
 27 49  1  0  0  0  0
 27 50  1  0  0  0  0
 28 51  1  0  0  0  0
 29 30  1  0  0  0  0
 29 52  1  0  0  0  0
 30 53  1  0  0  0  0
 31 32  2  0  0  0  0
 31 54  1  0  0  0  0
 32 33  1  0  0  0  0
 32 55  1  0  0  0  0
 33 34  1  0  0  0  0
M  END
$$$$
