CHEMBL1086334
 OpenBabel04072215363D

 55 60  0  0  0  0  0  0  0  0999 V2000
    2.5165    1.6550   11.2906 C   0  0  0  0  0  0  0  0  0  0  0  0
    3.2301    0.4154   11.1358 N   0  0  0  0  0  0  0  0  0  0  0  0
    3.5288   -0.0381    9.8695 C   0  0  0  0  0  0  0  0  0  0  0  0
    3.9655   -1.2963    9.7912 N   0  0  0  0  0  0  0  0  0  0  0  0
    4.4177   -1.7041    8.5924 C   0  0  0  0  0  0  0  0  0  0  0  0
    4.4241   -0.9182    7.4633 C   0  0  0  0  0  0  0  0  0  0  0  0
    3.9135    0.3529    7.6054 C   0  0  0  0  0  0  0  0  0  0  0  0
    3.9173    1.3933    6.5468 C   0  0  0  0  0  0  0  0  0  0  0  0
    3.9454    2.7498    6.9499 C   0  0  0  0  0  0  0  0  0  0  0  0
    3.9981    3.7937    6.0326 C   0  0  0  0  0  0  0  0  0  0  0  0
    3.9790    3.4710    4.6972 C   0  0  0  0  0  0  0  0  0  0  0  0
    3.9196    2.2053    4.2469 N   0  0  0  0  0  0  0  0  0  0  0  0
    3.9346    1.1888    5.1565 C   0  0  0  0  0  0  0  0  0  0  0  0
    3.9626   -0.1104    4.6439 O   0  0  0  0  0  0  0  0  0  0  0  0
    4.4507   -0.2940    3.3518 C   0  0  0  0  0  0  0  0  0  0  0  0
    5.6078    0.3615    2.9170 C   0  0  0  0  0  0  0  0  0  0  0  0
    6.0445    0.2441    1.5973 C   0  0  0  0  0  0  0  0  0  0  0  0
    5.3602   -0.5576    0.6791 C   0  0  0  0  0  0  0  0  0  0  0  0
    5.7569   -0.6385   -0.6886 N   0  0  0  0  0  0  0  0  0  0  0  0
    6.7476    0.0056   -1.3526 C   0  0  0  0  0  0  0  0  0  0  0  0
    7.6941    0.8384   -0.9710 N   0  0  0  0  0  0  0  0  0  0  0  0
    8.3967    1.1790   -2.1147 C   0  0  0  0  0  0  0  0  0  0  0  0
    9.4842    2.0334   -2.2957 C   0  0  0  0  0  0  0  0  0  0  0  0
    9.9573    2.1425   -3.5969 C   0  0  0  0  0  0  0  0  0  0  0  0
    9.4449    1.4946   -4.6707 N   0  0  0  0  0  0  0  0  0  0  0  0
    8.3873    0.6666   -4.4934 C   0  0  0  0  0  0  0  0  0  0  0  0
    7.8742    0.5208   -3.2161 C   0  0  0  0  0  0  0  0  0  0  0  0
    6.8450   -0.2194   -2.7073 N   0  0  0  0  0  0  0  0  0  0  0  0
    4.2718   -1.3725    1.1553 C   0  0  0  0  0  0  0  0  0  0  0  0
    3.6201   -2.3468    0.3509 C   0  0  0  0  0  0  0  0  0  0  0  0
    2.5566   -3.1185    0.8180 C   0  0  0  0  0  0  0  0  0  0  0  0
    2.1002   -2.9437    2.1141 C   0  0  0  0  0  0  0  0  0  0  0  0
    2.7167   -2.0045    2.9426 C   0  0  0  0  0  0  0  0  0  0  0  0
    3.8048   -1.2176    2.4972 C   0  0  0  0  0  0  0  0  0  0  0  0
    3.4588    0.7824    8.8142 N   0  0  0  0  0  0  0  0  0  0  0  0
    2.3922    1.8665   12.3584 H   0  0  0  0  0  0  0  0  0  0  0  0
    1.5204    1.6179   10.8385 H   0  0  0  0  0  0  0  0  0  0  0  0
    3.0780    2.4935   10.8636 H   0  0  0  0  0  0  0  0  0  0  0  0
    2.9989   -0.3614   11.7397 H   0  0  0  0  0  0  0  0  0  0  0  0
    4.8246   -2.7109    8.5742 H   0  0  0  0  0  0  0  0  0  0  0  0
    4.8562   -1.2912    6.5466 H   0  0  0  0  0  0  0  0  0  0  0  0
    3.9516    3.0019    8.0103 H   0  0  0  0  0  0  0  0  0  0  0  0
    4.0559    4.8245    6.3617 H   0  0  0  0  0  0  0  0  0  0  0  0
    4.0267    4.2370    3.9294 H   0  0  0  0  0  0  0  0  0  0  0  0
    6.1562    1.0173    3.5870 H   0  0  0  0  0  0  0  0  0  0  0  0
    6.9120    0.8237    1.2958 H   0  0  0  0  0  0  0  0  0  0  0  0
    4.9952   -0.9959   -1.2495 H   0  0  0  0  0  0  0  0  0  0  0  0
    9.9314    2.5798   -1.4776 H   0  0  0  0  0  0  0  0  0  0  0  0
   10.8045    2.7840   -3.8274 H   0  0  0  0  0  0  0  0  0  0  0  0
    7.9944    0.1634   -5.3679 H   0  0  0  0  0  0  0  0  0  0  0  0
    6.2527   -0.8428   -3.2304 H   0  0  0  0  0  0  0  0  0  0  0  0
    3.9528   -2.5531   -0.6612 H   0  0  0  0  0  0  0  0  0  0  0  0
    2.0919   -3.8576    0.1705 H   0  0  0  0  0  0  0  0  0  0  0  0
    1.2747   -3.5438    2.4876 H   0  0  0  0  0  0  0  0  0  0  0  0
    2.3435   -1.9008    3.9594 H   0  0  0  0  0  0  0  0  0  0  0  0
  1  2  1  0  0  0  0
  1 36  1  0  0  0  0
  1 37  1  0  0  0  0
  1 38  1  0  0  0  0
  2  3  1  0  0  0  0
  2 39  1  0  0  0  0
  3  4  1  0  0  0  0
  3 35  2  0  0  0  0
  4  5  2  0  0  0  0
  5  6  1  0  0  0  0
  5 40  1  0  0  0  0
  6  7  2  0  0  0  0
  6 41  1  0  0  0  0
  7  8  1  0  0  0  0
  7 35  1  0  0  0  0
  8  9  1  0  0  0  0
  8 13  2  0  0  0  0
  9 10  2  0  0  0  0
  9 42  1  0  0  0  0
 10 11  1  0  0  0  0
 10 43  1  0  0  0  0
 11 12  2  0  0  0  0
 11 44  1  0  0  0  0
 12 13  1  0  0  0  0
 13 14  1  0  0  0  0
 14 15  1  0  0  0  0
 15 16  1  0  0  0  0
 15 34  2  0  0  0  0
 16 17  2  0  0  0  0
 16 45  1  0  0  0  0
 17 18  1  0  0  0  0
 17 46  1  0  0  0  0
 18 19  1  0  0  0  0
 18 29  2  0  0  0  0
 19 20  1  0  0  0  0
 19 47  1  0  0  0  0
 20 21  2  0  0  0  0
 20 28  1  0  0  0  0
 21 22  1  0  0  0  0
 22 23  1  0  0  0  0
 22 27  2  0  0  0  0
 23 24  2  0  0  0  0
 23 48  1  0  0  0  0
 24 25  1  0  0  0  0
 24 49  1  0  0  0  0
 25 26  2  0  0  0  0
 26 27  1  0  0  0  0
 26 50  1  0  0  0  0
 27 28  1  0  0  0  0
 28 51  1  0  0  0  0
 29 30  1  0  0  0  0
 29 34  1  0  0  0  0
 30 31  2  0  0  0  0
 30 52  1  0  0  0  0
 31 32  1  0  0  0  0
 31 53  1  0  0  0  0
 32 33  2  0  0  0  0
 32 54  1  0  0  0  0
 33 34  1  0  0  0  0
 33 55  1  0  0  0  0
M  END
$$$$
