CHEMBL366241
 OpenBabel04072215373D

 50 53  0  0  0  0  0  0  0  0999 V2000
    3.2615   -1.7719   -5.9286 C   0  0  0  0  0  0  0  0  0  0  0  0
    2.9745   -0.6077   -4.9860 C   0  0  0  0  0  0  0  0  0  0  0  0
    3.1097   -0.9167   -3.5072 C   0  0  0  0  0  0  0  0  0  0  0  0
    2.6877   -2.4843   -2.9559 S   0  0  0  0  0  0  0  0  0  0  0  0
    3.2340   -2.1759   -1.3884 C   0  0  0  0  0  0  0  0  0  0  0  0
    3.2511   -3.1816   -0.4994 N   0  0  0  0  0  0  0  0  0  0  0  0
    3.6988   -2.8028    0.6922 C   0  0  0  0  0  0  0  0  0  0  0  0
    4.0524   -1.5668    1.0606 N   0  0  0  0  0  0  0  0  0  0  0  0
    3.9943   -0.5744    0.1531 C   0  0  0  0  0  0  0  0  0  0  0  0
    4.3478    0.6672    0.6608 N   0  0  0  0  0  0  0  0  0  0  0  0
    3.6053   -0.8572   -1.1808 C   0  0  0  0  0  0  0  0  0  0  0  0
    3.5064   -0.0923   -2.4455 C   0  0  0  0  0  0  0  0  0  0  0  0
    3.8694    1.3249   -2.6561 C   0  0  0  0  0  0  0  0  0  0  0  0
    4.9706    1.8585   -1.9935 C   0  0  0  0  0  0  0  0  0  0  0  0
    5.2841    3.2172   -2.0651 C   0  0  0  0  0  0  0  0  0  0  0  0
    4.5911    4.0780   -2.9131 C   0  0  0  0  0  0  0  0  0  0  0  0
    4.9129    5.4510   -3.0417 N   0  0  0  0  0  0  0  0  0  0  0  0
    5.9443    6.1022   -2.3800 C   0  0  0  0  0  0  0  0  0  0  0  0
    6.7542    5.5695   -1.6314 O   0  0  0  0  0  0  0  0  0  0  0  0
    5.9340    7.4704   -2.6205 N   0  0  0  0  0  0  0  0  0  0  0  0
    6.9136    8.2981   -2.0184 C   0  0  0  0  0  0  0  0  0  0  0  0
    6.5016    9.4582   -1.3624 C   0  0  0  0  0  0  0  0  0  0  0  0
    7.4379   10.2405   -0.6840 C   0  0  0  0  0  0  0  0  0  0  0  0
    8.7921    9.9002   -0.7057 C   0  0  0  0  0  0  0  0  0  0  0  0
    9.2247    8.7661   -1.4008 C   0  0  0  0  0  0  0  0  0  0  0  0
   10.6792    8.4036   -1.4659 C   0  0  0  0  0  0  0  0  0  0  0  0
    8.2734    7.9625   -2.0428 C   0  0  0  0  0  0  0  0  0  0  0  0
    3.5333    3.5473   -3.6546 C   0  0  0  0  0  0  0  0  0  0  0  0
    3.1511    2.1971   -3.4955 C   0  0  0  0  0  0  0  0  0  0  0  0
    3.2227   -1.4295   -6.9676 H   0  0  0  0  0  0  0  0  0  0  0  0
    2.5203   -2.5719   -5.8271 H   0  0  0  0  0  0  0  0  0  0  0  0
    4.2545   -2.1962   -5.7470 H   0  0  0  0  0  0  0  0  0  0  0  0
    1.9598   -0.2377   -5.1771 H   0  0  0  0  0  0  0  0  0  0  0  0
    3.6736    0.1910   -5.2565 H   0  0  0  0  0  0  0  0  0  0  0  0
    3.7797   -3.5738    1.4507 H   0  0  0  0  0  0  0  0  0  0  0  0
    4.4158    0.6344    1.6711 H   0  0  0  0  0  0  0  0  0  0  0  0
    3.8427    1.4544    0.2768 H   0  0  0  0  0  0  0  0  0  0  0  0
    5.6101    1.2369   -1.3707 H   0  0  0  0  0  0  0  0  0  0  0  0
    6.0971    3.5513   -1.4316 H   0  0  0  0  0  0  0  0  0  0  0  0
    4.4140    5.9809   -3.7408 H   0  0  0  0  0  0  0  0  0  0  0  0
    5.0129    7.8699   -2.7132 H   0  0  0  0  0  0  0  0  0  0  0  0
    5.4516    9.7269   -1.3103 H   0  0  0  0  0  0  0  0  0  0  0  0
    7.1102   11.1108   -0.1214 H   0  0  0  0  0  0  0  0  0  0  0  0
    9.5063   10.5231   -0.1724 H   0  0  0  0  0  0  0  0  0  0  0  0
   11.2967    9.1176   -0.9110 H   0  0  0  0  0  0  0  0  0  0  0  0
   11.0190    8.4088   -2.5071 H   0  0  0  0  0  0  0  0  0  0  0  0
   10.8470    7.4101   -1.0382 H   0  0  0  0  0  0  0  0  0  0  0  0
    8.6022    7.0624   -2.5618 H   0  0  0  0  0  0  0  0  0  0  0  0
    2.9745    4.1671   -4.3530 H   0  0  0  0  0  0  0  0  0  0  0  0
    2.2844    1.8477   -4.0498 H   0  0  0  0  0  0  0  0  0  0  0  0
  1  2  1  0  0  0  0
  1 30  1  0  0  0  0
  1 31  1  0  0  0  0
  1 32  1  0  0  0  0
  2  3  1  0  0  0  0
  2 33  1  0  0  0  0
  2 34  1  0  0  0  0
  3  4  1  0  0  0  0
  3 12  2  0  0  0  0
  4  5  1  0  0  0  0
  5  6  1  0  0  0  0
  5 11  2  0  0  0  0
  6  7  2  0  0  0  0
  7  8  1  0  0  0  0
  7 35  1  0  0  0  0
  8  9  2  0  0  0  0
  9 10  1  0  0  0  0
  9 11  1  0  0  0  0
 10 36  1  0  0  0  0
 10 37  1  0  0  0  0
 11 12  1  0  0  0  0
 12 13  1  0  0  0  0
 13 14  1  0  0  0  0
 13 29  2  0  0  0  0
 14 15  2  0  0  0  0
 14 38  1  0  0  0  0
 15 16  1  0  0  0  0
 15 39  1  0  0  0  0
 16 17  1  0  0  0  0
 16 28  2  0  0  0  0
 17 18  1  0  0  0  0
 17 40  1  0  0  0  0
 18 19  2  0  0  0  0
 18 20  1  0  0  0  0
 20 21  1  0  0  0  0
 20 41  1  0  0  0  0
 21 22  1  0  0  0  0
 21 27  2  0  0  0  0
 22 23  2  0  0  0  0
 22 42  1  0  0  0  0
 23 24  1  0  0  0  0
 23 43  1  0  0  0  0
 24 25  2  0  0  0  0
 24 44  1  0  0  0  0
 25 26  1  0  0  0  0
 25 27  1  0  0  0  0
 26 45  1  0  0  0  0
 26 46  1  0  0  0  0
 26 47  1  0  0  0  0
 27 48  1  0  0  0  0
 28 29  1  0  0  0  0
 28 49  1  0  0  0  0
 29 50  1  0  0  0  0
M  END
$$$$
