CHEMBL4551715
 OpenBabel04072215383D

 26 28  0  0  0  0  0  0  0  0999 V2000
   -1.7226    0.4637   -1.2541 C   0  0  0  0  0  0  0  0  0  0  0  0
   -0.4890    0.1472   -0.5800 N   0  0  0  0  0  0  0  0  0  0  0  0
    0.4424   -0.7766   -0.9504 C   0  0  0  0  0  0  0  0  0  0  0  0
    1.4584   -0.6970   -0.0203 C   0  0  0  0  0  0  0  0  0  0  0  0
    2.6712   -1.4876   -0.0310 C   0  0  0  0  0  0  0  0  0  0  0  0
    3.6361   -1.3353    0.9539 C   0  0  0  0  0  0  0  0  0  0  0  0
    4.7937   -2.0327    0.9669 N   0  0  0  0  0  0  0  0  0  0  0  0
    4.9722   -2.8970   -0.0460 C   0  0  0  0  0  0  0  0  0  0  0  0
    6.1458   -3.6332   -0.1047 C   0  0  0  0  0  0  0  0  0  0  0  0
    6.3798   -4.5343   -1.1423 C   0  0  0  0  0  0  0  0  0  0  0  0
    5.4178   -4.6972   -2.1321 C   0  0  0  0  0  0  0  0  0  0  0  0
    5.6987   -5.7994   -3.4215 Cl  0  0  0  0  0  0  0  0  0  0  0  0
    4.2320   -3.9681   -2.0872 C   0  0  0  0  0  0  0  0  0  0  0  0
    3.9914   -3.0676   -1.0590 C   0  0  0  0  0  0  0  0  0  0  0  0
    2.8407   -2.3673   -1.0481 N   0  0  0  0  0  0  0  0  0  0  0  0
    1.0275    0.3138    0.8681 C   0  0  0  0  0  0  0  0  0  0  0  0
   -0.1597    0.8231    0.5358 N   0  0  0  0  0  0  0  0  0  0  0  0
   -1.8705   -0.2268   -2.0874 H   0  0  0  0  0  0  0  0  0  0  0  0
   -1.6558    1.4903   -1.6234 H   0  0  0  0  0  0  0  0  0  0  0  0
   -2.5421    0.3659   -0.5374 H   0  0  0  0  0  0  0  0  0  0  0  0
    0.3193   -1.3981   -1.8288 H   0  0  0  0  0  0  0  0  0  0  0  0
    3.5198   -0.6370    1.7743 H   0  0  0  0  0  0  0  0  0  0  0  0
    6.8950   -3.4959    0.6715 H   0  0  0  0  0  0  0  0  0  0  0  0
    7.3090   -5.0975   -1.1705 H   0  0  0  0  0  0  0  0  0  0  0  0
    3.4829   -4.0925   -2.8648 H   0  0  0  0  0  0  0  0  0  0  0  0
    1.5281    0.7076    1.7434 H   0  0  0  0  0  0  0  0  0  0  0  0
  1  2  1  0  0  0  0
  1 18  1  0  0  0  0
  1 19  1  0  0  0  0
  1 20  1  0  0  0  0
  2  3  1  0  0  0  0
  2 17  1  0  0  0  0
  3  4  2  0  0  0  0
  3 21  1  0  0  0  0
  4  5  1  0  0  0  0
  4 16  1  0  0  0  0
  5  6  1  0  0  0  0
  5 15  2  0  0  0  0
  6  7  2  0  0  0  0
  6 22  1  0  0  0  0
  7  8  1  0  0  0  0
  8  9  1  0  0  0  0
  8 14  2  0  0  0  0
  9 10  2  0  0  0  0
  9 23  1  0  0  0  0
 10 11  1  0  0  0  0
 10 24  1  0  0  0  0
 11 12  1  0  0  0  0
 11 13  2  0  0  0  0
 13 14  1  0  0  0  0
 13 25  1  0  0  0  0
 14 15  1  0  0  0  0
 16 17  2  0  0  0  0
 16 26  1  0  0  0  0
M  END
$$$$
