CHEMBL270277
 OpenBabel04072215363D

 57 61  0  0  0  0  0  0  0  0999 V2000
    8.1643   -8.8085    3.1217 C   0  0  0  0  0  0  0  0  0  0  0  0
    7.1111   -7.8432    3.0541 O   0  0  0  0  0  0  0  0  0  0  0  0
    6.5916   -7.6022    1.8114 C   0  0  0  0  0  0  0  0  0  0  0  0
    6.5878   -8.5897    0.8107 C   0  0  0  0  0  0  0  0  0  0  0  0
    6.1725   -8.3432   -0.4903 C   0  0  0  0  0  0  0  0  0  0  0  0
    6.2989   -9.3350   -1.3854 N   0  0  0  0  0  0  0  0  0  0  0  0
    5.9567   -9.0832   -2.6632 C   0  0  0  0  0  0  0  0  0  0  0  0
    5.4727   -7.8692   -3.1016 C   0  0  0  0  0  0  0  0  0  0  0  0
    5.3407   -6.8271   -2.1827 C   0  0  0  0  0  0  0  0  0  0  0  0
    4.9022   -5.5564   -2.6158 N   0  0  0  0  0  0  0  0  0  0  0  0
    3.9451   -5.1743   -3.5702 C   0  0  0  0  0  0  0  0  0  0  0  0
    4.0506   -3.9151   -4.1577 C   0  0  0  0  0  0  0  0  0  0  0  0
    3.0805   -3.4530   -5.0549 C   0  0  0  0  0  0  0  0  0  0  0  0
    1.9769   -4.2516   -5.4444 C   0  0  0  0  0  0  0  0  0  0  0  0
    0.9169   -3.8466   -6.3111 C   0  0  0  0  0  0  0  0  0  0  0  0
    0.7837   -2.4984   -6.9483 C   0  0  0  0  0  0  0  0  0  0  0  0
   -0.3327   -1.9906   -6.9672 O   0  0  0  0  0  0  0  0  0  0  0  0
    1.9274   -1.9528   -7.5066 N   0  0  0  0  0  0  0  0  0  0  0  0
    2.0325   -0.7170   -8.1873 C   0  0  0  0  0  0  0  0  0  0  0  0
    0.9394    0.0844   -8.5314 C   0  0  0  0  0  0  0  0  0  0  0  0
    1.1183    1.2564   -9.2779 C   0  0  0  0  0  0  0  0  0  0  0  0
    2.3963    1.6452   -9.6637 C   0  0  0  0  0  0  0  0  0  0  0  0
    2.6140    3.0609  -10.6153 Cl  0  0  0  0  0  0  0  0  0  0  0  0
    3.4997    0.8825   -9.2919 C   0  0  0  0  0  0  0  0  0  0  0  0
    3.3168   -0.2963   -8.5593 C   0  0  0  0  0  0  0  0  0  0  0  0
   -0.1670   -4.7105   -6.5574 C   0  0  0  0  0  0  0  0  0  0  0  0
   -0.2169   -5.9743   -5.9845 C   0  0  0  0  0  0  0  0  0  0  0  0
    0.8178   -6.3912   -5.1560 C   0  0  0  0  0  0  0  0  0  0  0  0
    1.9045   -5.5508   -4.8707 C   0  0  0  0  0  0  0  0  0  0  0  0
    2.8893   -5.9948   -3.9678 C   0  0  0  0  0  0  0  0  0  0  0  0
    5.6766   -7.0685   -0.8205 C   0  0  0  0  0  0  0  0  0  0  0  0
    5.5623   -6.1153    0.2188 C   0  0  0  0  0  0  0  0  0  0  0  0
    6.0378   -6.3545    1.5168 C   0  0  0  0  0  0  0  0  0  0  0  0
    5.8830   -5.2621    2.3245 O   0  0  0  0  0  0  0  0  0  0  0  0
    6.5562   -5.2168    3.5721 C   0  0  0  0  0  0  0  0  0  0  0  0
    8.8518   -8.5033    3.9153 H   0  0  0  0  0  0  0  0  0  0  0  0
    8.7539   -8.8740    2.1996 H   0  0  0  0  0  0  0  0  0  0  0  0
    7.7504   -9.7877    3.3817 H   0  0  0  0  0  0  0  0  0  0  0  0
    6.9380   -9.5950    1.0269 H   0  0  0  0  0  0  0  0  0  0  0  0
    6.1111   -9.9070   -3.3538 H   0  0  0  0  0  0  0  0  0  0  0  0
    5.2604   -7.7224   -4.1552 H   0  0  0  0  0  0  0  0  0  0  0  0
    5.1883   -4.7894   -2.0182 H   0  0  0  0  0  0  0  0  0  0  0  0
    4.8871   -3.2661   -3.9068 H   0  0  0  0  0  0  0  0  0  0  0  0
    3.1950   -2.4304   -5.4036 H   0  0  0  0  0  0  0  0  0  0  0  0
    2.7740   -2.5054   -7.4616 H   0  0  0  0  0  0  0  0  0  0  0  0
   -0.0776   -0.1856   -8.2628 H   0  0  0  0  0  0  0  0  0  0  0  0
    0.2515    1.8479   -9.5613 H   0  0  0  0  0  0  0  0  0  0  0  0
    4.5018    1.1914   -9.5776 H   0  0  0  0  0  0  0  0  0  0  0  0
    4.1939   -0.8748   -8.2825 H   0  0  0  0  0  0  0  0  0  0  0  0
   -0.9970   -4.3836   -7.1840 H   0  0  0  0  0  0  0  0  0  0  0  0
   -1.0695   -6.6244   -6.1664 H   0  0  0  0  0  0  0  0  0  0  0  0
    0.7511   -7.3789   -4.7023 H   0  0  0  0  0  0  0  0  0  0  0  0
    2.7854   -6.9767   -3.5095 H   0  0  0  0  0  0  0  0  0  0  0  0
    5.1110   -5.1452    0.0265 H   0  0  0  0  0  0  0  0  0  0  0  0
    6.5526   -4.1726    3.9024 H   0  0  0  0  0  0  0  0  0  0  0  0
    7.6054   -5.5162    3.4925 H   0  0  0  0  0  0  0  0  0  0  0  0
    6.0168   -5.8029    4.3217 H   0  0  0  0  0  0  0  0  0  0  0  0
  1  2  1  0  0  0  0
  1 36  1  0  0  0  0
  1 37  1  0  0  0  0
  1 38  1  0  0  0  0
  2  3  1  0  0  0  0
  3  4  1  0  0  0  0
  3 33  2  0  0  0  0
  4  5  2  0  0  0  0
  4 39  1  0  0  0  0
  5  6  1  0  0  0  0
  5 31  1  0  0  0  0
  6  7  2  0  0  0  0
  7  8  1  0  0  0  0
  7 40  1  0  0  0  0
  8  9  2  0  0  0  0
  8 41  1  0  0  0  0
  9 10  1  0  0  0  0
  9 31  1  0  0  0  0
 10 11  1  0  0  0  0
 10 42  1  0  0  0  0
 11 12  1  0  0  0  0
 11 30  2  0  0  0  0
 12 13  2  0  0  0  0
 12 43  1  0  0  0  0
 13 14  1  0  0  0  0
 13 44  1  0  0  0  0
 14 15  1  0  0  0  0
 14 29  2  0  0  0  0
 15 16  1  0  0  0  0
 15 26  2  0  0  0  0
 16 17  2  0  0  0  0
 16 18  1  0  0  0  0
 18 19  1  0  0  0  0
 18 45  1  0  0  0  0
 19 20  1  0  0  0  0
 19 25  2  0  0  0  0
 20 21  2  0  0  0  0
 20 46  1  0  0  0  0
 21 22  1  0  0  0  0
 21 47  1  0  0  0  0
 22 23  1  0  0  0  0
 22 24  2  0  0  0  0
 24 25  1  0  0  0  0
 24 48  1  0  0  0  0
 25 49  1  0  0  0  0
 26 27  1  0  0  0  0
 26 50  1  0  0  0  0
 27 28  2  0  0  0  0
 27 51  1  0  0  0  0
 28 29  1  0  0  0  0
 28 52  1  0  0  0  0
 29 30  1  0  0  0  0
 30 53  1  0  0  0  0
 31 32  2  0  0  0  0
 32 33  1  0  0  0  0
 32 54  1  0  0  0  0
 33 34  1  0  0  0  0
 34 35  1  0  0  0  0
 35 55  1  0  0  0  0
 35 56  1  0  0  0  0
 35 57  1  0  0  0  0
M  END
$$$$
