CHEMBL189628
 OpenBabel04072215363D

 72 74  0  0  0  0  0  0  0  0999 V2000
    1.3092    0.1610   -5.0849 C   0  0  0  0  0  0  0  0  0  0  0  0
    2.6806    0.0097   -4.7403 O   0  0  0  0  0  0  0  0  0  0  0  0
    2.9456   -0.7033   -3.6007 C   0  0  0  0  0  0  0  0  0  0  0  0
    1.9924   -1.1724   -2.6984 C   0  0  0  0  0  0  0  0  0  0  0  0
    2.3985   -1.9049   -1.5886 C   0  0  0  0  0  0  0  0  0  0  0  0
    1.5522   -2.4681   -0.6718 O   0  0  0  0  0  0  0  0  0  0  0  0
    0.2766   -2.8568   -1.1781 C   0  0  0  0  0  0  0  0  0  0  0  0
    3.7604   -2.1135   -1.3575 C   0  0  0  0  0  0  0  0  0  0  0  0
    4.7515   -1.7000   -2.2758 C   0  0  0  0  0  0  0  0  0  0  0  0
    6.1646   -2.1474   -2.1250 C   0  0  0  0  0  0  0  0  0  0  0  0
    6.3967   -3.4235   -1.5752 C   0  0  0  0  0  0  0  0  0  0  0  0
    7.6815   -3.9437   -1.4274 C   0  0  0  0  0  0  0  0  0  0  0  0
    7.9048   -5.1700   -0.8037 C   0  0  0  0  0  0  0  0  0  0  0  0
    9.1236   -5.6962   -0.5897 N   0  0  0  0  0  0  0  0  0  0  0  0
   10.1930   -4.9943   -1.0084 C   0  0  0  0  0  0  0  0  0  0  0  0
   11.4754   -5.5314   -0.7095 N   0  0  0  0  0  0  0  0  0  0  0  0
   11.7314   -6.9802   -0.8112 C   0  0  0  0  0  0  0  0  0  0  0  0
   10.7410   -7.8699   -1.5633 C   0  0  0  0  0  0  0  0  0  0  0  0
   11.2396   -9.3092   -1.7242 C   0  0  0  0  0  0  0  0  0  0  0  0
   10.1831  -10.1486   -2.4330 C   0  0  0  0  0  0  0  0  0  0  0  0
   10.6223  -11.4907   -2.5742 O   0  0  0  0  0  0  0  0  0  0  0  0
   12.4394   -4.8461    0.0407 C   0  0  0  0  0  0  0  0  0  0  0  0
   12.1668   -3.4530    0.5553 C   0  0  0  0  0  0  0  0  0  0  0  0
   13.5220   -5.3685    0.3367 O   0  0  0  0  0  0  0  0  0  0  0  0
   10.0396   -3.7888   -1.7044 C   0  0  0  0  0  0  0  0  0  0  0  0
    8.7726   -3.2262   -1.9142 C   0  0  0  0  0  0  0  0  0  0  0  0
    8.5785   -2.0295   -2.5371 N   0  0  0  0  0  0  0  0  0  0  0  0
    7.3232   -1.4764   -2.5675 C   0  0  0  0  0  0  0  0  0  0  0  0
    7.2494   -0.1706   -3.1304 N   0  0  0  0  0  0  0  0  0  0  0  0
    7.3116    0.9062   -2.2570 C   0  0  0  0  0  0  0  0  0  0  0  0
    7.4027    0.7977   -1.0343 O   0  0  0  0  0  0  0  0  0  0  0  0
    7.3110    2.1238   -2.9215 N   0  0  0  0  0  0  0  0  0  0  0  0
    7.5092    3.4325   -2.2385 C   0  0  0  0  0  0  0  0  0  0  0  0
    8.9297    3.5133   -1.6536 C   0  0  0  0  0  0  0  0  0  0  0  0
    7.3578    4.5942   -3.2478 C   0  0  0  0  0  0  0  0  0  0  0  0
    6.4784    3.6677   -1.1207 C   0  0  0  0  0  0  0  0  0  0  0  0
    4.3038   -0.9774   -3.3907 C   0  0  0  0  0  0  0  0  0  0  0  0
    1.2584    0.7023   -6.0331 H   0  0  0  0  0  0  0  0  0  0  0  0
    0.7790    0.7533   -4.3320 H   0  0  0  0  0  0  0  0  0  0  0  0
    0.8314   -0.8144   -5.2297 H   0  0  0  0  0  0  0  0  0  0  0  0
    0.9391   -0.9760   -2.8488 H   0  0  0  0  0  0  0  0  0  0  0  0
   -0.1180   -3.6441   -0.5283 H   0  0  0  0  0  0  0  0  0  0  0  0
    0.3376   -3.2711   -2.1915 H   0  0  0  0  0  0  0  0  0  0  0  0
   -0.4152   -2.0096   -1.1469 H   0  0  0  0  0  0  0  0  0  0  0  0
    4.0321   -2.6594   -0.4555 H   0  0  0  0  0  0  0  0  0  0  0  0
    5.5540   -4.0414   -1.2576 H   0  0  0  0  0  0  0  0  0  0  0  0
    7.0858   -5.7710   -0.4289 H   0  0  0  0  0  0  0  0  0  0  0  0
   11.8750   -7.3709    0.2054 H   0  0  0  0  0  0  0  0  0  0  0  0
   12.7059   -7.0722   -1.3128 H   0  0  0  0  0  0  0  0  0  0  0  0
   10.5322   -7.4448   -2.5516 H   0  0  0  0  0  0  0  0  0  0  0  0
    9.7973   -7.9210   -1.0120 H   0  0  0  0  0  0  0  0  0  0  0  0
   11.4622   -9.7543   -0.7448 H   0  0  0  0  0  0  0  0  0  0  0  0
   12.1811   -9.3382   -2.2875 H   0  0  0  0  0  0  0  0  0  0  0  0
    9.9622   -9.7460   -3.4271 H   0  0  0  0  0  0  0  0  0  0  0  0
    9.2521  -10.1593   -1.8569 H   0  0  0  0  0  0  0  0  0  0  0  0
   11.3858  -11.4884   -3.1757 H   0  0  0  0  0  0  0  0  0  0  0  0
   11.1098   -3.2457    0.7199 H   0  0  0  0  0  0  0  0  0  0  0  0
   12.6053   -2.7259   -0.1316 H   0  0  0  0  0  0  0  0  0  0  0  0
   12.6576   -3.3496    1.5310 H   0  0  0  0  0  0  0  0  0  0  0  0
   10.9090   -3.2717   -2.1001 H   0  0  0  0  0  0  0  0  0  0  0  0
    7.9748   -0.0441   -3.8258 H   0  0  0  0  0  0  0  0  0  0  0  0
    6.7437    2.1342   -3.7596 H   0  0  0  0  0  0  0  0  0  0  0  0
    9.6865    3.4102   -2.4408 H   0  0  0  0  0  0  0  0  0  0  0  0
    9.1150    2.7247   -0.9183 H   0  0  0  0  0  0  0  0  0  0  0  0
    9.1004    4.4742   -1.1525 H   0  0  0  0  0  0  0  0  0  0  0  0
    8.0989    4.5373   -4.0522 H   0  0  0  0  0  0  0  0  0  0  0  0
    7.4900    5.5651   -2.7503 H   0  0  0  0  0  0  0  0  0  0  0  0
    6.3639    4.5993   -3.7090 H   0  0  0  0  0  0  0  0  0  0  0  0
    6.5889    2.9551   -0.2990 H   0  0  0  0  0  0  0  0  0  0  0  0
    5.4552    3.5853   -1.5019 H   0  0  0  0  0  0  0  0  0  0  0  0
    6.5944    4.6683   -0.6853 H   0  0  0  0  0  0  0  0  0  0  0  0
    5.0037   -0.6429   -4.1515 H   0  0  0  0  0  0  0  0  0  0  0  0
  1  2  1  0  0  0  0
  1 38  1  0  0  0  0
  1 39  1  0  0  0  0
  1 40  1  0  0  0  0
  2  3  1  0  0  0  0
  3  4  1  0  0  0  0
  3 37  2  0  0  0  0
  4  5  2  0  0  0  0
  4 41  1  0  0  0  0
  5  6  1  0  0  0  0
  5  8  1  0  0  0  0
  6  7  1  0  0  0  0
  7 42  1  0  0  0  0
  7 43  1  0  0  0  0
  7 44  1  0  0  0  0
  8  9  2  0  0  0  0
  8 45  1  0  0  0  0
  9 10  1  0  0  0  0
  9 37  1  0  0  0  0
 10 11  1  0  0  0  0
 10 28  2  0  0  0  0
 11 12  2  0  0  0  0
 11 46  1  0  0  0  0
 12 13  1  0  0  0  0
 12 26  1  0  0  0  0
 13 14  2  0  0  0  0
 13 47  1  0  0  0  0
 14 15  1  0  0  0  0
 15 16  1  0  0  0  0
 15 25  2  0  0  0  0
 16 17  1  0  0  0  0
 16 22  1  0  0  0  0
 17 18  1  0  0  0  0
 17 48  1  0  0  0  0
 17 49  1  0  0  0  0
 18 19  1  0  0  0  0
 18 50  1  0  0  0  0
 18 51  1  0  0  0  0
 19 20  1  0  0  0  0
 19 52  1  0  0  0  0
 19 53  1  0  0  0  0
 20 21  1  0  0  0  0
 20 54  1  0  0  0  0
 20 55  1  0  0  0  0
 21 56  1  0  0  0  0
 22 23  1  0  0  0  0
 22 24  2  0  0  0  0
 23 57  1  0  0  0  0
 23 58  1  0  0  0  0
 23 59  1  0  0  0  0
 25 26  1  0  0  0  0
 25 60  1  0  0  0  0
 26 27  2  0  0  0  0
 27 28  1  0  0  0  0
 28 29  1  0  0  0  0
 29 30  1  0  0  0  0
 29 61  1  0  0  0  0
 30 31  2  0  0  0  0
 30 32  1  0  0  0  0
 32 33  1  0  0  0  0
 32 62  1  0  0  0  0
 33 34  1  0  0  0  0
 33 35  1  0  0  0  0
 33 36  1  0  0  0  0
 34 63  1  0  0  0  0
 34 64  1  0  0  0  0
 34 65  1  0  0  0  0
 35 66  1  0  0  0  0
 35 67  1  0  0  0  0
 35 68  1  0  0  0  0
 36 69  1  0  0  0  0
 36 70  1  0  0  0  0
 36 71  1  0  0  0  0
 37 72  1  0  0  0  0
M  END
$$$$
