CHEMBL243629
 OpenBabel04072215363D

 68 71  0  0  0  0  0  0  0  0999 V2000
    0.6701    2.2295   -1.2424 C   0  0  0  0  0  0  0  0  0  0  0  0
    2.0944    2.5498   -0.8871 C   0  0  0  0  0  0  0  0  0  0  0  0
    2.7683    1.2942   -0.5899 O   0  0  0  0  0  0  0  0  0  0  0  0
    4.1292    1.3455   -0.7781 C   0  0  0  0  0  0  0  0  0  0  0  0
    4.7939    2.5825   -0.6720 C   0  0  0  0  0  0  0  0  0  0  0  0
    6.1511    2.7522   -0.8507 C   0  0  0  0  0  0  0  0  0  0  0  0
    6.6553    3.9817   -0.7366 N   0  0  0  0  0  0  0  0  0  0  0  0
    7.9886    4.0933   -0.8592 C   0  0  0  0  0  0  0  0  0  0  0  0
    8.8387    3.0911   -1.0899 N   0  0  0  0  0  0  0  0  0  0  0  0
    8.2839    1.8701   -1.2767 C   0  0  0  0  0  0  0  0  0  0  0  0
    9.2121    0.8895   -1.6338 N   0  0  0  0  0  0  0  0  0  0  0  0
    9.0808   -0.2135   -2.4480 C   0  0  0  0  0  0  0  0  0  0  0  0
    8.8807   -1.4198   -1.9349 C   0  0  0  0  0  0  0  0  0  0  0  0
    9.0151   -2.6583   -2.6936 C   0  0  0  0  0  0  0  0  0  0  0  0
    8.9418   -3.7310   -2.0845 O   0  0  0  0  0  0  0  0  0  0  0  0
    9.3742   -2.5599   -4.1348 C   0  0  0  0  0  0  0  0  0  0  0  0
    9.6176   -3.6691   -4.9299 O   0  0  0  0  0  0  0  0  0  0  0  0
   10.1785   -4.8146   -4.2798 C   0  0  0  0  0  0  0  0  0  0  0  0
   11.0474   -5.5512   -5.2728 C   0  0  0  0  0  0  0  0  0  0  0  0
   12.4087   -5.7492   -5.0024 C   0  0  0  0  0  0  0  0  0  0  0  0
   13.2161   -6.4418   -5.9040 C   0  0  0  0  0  0  0  0  0  0  0  0
   12.6703   -6.9483   -7.0818 C   0  0  0  0  0  0  0  0  0  0  0  0
   11.3188   -6.7556   -7.3636 C   0  0  0  0  0  0  0  0  0  0  0  0
   10.5096   -6.0589   -6.4651 C   0  0  0  0  0  0  0  0  0  0  0  0
    9.5083   -1.3460   -4.6826 C   0  0  0  0  0  0  0  0  0  0  0  0
    9.3613   -0.0903   -3.9174 C   0  0  0  0  0  0  0  0  0  0  0  0
    9.5231    0.9888   -4.4859 O   0  0  0  0  0  0  0  0  0  0  0  0
    6.9234    1.6319   -1.1089 C   0  0  0  0  0  0  0  0  0  0  0  0
    6.2645    0.3866   -1.1277 C   0  0  0  0  0  0  0  0  0  0  0  0
    4.8821    0.2047   -1.0729 C   0  0  0  0  0  0  0  0  0  0  0  0
    4.3753   -1.1095   -1.3206 N   0  0  0  0  0  0  0  0  0  0  0  0
    5.0887   -2.0860   -2.0538 C   0  0  0  0  0  0  0  0  0  0  0  0
    6.1881   -1.9979   -2.5344 O   0  0  0  0  0  0  0  0  0  0  0  0
    4.3413   -3.3564   -2.1855 C   0  0  0  0  0  0  0  0  0  0  0  0
    5.0515   -4.4931   -2.1581 C   0  0  0  0  0  0  0  0  0  0  0  0
    4.5007   -5.8886   -2.1667 C   0  0  0  0  0  0  0  0  0  0  0  0
    3.1968   -6.0567   -2.8202 N   0  0  0  0  0  0  0  0  0  0  0  0
    3.2467   -5.7156   -4.2461 C   0  0  0  0  0  0  0  0  0  0  0  0
    2.7645   -7.4533   -2.6868 C   0  0  0  0  0  0  0  0  0  0  0  0
    0.0592    3.1371   -1.2698 H   0  0  0  0  0  0  0  0  0  0  0  0
    0.2395    1.5215   -0.5290 H   0  0  0  0  0  0  0  0  0  0  0  0
    0.6423    1.7594   -2.2316 H   0  0  0  0  0  0  0  0  0  0  0  0
    2.1092    3.2416   -0.0254 H   0  0  0  0  0  0  0  0  0  0  0  0
    2.5623    3.0505   -1.7428 H   0  0  0  0  0  0  0  0  0  0  0  0
    4.2342    3.4884   -0.4532 H   0  0  0  0  0  0  0  0  0  0  0  0
    8.3984    5.0844   -0.7530 H   0  0  0  0  0  0  0  0  0  0  0  0
   10.1303    1.0354   -1.2288 H   0  0  0  0  0  0  0  0  0  0  0  0
    8.6206   -1.5478   -0.8845 H   0  0  0  0  0  0  0  0  0  0  0  0
    9.3768   -5.4862   -3.9488 H   0  0  0  0  0  0  0  0  0  0  0  0
   10.7957   -4.5295   -3.4198 H   0  0  0  0  0  0  0  0  0  0  0  0
   12.8485   -5.3634   -4.0851 H   0  0  0  0  0  0  0  0  0  0  0  0
   14.2708   -6.5865   -5.6860 H   0  0  0  0  0  0  0  0  0  0  0  0
   13.2988   -7.4926   -7.7809 H   0  0  0  0  0  0  0  0  0  0  0  0
   10.8948   -7.1475   -8.2846 H   0  0  0  0  0  0  0  0  0  0  0  0
    9.4578   -5.9091   -6.6996 H   0  0  0  0  0  0  0  0  0  0  0  0
    9.7945   -1.2333   -5.7186 H   0  0  0  0  0  0  0  0  0  0  0  0
    6.8538   -0.5124   -1.1077 H   0  0  0  0  0  0  0  0  0  0  0  0
    3.4571   -1.3314   -0.9765 H   0  0  0  0  0  0  0  0  0  0  0  0
    3.2602   -3.3382   -2.2896 H   0  0  0  0  0  0  0  0  0  0  0  0
    6.1411   -4.4335   -2.0827 H   0  0  0  0  0  0  0  0  0  0  0  0
    4.4019   -6.1720   -1.1041 H   0  0  0  0  0  0  0  0  0  0  0  0
    5.2493   -6.5671   -2.5951 H   0  0  0  0  0  0  0  0  0  0  0  0
    3.4445   -4.6515   -4.4056 H   0  0  0  0  0  0  0  0  0  0  0  0
    2.2708   -5.9019   -4.7109 H   0  0  0  0  0  0  0  0  0  0  0  0
    4.0039   -6.2937   -4.7886 H   0  0  0  0  0  0  0  0  0  0  0  0
    2.6689   -7.7350   -1.6329 H   0  0  0  0  0  0  0  0  0  0  0  0
    3.4618   -8.1482   -3.1701 H   0  0  0  0  0  0  0  0  0  0  0  0
    1.7762   -7.5909   -3.1406 H   0  0  0  0  0  0  0  0  0  0  0  0
  1  2  1  0  0  0  0
  1 40  1  0  0  0  0
  1 41  1  0  0  0  0
  1 42  1  0  0  0  0
  2  3  1  0  0  0  0
  2 43  1  0  0  0  0
  2 44  1  0  0  0  0
  3  4  1  0  0  0  0
  4  5  1  0  0  0  0
  4 30  2  0  0  0  0
  5  6  2  0  0  0  0
  5 45  1  0  0  0  0
  6  7  1  0  0  0  0
  6 28  1  0  0  0  0
  7  8  2  0  0  0  0
  8  9  1  0  0  0  0
  8 46  1  0  0  0  0
  9 10  2  0  0  0  0
 10 11  1  0  0  0  0
 10 28  1  0  0  0  0
 11 12  1  0  0  0  0
 11 47  1  0  0  0  0
 12 13  2  0  0  0  0
 12 26  1  0  0  0  0
 13 14  1  0  0  0  0
 13 48  1  0  0  0  0
 14 15  2  0  0  0  0
 14 16  1  0  0  0  0
 16 17  1  0  0  0  0
 16 25  2  0  0  0  0
 17 18  1  0  0  0  0
 18 19  1  0  0  0  0
 18 49  1  0  0  0  0
 18 50  1  0  0  0  0
 19 20  1  0  0  0  0
 19 24  2  0  0  0  0
 20 21  2  0  0  0  0
 20 51  1  0  0  0  0
 21 22  1  0  0  0  0
 21 52  1  0  0  0  0
 22 23  2  0  0  0  0
 22 53  1  0  0  0  0
 23 24  1  0  0  0  0
 23 54  1  0  0  0  0
 24 55  1  0  0  0  0
 25 26  1  0  0  0  0
 25 56  1  0  0  0  0
 26 27  2  0  0  0  0
 28 29  2  0  0  0  0
 29 30  1  0  0  0  0
 29 57  1  0  0  0  0
 30 31  1  0  0  0  0
 31 32  1  0  0  0  0
 31 58  1  0  0  0  0
 32 33  2  0  0  0  0
 32 34  1  0  0  0  0
 34 35  2  0  0  0  0
 34 59  1  0  0  0  0
 35 36  1  0  0  0  0
 35 60  1  0  0  0  0
 36 37  1  0  0  0  0
 36 61  1  0  0  0  0
 36 62  1  0  0  0  0
 37 38  1  0  0  0  0
 37 39  1  0  0  0  0
 38 63  1  0  0  0  0
 38 64  1  0  0  0  0
 38 65  1  0  0  0  0
 39 66  1  0  0  0  0
 39 67  1  0  0  0  0
 39 68  1  0  0  0  0
M  END
$$$$
