CHEMBL478442
 OpenBabel04072215383D

 40 42  0  0  0  0  0  0  0  0999 V2000
    3.3881    0.0004    1.3103 C   0  0  0  0  0  0  0  0  0  0  0  0
    2.4796    0.1213    0.2164 O   0  0  0  0  0  0  0  0  0  0  0  0
    3.0188   -0.0647   -1.0274 C   0  0  0  0  0  0  0  0  0  0  0  0
    4.1063   -0.9345   -1.2240 C   0  0  0  0  0  0  0  0  0  0  0  0
    4.7569   -1.0541   -2.4422 C   0  0  0  0  0  0  0  0  0  0  0  0
    5.8489   -1.8202   -2.5089 N   0  0  0  0  0  0  0  0  0  0  0  0
    6.4803   -1.8542   -3.6847 C   0  0  0  0  0  0  0  0  0  0  0  0
    6.1110   -1.2080   -4.7909 N   0  0  0  0  0  0  0  0  0  0  0  0
    4.9999   -0.4523   -4.7243 C   0  0  0  0  0  0  0  0  0  0  0  0
    4.5652    0.2672   -5.8722 N   0  0  0  0  0  0  0  0  0  0  0  0
    5.0884    0.1931   -7.1837 C   0  0  0  0  0  0  0  0  0  0  0  0
    5.7026   -0.9574   -7.6861 C   0  0  0  0  0  0  0  0  0  0  0  0
    6.2379   -0.9833   -8.9773 C   0  0  0  0  0  0  0  0  0  0  0  0
    6.1338    0.1300   -9.8192 C   0  0  0  0  0  0  0  0  0  0  0  0
    6.7769    0.0797  -11.1726 C   0  0  0  0  0  0  0  0  0  0  0  0
    5.4287    1.2420   -9.3540 C   0  0  0  0  0  0  0  0  0  0  0  0
    5.2217    2.3587  -10.1142 O   0  0  0  0  0  0  0  0  0  0  0  0
    4.9018    1.2726   -8.0599 C   0  0  0  0  0  0  0  0  0  0  0  0
    4.2614   -0.3413   -3.5349 C   0  0  0  0  0  0  0  0  0  0  0  0
    3.0917    0.4339   -3.3792 C   0  0  0  0  0  0  0  0  0  0  0  0
    2.4797    0.5999   -2.1341 C   0  0  0  0  0  0  0  0  0  0  0  0
    1.4208    1.4582   -2.2154 O   0  0  0  0  0  0  0  0  0  0  0  0
    0.7511    1.8811   -1.0410 C   0  0  0  0  0  0  0  0  0  0  0  0
    3.1042    0.7280    2.0754 H   0  0  0  0  0  0  0  0  0  0  0  0
    4.4314    0.2136    1.0447 H   0  0  0  0  0  0  0  0  0  0  0  0
    3.3063   -1.0040    1.7401 H   0  0  0  0  0  0  0  0  0  0  0  0
    4.4947   -1.5310   -0.4021 H   0  0  0  0  0  0  0  0  0  0  0  0
    7.3808   -2.4550   -3.7473 H   0  0  0  0  0  0  0  0  0  0  0  0
    4.3738    1.2287   -5.6150 H   0  0  0  0  0  0  0  0  0  0  0  0
    5.7935   -1.8481   -7.0727 H   0  0  0  0  0  0  0  0  0  0  0  0
    6.7477   -1.8828   -9.3066 H   0  0  0  0  0  0  0  0  0  0  0  0
    7.3246   -0.8572  -11.3220 H   0  0  0  0  0  0  0  0  0  0  0  0
    7.4982    0.8972  -11.2728 H   0  0  0  0  0  0  0  0  0  0  0  0
    6.0208    0.1557  -11.9592 H   0  0  0  0  0  0  0  0  0  0  0  0
    5.6092    2.2209  -10.9922 H   0  0  0  0  0  0  0  0  0  0  0  0
    4.3626    2.1613   -7.7404 H   0  0  0  0  0  0  0  0  0  0  0  0
    2.6531    0.9435   -4.2345 H   0  0  0  0  0  0  0  0  0  0  0  0
    0.1451    2.7505   -1.3186 H   0  0  0  0  0  0  0  0  0  0  0  0
    1.4395    2.2175   -0.2626 H   0  0  0  0  0  0  0  0  0  0  0  0
    0.0704    1.1020   -0.6861 H   0  0  0  0  0  0  0  0  0  0  0  0
  1  2  1  0  0  0  0
  1 24  1  0  0  0  0
  1 25  1  0  0  0  0
  1 26  1  0  0  0  0
  2  3  1  0  0  0  0
  3  4  1  0  0  0  0
  3 21  2  0  0  0  0
  4  5  2  0  0  0  0
  4 27  1  0  0  0  0
  5  6  1  0  0  0  0
  5 19  1  0  0  0  0
  6  7  2  0  0  0  0
  7  8  1  0  0  0  0
  7 28  1  0  0  0  0
  8  9  2  0  0  0  0
  9 10  1  0  0  0  0
  9 19  1  0  0  0  0
 10 11  1  0  0  0  0
 10 29  1  0  0  0  0
 11 12  1  0  0  0  0
 11 18  2  0  0  0  0
 12 13  2  0  0  0  0
 12 30  1  0  0  0  0
 13 14  1  0  0  0  0
 13 31  1  0  0  0  0
 14 15  1  0  0  0  0
 14 16  2  0  0  0  0
 15 32  1  0  0  0  0
 15 33  1  0  0  0  0
 15 34  1  0  0  0  0
 16 17  1  0  0  0  0
 16 18  1  0  0  0  0
 17 35  1  0  0  0  0
 18 36  1  0  0  0  0
 19 20  2  0  0  0  0
 20 21  1  0  0  0  0
 20 37  1  0  0  0  0
 21 22  1  0  0  0  0
 22 23  1  0  0  0  0
 23 38  1  0  0  0  0
 23 39  1  0  0  0  0
 23 40  1  0  0  0  0
M  END
$$$$
