CHEMBL1241858
 OpenBabel04072215363D

 44 47  0  0  1  0  0  0  0  0999 V2000
    0.9214    0.2617   -0.0154 N   0  0  0  0  0  0  0  0  0  0  0  0
    2.2999    0.1499   -0.1401 C   0  0  0  0  0  0  0  0  0  0  0  0
    2.9721    1.3044   -0.3240 N   0  0  0  0  0  0  0  0  0  0  0  0
    4.3115    1.2603   -0.4546 C   0  0  0  0  0  0  0  0  0  0  0  0
    5.1130    0.1886   -0.3734 N   0  0  0  0  0  0  0  0  0  0  0  0
    4.4085   -0.9364   -0.1563 C   0  0  0  0  0  0  0  0  0  0  0  0
    3.0274   -1.0493   -0.0888 C   0  0  0  0  0  0  0  0  0  0  0  0
    2.7829   -2.4627   -0.0416 C   0  0  0  0  0  0  0  0  0  0  0  0
    1.5159   -3.1956   -0.1574 C   0  0  0  0  0  0  0  0  0  0  0  0
    0.4467   -2.6935   -0.9199 C   0  0  0  0  0  0  0  0  0  0  0  0
   -0.7624   -3.3916   -1.0209 C   0  0  0  0  0  0  0  0  0  0  0  0
   -0.8921   -4.6331   -0.4085 C   0  0  0  0  0  0  0  0  0  0  0  0
   -2.3748   -5.4999   -0.5497 Cl  0  0  0  0  0  0  0  0  0  0  0  0
    0.1823   -5.1714    0.3002 C   0  0  0  0  0  0  0  0  0  0  0  0
    0.1170   -6.4103    0.8777 O   0  0  0  0  0  0  0  0  0  0  0  0
    1.3734   -4.4591    0.4348 C   0  0  0  0  0  0  0  0  0  0  0  0
    3.9411   -3.1455    0.0565 N   0  0  0  0  0  0  0  0  0  0  0  0
    4.9092   -2.2007    0.0005 N   0  0  0  0  0  0  0  0  0  0  0  0
    6.2703   -2.6207   -0.2365 C   0  0  0  0  0  0  0  0  0  0  0  0
    7.2296   -2.7745    0.9638 C   0  0  3  0  0  0  0  0  0  0  0  0
    6.7541   -3.7431    2.0638 C   0  0  0  0  0  0  0  0  0  0  0  0
    6.1755   -3.0818    3.3174 C   0  0  0  0  0  0  0  0  0  0  0  0
    6.8909   -1.8028    3.7118 C   0  0  0  0  0  0  0  0  0  0  0  0
    6.9253   -0.8849    2.5774 N   0  0  0  0  0  0  0  0  0  0  0  0
    7.7495   -1.4382    1.5102 C   0  0  0  0  0  0  0  0  0  0  0  0
    0.6517    1.2205    0.1768 H   0  0  0  0  0  0  0  0  0  0  0  0
    0.4725   -0.4447    0.5525 H   0  0  0  0  0  0  0  0  0  0  0  0
    4.8003    2.2096   -0.6537 H   0  0  0  0  0  0  0  0  0  0  0  0
    0.5406   -1.7588   -1.4688 H   0  0  0  0  0  0  0  0  0  0  0  0
   -1.5834   -2.9650   -1.5914 H   0  0  0  0  0  0  0  0  0  0  0  0
   -0.7477   -6.7933    0.6389 H   0  0  0  0  0  0  0  0  0  0  0  0
    2.1990   -4.9030    0.9876 H   0  0  0  0  0  0  0  0  0  0  0  0
    6.7066   -1.9344   -0.9700 H   0  0  0  0  0  0  0  0  0  0  0  0
    6.2121   -3.5917   -0.7514 H   0  0  0  0  0  0  0  0  0  0  0  0
    8.1110   -3.2589    0.5170 H   0  0  0  0  0  0  0  0  0  0  0  0
    7.6235   -4.3338    2.3814 H   0  0  0  0  0  0  0  0  0  0  0  0
    6.0362   -4.4695    1.6670 H   0  0  0  0  0  0  0  0  0  0  0  0
    6.2279   -3.7962    4.1510 H   0  0  0  0  0  0  0  0  0  0  0  0
    5.1098   -2.8723    3.1586 H   0  0  0  0  0  0  0  0  0  0  0  0
    7.9057   -2.0167    4.0729 H   0  0  0  0  0  0  0  0  0  0  0  0
    6.3554   -1.3287    4.5419 H   0  0  0  0  0  0  0  0  0  0  0  0
    7.3242    0.0044    2.8791 H   0  0  0  0  0  0  0  0  0  0  0  0
    8.7722   -1.5797    1.8857 H   0  0  0  0  0  0  0  0  0  0  0  0
    7.8296   -0.7034    0.7017 H   0  0  0  0  0  0  0  0  0  0  0  0
  1  2  1  0  0  0  0
  1 26  1  0  0  0  0
  1 27  1  0  0  0  0
  2  3  1  0  0  0  0
  2  7  2  0  0  0  0
  3  4  2  0  0  0  0
  4  5  1  0  0  0  0
  4 28  1  0  0  0  0
  5  6  2  0  0  0  0
  6  7  1  0  0  0  0
  6 18  1  0  0  0  0
  7  8  1  0  0  0  0
  8  9  1  0  0  0  0
  8 17  2  0  0  0  0
  9 10  1  0  0  0  0
  9 16  2  0  0  0  0
 10 11  2  0  0  0  0
 10 29  1  0  0  0  0
 11 12  1  0  0  0  0
 11 30  1  0  0  0  0
 12 13  1  0  0  0  0
 12 14  2  0  0  0  0
 14 15  1  0  0  0  0
 14 16  1  0  0  0  0
 15 31  1  0  0  0  0
 16 32  1  0  0  0  0
 17 18  1  0  0  0  0
 18 19  1  0  0  0  0
 19 20  1  0  0  0  0
 19 33  1  0  0  0  0
 19 34  1  0  0  0  0
 20 21  1  0  0  0  0
 20 25  1  0  0  0  0
 20 35  1  0  0  0  0
 21 22  1  0  0  0  0
 21 36  1  0  0  0  0
 21 37  1  0  0  0  0
 22 23  1  0  0  0  0
 22 38  1  0  0  0  0
 22 39  1  0  0  0  0
 23 24  1  0  0  0  0
 23 40  1  0  0  0  0
 23 41  1  0  0  0  0
 24 25  1  0  0  0  0
 24 42  1  0  0  0  0
 25 43  1  0  0  0  0
 25 44  1  0  0  0  0
M  END
$$$$
