CHEMBL243891
 OpenBabel04072215363D

 50 53  0  0  0  0  0  0  0  0999 V2000
    3.3805    0.8866   -1.0011 C   0  0  0  0  0  0  0  0  0  0  0  0
    4.7169    0.4211   -0.7825 O   0  0  0  0  0  0  0  0  0  0  0  0
    4.8483   -0.4756    0.2360 C   0  0  0  0  0  0  0  0  0  0  0  0
    3.9129   -0.9559    0.8605 O   0  0  0  0  0  0  0  0  0  0  0  0
    6.1820   -0.6736    0.4747 N   0  0  0  0  0  0  0  0  0  0  0  0
    6.5688   -1.1904    1.6845 C   0  0  0  0  0  0  0  0  0  0  0  0
    7.5102   -0.6947    2.4540 N   0  0  0  0  0  0  0  0  0  0  0  0
    7.4284   -1.4108    3.6356 C   0  0  0  0  0  0  0  0  0  0  0  0
    8.0750   -1.2133    4.8676 C   0  0  0  0  0  0  0  0  0  0  0  0
    7.8064   -2.1027    5.9215 C   0  0  0  0  0  0  0  0  0  0  0  0
    8.4135   -1.8213    7.1403 O   0  0  0  0  0  0  0  0  0  0  0  0
    8.7690   -2.8639    7.9712 C   0  0  0  0  0  0  0  0  0  0  0  0
    9.2109   -4.0826    7.4833 C   0  0  0  0  0  0  0  0  0  0  0  0
    9.4674   -5.1355    8.3555 C   0  0  0  0  0  0  0  0  0  0  0  0
    9.3568   -4.9977    9.7441 C   0  0  0  0  0  0  0  0  0  0  0  0
    9.5669   -6.0877   10.6427 N   0  0  0  0  0  0  0  0  0  0  0  0
    9.7583   -7.3998   10.2310 C   0  0  0  0  0  0  0  0  0  0  0  0
    9.7462   -7.7515    9.0573 O   0  0  0  0  0  0  0  0  0  0  0  0
    9.9525   -8.3038   11.2647 N   0  0  0  0  0  0  0  0  0  0  0  0
   10.2466   -9.6795   11.0173 C   0  0  0  0  0  0  0  0  0  0  0  0
   10.8297  -10.1234    9.8174 C   0  0  0  0  0  0  0  0  0  0  0  0
   10.9871  -11.4789    9.5420 C   0  0  0  0  0  0  0  0  0  0  0  0
   10.6140  -12.4222   10.4861 C   0  0  0  0  0  0  0  0  0  0  0  0
   10.1025  -11.9985   11.7147 C   0  0  0  0  0  0  0  0  0  0  0  0
    9.9216  -10.6337   11.9841 C   0  0  0  0  0  0  0  0  0  0  0  0
    9.0214   -3.7318   10.2406 C   0  0  0  0  0  0  0  0  0  0  0  0
    8.7254   -2.6715    9.3565 C   0  0  0  0  0  0  0  0  0  0  0  0
    6.9160   -3.1721    5.7302 C   0  0  0  0  0  0  0  0  0  0  0  0
    6.2883   -3.3998    4.5016 C   0  0  0  0  0  0  0  0  0  0  0  0
    6.5316   -2.4631    3.4986 C   0  0  0  0  0  0  0  0  0  0  0  0
    5.9908   -2.2948    2.2521 N   0  0  0  0  0  0  0  0  0  0  0  0
    3.3696    1.4523   -1.9372 H   0  0  0  0  0  0  0  0  0  0  0  0
    3.0879    1.5606   -0.1888 H   0  0  0  0  0  0  0  0  0  0  0  0
    2.6741    0.0571   -1.0901 H   0  0  0  0  0  0  0  0  0  0  0  0
    6.7923    0.0208    0.0666 H   0  0  0  0  0  0  0  0  0  0  0  0
    8.7455   -0.3719    5.0020 H   0  0  0  0  0  0  0  0  0  0  0  0
    9.3257   -4.2614    6.4182 H   0  0  0  0  0  0  0  0  0  0  0  0
    9.7514   -6.0623    7.8752 H   0  0  0  0  0  0  0  0  0  0  0  0
    9.5288   -5.8945   11.6246 H   0  0  0  0  0  0  0  0  0  0  0  0
    9.5574   -8.0736   12.1636 H   0  0  0  0  0  0  0  0  0  0  0  0
   11.1587   -9.4236    9.0502 H   0  0  0  0  0  0  0  0  0  0  0  0
   11.3881  -11.7867    8.5760 H   0  0  0  0  0  0  0  0  0  0  0  0
   10.7206  -13.4806   10.2682 H   0  0  0  0  0  0  0  0  0  0  0  0
    9.8201  -12.7398   12.4576 H   0  0  0  0  0  0  0  0  0  0  0  0
    9.4960  -10.3422   12.9396 H   0  0  0  0  0  0  0  0  0  0  0  0
    8.9672   -3.5480   11.3117 H   0  0  0  0  0  0  0  0  0  0  0  0
    8.4461   -1.6993    9.7561 H   0  0  0  0  0  0  0  0  0  0  0  0
    6.6900   -3.8573    6.5447 H   0  0  0  0  0  0  0  0  0  0  0  0
    5.6232   -4.2427    4.3535 H   0  0  0  0  0  0  0  0  0  0  0  0
    5.2568   -2.8475    1.8332 H   0  0  0  0  0  0  0  0  0  0  0  0
  1  2  1  0  0  0  0
  1 32  1  0  0  0  0
  1 33  1  0  0  0  0
  1 34  1  0  0  0  0
  2  3  1  0  0  0  0
  3  4  2  0  0  0  0
  3  5  1  0  0  0  0
  5  6  1  0  0  0  0
  5 35  1  0  0  0  0
  6  7  2  0  0  0  0
  6 31  1  0  0  0  0
  7  8  1  0  0  0  0
  8  9  1  0  0  0  0
  8 30  2  0  0  0  0
  9 10  2  0  0  0  0
  9 36  1  0  0  0  0
 10 11  1  0  0  0  0
 10 28  1  0  0  0  0
 11 12  1  0  0  0  0
 12 13  1  0  0  0  0
 12 27  2  0  0  0  0
 13 14  2  0  0  0  0
 13 37  1  0  0  0  0
 14 15  1  0  0  0  0
 14 38  1  0  0  0  0
 15 16  1  0  0  0  0
 15 26  2  0  0  0  0
 16 17  1  0  0  0  0
 16 39  1  0  0  0  0
 17 18  2  0  0  0  0
 17 19  1  0  0  0  0
 19 20  1  0  0  0  0
 19 40  1  0  0  0  0
 20 21  1  0  0  0  0
 20 25  2  0  0  0  0
 21 22  2  0  0  0  0
 21 41  1  0  0  0  0
 22 23  1  0  0  0  0
 22 42  1  0  0  0  0
 23 24  2  0  0  0  0
 23 43  1  0  0  0  0
 24 25  1  0  0  0  0
 24 44  1  0  0  0  0
 25 45  1  0  0  0  0
 26 27  1  0  0  0  0
 26 46  1  0  0  0  0
 27 47  1  0  0  0  0
 28 29  2  0  0  0  0
 28 48  1  0  0  0  0
 29 30  1  0  0  0  0
 29 49  1  0  0  0  0
 30 31  1  0  0  0  0
 31 50  1  0  0  0  0
M  END
$$$$
