CHEMBL1241481
 OpenBabel04072215363D

 55 57  0  0  0  0  0  0  0  0999 V2000
    1.1592    0.6509   -0.6669 C   0  0  0  0  0  0  0  0  0  0  0  0
    2.3140    0.0426   -0.0788 O   0  0  0  0  0  0  0  0  0  0  0  0
    3.1071   -0.6739   -0.9488 C   0  0  0  0  0  0  0  0  0  0  0  0
    2.9280   -0.6456   -2.3440 C   0  0  0  0  0  0  0  0  0  0  0  0
    3.7424   -1.3939   -3.2109 C   0  0  0  0  0  0  0  0  0  0  0  0
    3.4386   -1.4531   -4.6370 C   0  0  0  0  0  0  0  0  0  0  0  0
    2.9659   -0.3652   -5.2677 N   0  0  0  0  0  0  0  0  0  0  0  0
    2.7569   -0.7759   -6.5347 N   0  0  0  0  0  0  0  0  0  0  0  0
    2.2056    0.1522   -7.5153 C   0  0  0  0  0  0  0  0  0  0  0  0
    0.8177    0.6452   -7.0987 C   0  0  0  0  0  0  0  0  0  0  0  0
    3.1503    1.3292   -7.7614 C   0  0  0  0  0  0  0  0  0  0  0  0
    3.0664   -2.0958   -6.7347 C   0  0  0  0  0  0  0  0  0  0  0  0
    2.9476   -2.7885   -7.8863 N   0  0  0  0  0  0  0  0  0  0  0  0
    3.3189   -4.0675   -7.7239 C   0  0  0  0  0  0  0  0  0  0  0  0
    3.7468   -4.6735   -6.5998 N   0  0  0  0  0  0  0  0  0  0  0  0
    3.8397   -3.9432   -5.4678 C   0  0  0  0  0  0  0  0  0  0  0  0
    4.2478   -4.6431   -4.3399 N   0  0  0  0  0  0  0  0  0  0  0  0
    3.5052   -2.5806   -5.5151 C   0  0  0  0  0  0  0  0  0  0  0  0
    4.7881   -2.1197   -2.6685 C   0  0  0  0  0  0  0  0  0  0  0  0
    4.9494   -2.1888   -1.2948 C   0  0  0  0  0  0  0  0  0  0  0  0
    4.1478   -1.4514   -0.4050 C   0  0  0  0  0  0  0  0  0  0  0  0
    4.3847   -1.5154    1.0062 N   0  0  0  0  0  0  0  0  0  0  0  0
    5.5585   -1.9929    1.5464 C   0  0  0  0  0  0  0  0  0  0  0  0
    6.5520   -2.2888    0.8883 O   0  0  0  0  0  0  0  0  0  0  0  0
    5.5434   -2.0983    2.9146 O   0  0  0  0  0  0  0  0  0  0  0  0
    6.7742   -2.6226    3.5215 C   0  0  0  0  0  0  0  0  0  0  0  0
    7.9637   -1.6807    3.2489 C   0  0  0  0  0  0  0  0  0  0  0  0
    6.5828   -2.6668    5.0488 C   0  0  0  0  0  0  0  0  0  0  0  0
    7.0536   -4.0751    3.0775 C   0  0  0  0  0  0  0  0  0  0  0  0
    0.5721    1.1241    0.1239 H   0  0  0  0  0  0  0  0  0  0  0  0
    0.5225   -0.1026   -1.1469 H   0  0  0  0  0  0  0  0  0  0  0  0
    1.4381    1.4364   -1.3805 H   0  0  0  0  0  0  0  0  0  0  0  0
    2.1506   -0.0464   -2.8067 H   0  0  0  0  0  0  0  0  0  0  0  0
    2.0998   -0.3990   -8.4574 H   0  0  0  0  0  0  0  0  0  0  0  0
    0.8451    1.1726   -6.1383 H   0  0  0  0  0  0  0  0  0  0  0  0
    0.1209   -0.1938   -6.9958 H   0  0  0  0  0  0  0  0  0  0  0  0
    0.4089    1.3337   -7.8457 H   0  0  0  0  0  0  0  0  0  0  0  0
    3.3025    1.9228   -6.8531 H   0  0  0  0  0  0  0  0  0  0  0  0
    2.7463    1.9940   -8.5322 H   0  0  0  0  0  0  0  0  0  0  0  0
    4.1315    0.9780   -8.0982 H   0  0  0  0  0  0  0  0  0  0  0  0
    3.2604   -4.6999   -8.6025 H   0  0  0  0  0  0  0  0  0  0  0  0
    4.2254   -5.6424   -4.5092 H   0  0  0  0  0  0  0  0  0  0  0  0
    3.8267   -4.3436   -3.4704 H   0  0  0  0  0  0  0  0  0  0  0  0
    5.4848   -2.6727   -3.2987 H   0  0  0  0  0  0  0  0  0  0  0  0
    5.7224   -2.8678   -0.9523 H   0  0  0  0  0  0  0  0  0  0  0  0
    3.7112   -1.0803    1.6164 H   0  0  0  0  0  0  0  0  0  0  0  0
    7.7293   -0.6666    3.5931 H   0  0  0  0  0  0  0  0  0  0  0  0
    8.2135   -1.5861    2.1894 H   0  0  0  0  0  0  0  0  0  0  0  0
    8.8726   -2.0229    3.7531 H   0  0  0  0  0  0  0  0  0  0  0  0
    6.4243   -1.6657    5.4619 H   0  0  0  0  0  0  0  0  0  0  0  0
    7.4677   -3.0961    5.5372 H   0  0  0  0  0  0  0  0  0  0  0  0
    5.7156   -3.2739    5.3267 H   0  0  0  0  0  0  0  0  0  0  0  0
    7.1828   -4.1872    1.9989 H   0  0  0  0  0  0  0  0  0  0  0  0
    6.2170   -4.7275    3.3520 H   0  0  0  0  0  0  0  0  0  0  0  0
    7.9628   -4.4663    3.5492 H   0  0  0  0  0  0  0  0  0  0  0  0
  1  2  1  0  0  0  0
  1 30  1  0  0  0  0
  1 31  1  0  0  0  0
  1 32  1  0  0  0  0
  2  3  1  0  0  0  0
  3  4  1  0  0  0  0
  3 21  2  0  0  0  0
  4  5  2  0  0  0  0
  4 33  1  0  0  0  0
  5  6  1  0  0  0  0
  5 19  1  0  0  0  0
  6  7  2  0  0  0  0
  6 18  1  0  0  0  0
  7  8  1  0  0  0  0
  8  9  1  0  0  0  0
  8 12  1  0  0  0  0
  9 10  1  0  0  0  0
  9 11  1  0  0  0  0
  9 34  1  0  0  0  0
 10 35  1  0  0  0  0
 10 36  1  0  0  0  0
 10 37  1  0  0  0  0
 11 38  1  0  0  0  0
 11 39  1  0  0  0  0
 11 40  1  0  0  0  0
 12 13  1  0  0  0  0
 12 18  2  0  0  0  0
 13 14  2  0  0  0  0
 14 15  1  0  0  0  0
 14 41  1  0  0  0  0
 15 16  2  0  0  0  0
 16 17  1  0  0  0  0
 16 18  1  0  0  0  0
 17 42  1  0  0  0  0
 17 43  1  0  0  0  0
 19 20  2  0  0  0  0
 19 44  1  0  0  0  0
 20 21  1  0  0  0  0
 20 45  1  0  0  0  0
 21 22  1  0  0  0  0
 22 23  1  0  0  0  0
 22 46  1  0  0  0  0
 23 24  2  0  0  0  0
 23 25  1  0  0  0  0
 25 26  1  0  0  0  0
 26 27  1  0  0  0  0
 26 28  1  0  0  0  0
 26 29  1  0  0  0  0
 27 47  1  0  0  0  0
 27 48  1  0  0  0  0
 27 49  1  0  0  0  0
 28 50  1  0  0  0  0
 28 51  1  0  0  0  0
 28 52  1  0  0  0  0
 29 53  1  0  0  0  0
 29 54  1  0  0  0  0
 29 55  1  0  0  0  0
M  END
$$$$
