CHEMBL1083001
 OpenBabel04072215363D

 76 81  0  0  0  0  0  0  0  0999 V2000
    2.5665    0.2248    0.3747 C   0  0  0  0  0  0  0  0  0  0  0  0
    1.1732    0.1723   -0.0560 N   0  0  0  0  0  0  0  0  0  0  0  0
    0.5103   -1.0505    0.4580 C   0  0  0  0  0  0  0  0  0  0  0  0
   -0.9871   -1.1329    0.0657 C   0  0  0  0  0  0  0  0  0  0  0  0
   -1.6689    0.0867    0.5143 N   0  0  0  0  0  0  0  0  0  0  0  0
   -2.9592    0.0886    0.9986 C   0  0  0  0  0  0  0  0  0  0  0  0
   -3.3745    1.0934    1.8811 C   0  0  0  0  0  0  0  0  0  0  0  0
   -4.6519    1.1043    2.4433 C   0  0  0  0  0  0  0  0  0  0  0  0
   -5.5642    0.0916    2.1504 C   0  0  0  0  0  0  0  0  0  0  0  0
   -6.8759    0.0656    2.7628 C   0  0  0  0  0  0  0  0  0  0  0  0
   -8.1028   -0.4205    2.2609 C   0  0  0  0  0  0  0  0  0  0  0  0
   -9.1132   -0.2997    3.1193 N   0  0  0  0  0  0  0  0  0  0  0  0
   -8.5403    0.2544    4.2305 N   0  0  0  0  0  0  0  0  0  0  0  0
   -9.2021    0.5833    5.4434 C   0  0  0  0  0  0  0  0  0  0  0  0
  -10.5518    0.2523    5.5353 N   0  0  0  0  0  0  0  0  0  0  0  0
   -8.4837    1.2051    6.4049 C   0  0  0  0  0  0  0  0  0  0  0  0
   -9.0273    1.6386    7.6896 C   0  0  0  0  0  0  0  0  0  0  0  0
   -9.0865    0.7465    8.7607 C   0  0  0  0  0  0  0  0  0  0  0  0
   -9.5513    1.1749   10.0043 C   0  0  0  0  0  0  0  0  0  0  0  0
   -9.9723    2.4932   10.1878 C   0  0  0  0  0  0  0  0  0  0  0  0
  -10.4327    2.9862   11.4232 N   0  0  0  0  0  0  0  0  0  0  0  0
  -10.2579    2.3863   12.6584 C   0  0  0  0  0  0  0  0  0  0  0  0
   -9.5825    1.3895   12.8941 O   0  0  0  0  0  0  0  0  0  0  0  0
  -10.9763    3.1110   13.7797 C   0  0  0  0  0  0  0  0  0  0  0  0
  -12.4847    3.0864   13.5543 C   0  0  0  0  0  0  0  0  0  0  0  0
  -13.2805    3.7596   14.6679 C   0  0  0  0  0  0  0  0  0  0  0  0
  -13.1332    3.1137   16.0432 C   0  0  0  0  0  0  0  0  0  0  0  0
  -14.3829    3.5441   16.8085 C   0  0  0  0  0  0  0  0  0  0  0  0
  -15.4080    3.9729   15.7595 C   0  0  0  0  0  0  0  0  0  0  0  0
  -14.7819    3.6513   14.4122 C   0  0  0  0  0  0  0  0  0  0  0  0
   -9.9538    3.3743    9.1007 C   0  0  0  0  0  0  0  0  0  0  0  0
   -9.4705    2.9531    7.8593 C   0  0  0  0  0  0  0  0  0  0  0  0
   -7.0365    1.4260    6.1033 C   0  0  0  0  0  0  0  0  0  0  0  0
   -6.4190    1.1132    5.0080 N   0  0  0  0  0  0  0  0  0  0  0  0
   -7.1820    0.5230    4.0334 C   0  0  0  0  0  0  0  0  0  0  0  0
   -5.1743   -0.9147    1.2608 C   0  0  0  0  0  0  0  0  0  0  0  0
   -3.8883   -0.9153    0.7000 C   0  0  0  0  0  0  0  0  0  0  0  0
   -1.0532    1.3319    0.0271 C   0  0  0  0  0  0  0  0  0  0  0  0
    0.4363    1.3620    0.4306 C   0  0  0  0  0  0  0  0  0  0  0  0
    3.1183   -0.6372   -0.0149 H   0  0  0  0  0  0  0  0  0  0  0  0
    2.6670    0.2367    1.4659 H   0  0  0  0  0  0  0  0  0  0  0  0
    3.0547    1.1198   -0.0262 H   0  0  0  0  0  0  0  0  0  0  0  0
    0.5834   -1.0831    1.5546 H   0  0  0  0  0  0  0  0  0  0  0  0
    1.0201   -1.9395    0.0694 H   0  0  0  0  0  0  0  0  0  0  0  0
   -1.4047   -2.0292    0.5390 H   0  0  0  0  0  0  0  0  0  0  0  0
   -1.0904   -1.2434   -1.0209 H   0  0  0  0  0  0  0  0  0  0  0  0
   -2.6814    1.8681    2.1971 H   0  0  0  0  0  0  0  0  0  0  0  0
   -4.9036    1.9075    3.1301 H   0  0  0  0  0  0  0  0  0  0  0  0
   -8.2991   -0.8519    1.2880 H   0  0  0  0  0  0  0  0  0  0  0  0
  -10.9609    0.0956    4.6100 H   0  0  0  0  0  0  0  0  0  0  0  0
  -11.0967    0.8607    6.1373 H   0  0  0  0  0  0  0  0  0  0  0  0
   -8.7662   -0.2874    8.6427 H   0  0  0  0  0  0  0  0  0  0  0  0
   -9.5889    0.4482   10.8105 H   0  0  0  0  0  0  0  0  0  0  0  0
  -10.8545    3.9057   11.4127 H   0  0  0  0  0  0  0  0  0  0  0  0
  -10.5950    4.1359   13.8448 H   0  0  0  0  0  0  0  0  0  0  0  0
  -10.7204    2.6041   14.7171 H   0  0  0  0  0  0  0  0  0  0  0  0
  -12.8102    2.0446   13.4344 H   0  0  0  0  0  0  0  0  0  0  0  0
  -12.7294    3.5880   12.6098 H   0  0  0  0  0  0  0  0  0  0  0  0
  -12.9978    4.8191   14.7344 H   0  0  0  0  0  0  0  0  0  0  0  0
  -12.2191    3.4297   16.5562 H   0  0  0  0  0  0  0  0  0  0  0  0
  -13.1083    2.0203   15.9607 H   0  0  0  0  0  0  0  0  0  0  0  0
  -14.1592    4.3836   17.4762 H   0  0  0  0  0  0  0  0  0  0  0  0
  -14.7609    2.7247   17.4287 H   0  0  0  0  0  0  0  0  0  0  0  0
  -15.5942    5.0499   15.8402 H   0  0  0  0  0  0  0  0  0  0  0  0
  -16.3668    3.4612   15.8885 H   0  0  0  0  0  0  0  0  0  0  0  0
  -15.1195    4.3330   13.6255 H   0  0  0  0  0  0  0  0  0  0  0  0
  -15.0527    2.6311   14.1120 H   0  0  0  0  0  0  0  0  0  0  0  0
  -10.2810    4.4053    9.2094 H   0  0  0  0  0  0  0  0  0  0  0  0
   -9.4307    3.6612    7.0326 H   0  0  0  0  0  0  0  0  0  0  0  0
   -6.4543    1.9021    6.9099 H   0  0  0  0  0  0  0  0  0  0  0  0
   -5.8500   -1.7279    1.0090 H   0  0  0  0  0  0  0  0  0  0  0  0
   -3.6316   -1.7172    0.0158 H   0  0  0  0  0  0  0  0  0  0  0  0
   -1.5359    2.2338    0.4170 H   0  0  0  0  0  0  0  0  0  0  0  0
   -1.1475    1.3777   -1.0655 H   0  0  0  0  0  0  0  0  0  0  0  0
    0.5028    1.4288    1.5257 H   0  0  0  0  0  0  0  0  0  0  0  0
    0.8873    2.2715    0.0174 H   0  0  0  0  0  0  0  0  0  0  0  0
  1  2  1  0  0  0  0
  1 40  1  0  0  0  0
  1 41  1  0  0  0  0
  1 42  1  0  0  0  0
  2  3  1  0  0  0  0
  2 39  1  0  0  0  0
  3  4  1  0  0  0  0
  3 43  1  0  0  0  0
  3 44  1  0  0  0  0
  4  5  1  0  0  0  0
  4 45  1  0  0  0  0
  4 46  1  0  0  0  0
  5  6  1  0  0  0  0
  5 38  1  0  0  0  0
  6  7  1  0  0  0  0
  6 37  2  0  0  0  0
  7  8  2  0  0  0  0
  7 47  1  0  0  0  0
  8  9  1  0  0  0  0
  8 48  1  0  0  0  0
  9 10  1  0  0  0  0
  9 36  2  0  0  0  0
 10 11  1  0  0  0  0
 10 35  2  0  0  0  0
 11 12  2  0  0  0  0
 11 49  1  0  0  0  0
 12 13  1  0  0  0  0
 13 14  1  0  0  0  0
 13 35  1  0  0  0  0
 14 15  1  0  0  0  0
 14 16  2  0  0  0  0
 15 50  1  0  0  0  0
 15 51  1  0  0  0  0
 16 17  1  0  0  0  0
 16 33  1  0  0  0  0
 17 18  1  0  0  0  0
 17 32  2  0  0  0  0
 18 19  2  0  0  0  0
 18 52  1  0  0  0  0
 19 20  1  0  0  0  0
 19 53  1  0  0  0  0
 20 21  1  0  0  0  0
 20 31  2  0  0  0  0
 21 22  1  0  0  0  0
 21 54  1  0  0  0  0
 22 23  2  0  0  0  0
 22 24  1  0  0  0  0
 24 25  1  0  0  0  0
 24 55  1  0  0  0  0
 24 56  1  0  0  0  0
 25 26  1  0  0  0  0
 25 57  1  0  0  0  0
 25 58  1  0  0  0  0
 26 27  1  0  0  0  0
 26 30  1  0  0  0  0
 26 59  1  0  0  0  0
 27 28  1  0  0  0  0
 27 60  1  0  0  0  0
 27 61  1  0  0  0  0
 28 29  1  0  0  0  0
 28 62  1  0  0  0  0
 28 63  1  0  0  0  0
 29 30  1  0  0  0  0
 29 64  1  0  0  0  0
 29 65  1  0  0  0  0
 30 66  1  0  0  0  0
 30 67  1  0  0  0  0
 31 32  1  0  0  0  0
 31 68  1  0  0  0  0
 32 69  1  0  0  0  0
 33 34  2  0  0  0  0
 33 70  1  0  0  0  0
 34 35  1  0  0  0  0
 36 37  1  0  0  0  0
 36 71  1  0  0  0  0
 37 72  1  0  0  0  0
 38 39  1  0  0  0  0
 38 73  1  0  0  0  0
 38 74  1  0  0  0  0
 39 75  1  0  0  0  0
 39 76  1  0  0  0  0
M  END
$$$$
