CHEMBL4064471
 OpenBabel04072215383D

 54 58  0  0  0  0  0  0  0  0999 V2000
    3.0310   -0.8295    1.7678 C   0  0  0  0  0  0  0  0  0  0  0  0
    2.6215    0.5627    1.9345 N   0  0  0  0  0  0  0  0  0  0  0  0
    3.4138    1.2291    2.9783 C   0  0  0  0  0  0  0  0  0  0  0  0
    4.8877    1.3466    2.6472 C   0  0  0  0  0  0  0  0  0  0  0  0
    5.2827    1.9954    1.4931 C   0  0  0  0  0  0  0  0  0  0  0  0
    6.6397    2.1453    1.3016 C   0  0  0  0  0  0  0  0  0  0  0  0
    7.1819    2.8495    0.2450 O   0  0  0  0  0  0  0  0  0  0  0  0
    6.5149    3.9462   -0.2616 C   0  0  0  0  0  0  0  0  0  0  0  0
    5.7483    4.8230    0.5075 C   0  0  0  0  0  0  0  0  0  0  0  0
    5.0057    5.8494   -0.0883 C   0  0  0  0  0  0  0  0  0  0  0  0
    5.1159    6.0289   -1.4771 C   0  0  0  0  0  0  0  0  0  0  0  0
    5.9545    5.2215   -2.2481 C   0  0  0  0  0  0  0  0  0  0  0  0
    5.8666    5.6746   -3.5902 C   0  0  0  0  0  0  0  0  0  0  0  0
    4.9054    6.6542   -3.6296 C   0  0  0  0  0  0  0  0  0  0  0  0
    4.4257    6.8715   -2.3494 N   0  0  0  0  0  0  0  0  0  0  0  0
    3.3372    7.7109   -2.0390 C   0  0  0  0  0  0  0  0  0  0  0  0
    2.3006    7.5910   -2.6750 O   0  0  0  0  0  0  0  0  0  0  0  0
    3.7084    8.6842   -1.1436 N   0  0  0  0  0  0  0  0  0  0  0  0
    2.8652    9.7562   -0.9332 C   0  0  0  0  0  0  0  0  0  0  0  0
    1.4805    9.7574   -0.6225 C   0  0  0  0  0  0  0  0  0  0  0  0
    1.1213   11.0892   -0.5931 C   0  0  0  0  0  0  0  0  0  0  0  0
   -0.2594   11.7385   -0.2829 C   0  0  0  0  0  0  0  0  0  0  0  0
   -0.4097   13.2465   -0.4783 C   0  0  0  0  0  0  0  0  0  0  0  0
    0.7621   13.8280   -0.8420 F   0  0  0  0  0  0  0  0  0  0  0  0
   -1.3121   13.5247   -1.4490 F   0  0  0  0  0  0  0  0  0  0  0  0
   -0.8219   13.8568    0.6577 F   0  0  0  0  0  0  0  0  0  0  0  0
   -1.0480   11.0895    0.8658 C   0  0  0  0  0  0  0  0  0  0  0  0
   -1.5025   10.8736   -0.5308 C   0  0  0  0  0  0  0  0  0  0  0  0
    2.2614   11.7735   -0.9211 N   0  0  0  0  0  0  0  0  0  0  0  0
    3.3535   10.9946   -1.0008 N   0  0  0  0  0  0  0  0  0  0  0  0
    6.6722    4.1753   -1.6332 C   0  0  0  0  0  0  0  0  0  0  0  0
    7.5531    1.5836    2.1138 N   0  0  0  0  0  0  0  0  0  0  0  0
    7.0673    0.9197    3.1701 C   0  0  0  0  0  0  0  0  0  0  0  0
    5.7741    0.7940    3.5017 N   0  0  0  0  0  0  0  0  0  0  0  0
    2.4136   -1.2943    0.9942 H   0  0  0  0  0  0  0  0  0  0  0  0
    2.9035   -1.3974    2.6943 H   0  0  0  0  0  0  0  0  0  0  0  0
    4.0713   -0.9110    1.4364 H   0  0  0  0  0  0  0  0  0  0  0  0
    1.6426    0.5848    2.2205 H   0  0  0  0  0  0  0  0  0  0  0  0
    3.2803    0.7239    3.9428 H   0  0  0  0  0  0  0  0  0  0  0  0
    3.0232    2.2471    3.1095 H   0  0  0  0  0  0  0  0  0  0  0  0
    4.5472    2.3791    0.7979 H   0  0  0  0  0  0  0  0  0  0  0  0
    5.6767    4.6966    1.5853 H   0  0  0  0  0  0  0  0  0  0  0  0
    4.3494    6.4655    0.5189 H   0  0  0  0  0  0  0  0  0  0  0  0
    6.4118    5.2901   -4.4438 H   0  0  0  0  0  0  0  0  0  0  0  0
    4.5116    7.2324   -4.4561 H   0  0  0  0  0  0  0  0  0  0  0  0
    4.6875    8.9454   -1.1303 H   0  0  0  0  0  0  0  0  0  0  0  0
    0.8515    8.8978   -0.4403 H   0  0  0  0  0  0  0  0  0  0  0  0
   -1.6536   11.7292    1.5026 H   0  0  0  0  0  0  0  0  0  0  0  0
   -0.6156   10.2531    1.4025 H   0  0  0  0  0  0  0  0  0  0  0  0
   -2.4201   11.3666   -0.8417 H   0  0  0  0  0  0  0  0  0  0  0  0
   -1.3924    9.8850   -0.9601 H   0  0  0  0  0  0  0  0  0  0  0  0
    2.3655   12.7746   -1.0691 H   0  0  0  0  0  0  0  0  0  0  0  0
    7.3049    3.5168   -2.2249 H   0  0  0  0  0  0  0  0  0  0  0  0
    7.7884    0.4407    3.8234 H   0  0  0  0  0  0  0  0  0  0  0  0
  1  2  1  0  0  0  0
  1 35  1  0  0  0  0
  1 36  1  0  0  0  0
  1 37  1  0  0  0  0
  2  3  1  0  0  0  0
  2 38  1  0  0  0  0
  3  4  1  0  0  0  0
  3 39  1  0  0  0  0
  3 40  1  0  0  0  0
  4  5  1  0  0  0  0
  4 34  2  0  0  0  0
  5  6  2  0  0  0  0
  5 41  1  0  0  0  0
  6  7  1  0  0  0  0
  6 32  1  0  0  0  0
  7  8  1  0  0  0  0
  8  9  1  0  0  0  0
  8 31  2  0  0  0  0
  9 10  2  0  0  0  0
  9 42  1  0  0  0  0
 10 11  1  0  0  0  0
 10 43  1  0  0  0  0
 11 12  2  0  0  0  0
 11 15  1  0  0  0  0
 12 13  1  0  0  0  0
 12 31  1  0  0  0  0
 13 14  2  0  0  0  0
 13 44  1  0  0  0  0
 14 15  1  0  0  0  0
 14 45  1  0  0  0  0
 15 16  1  0  0  0  0
 16 17  2  0  0  0  0
 16 18  1  0  0  0  0
 18 19  1  0  0  0  0
 18 46  1  0  0  0  0
 19 20  1  0  0  0  0
 19 30  2  0  0  0  0
 20 21  2  0  0  0  0
 20 47  1  0  0  0  0
 21 22  1  0  0  0  0
 21 29  1  0  0  0  0
 22 23  1  0  0  0  0
 22 27  1  0  0  0  0
 22 28  1  0  0  0  0
 23 24  1  0  0  0  0
 23 25  1  0  0  0  0
 23 26  1  0  0  0  0
 27 28  1  0  0  0  0
 27 48  1  0  0  0  0
 27 49  1  0  0  0  0
 28 50  1  0  0  0  0
 28 51  1  0  0  0  0
 29 30  1  0  0  0  0
 29 52  1  0  0  0  0
 31 53  1  0  0  0  0
 32 33  2  0  0  0  0
 33 34  1  0  0  0  0
 33 54  1  0  0  0  0
M  END
$$$$
