CHEMBL233213
 OpenBabel04072215363D

 49 52  0  0  0  0  0  0  0  0999 V2000
    6.5329    1.7424   -0.4654 C   0  0  0  0  0  0  0  0  0  0  0  0
    5.3647    0.8637   -0.3540 N   0  0  0  0  0  0  0  0  0  0  0  0
    4.9306    0.4421   -1.6857 C   0  0  0  0  0  0  0  0  0  0  0  0
    5.7017   -0.2824    0.5110 C   0  0  0  0  0  0  0  0  0  0  0  0
    4.5293   -1.2416    0.7778 C   0  0  0  0  0  0  0  0  0  0  0  0
    4.9141   -2.3507    1.7254 C   0  0  0  0  0  0  0  0  0  0  0  0
    5.3088   -2.0477    3.0292 C   0  0  0  0  0  0  0  0  0  0  0  0
    5.6190   -3.0660    3.9252 C   0  0  0  0  0  0  0  0  0  0  0  0
    5.5253   -4.4064    3.5453 C   0  0  0  0  0  0  0  0  0  0  0  0
    5.7443   -5.4428    4.4530 N   0  0  0  0  0  0  0  0  0  0  0  0
    5.5479   -5.4308    5.8306 C   0  0  0  0  0  0  0  0  0  0  0  0
    6.2584   -6.3382    6.5094 N   0  0  0  0  0  0  0  0  0  0  0  0
    6.0128   -6.4399    7.8251 C   0  0  0  0  0  0  0  0  0  0  0  0
    5.0829   -5.6820    8.4928 C   0  0  0  0  0  0  0  0  0  0  0  0
    4.7505   -6.0602   10.1390 Cl  0  0  0  0  0  0  0  0  0  0  0  0
    4.4437   -4.7129    7.7263 C   0  0  0  0  0  0  0  0  0  0  0  0
    3.5082   -3.7858    8.3745 C   0  0  0  0  0  0  0  0  0  0  0  0
    3.8719   -3.1910    9.5302 N   0  0  0  0  0  0  0  0  0  0  0  0
    2.7036   -2.9123   10.1153 N   0  0  0  0  0  0  0  0  0  0  0  0
    1.6115   -3.1852    9.3521 C   0  0  0  0  0  0  0  0  0  0  0  0
    0.2522   -3.1778    9.6655 C   0  0  0  0  0  0  0  0  0  0  0  0
   -0.6349   -3.4074    8.6146 C   0  0  0  0  0  0  0  0  0  0  0  0
   -0.1681   -3.6008    7.3135 C   0  0  0  0  0  0  0  0  0  0  0  0
    1.2082   -3.7063    7.0459 C   0  0  0  0  0  0  0  0  0  0  0  0
    2.1213   -3.5407    8.1064 C   0  0  0  0  0  0  0  0  0  0  0  0
    4.6479   -4.5938    6.3935 N   0  0  0  0  0  0  0  0  0  0  0  0
    5.1688   -4.7111    2.2292 C   0  0  0  0  0  0  0  0  0  0  0  0
    4.8582   -3.6925    1.3271 C   0  0  0  0  0  0  0  0  0  0  0  0
    6.2919    2.6295   -1.0606 H   0  0  0  0  0  0  0  0  0  0  0  0
    7.3874    1.2343   -0.9279 H   0  0  0  0  0  0  0  0  0  0  0  0
    6.8411    2.1038    0.5226 H   0  0  0  0  0  0  0  0  0  0  0  0
    4.7646    1.3117   -2.3314 H   0  0  0  0  0  0  0  0  0  0  0  0
    3.9692   -0.0797   -1.6393 H   0  0  0  0  0  0  0  0  0  0  0  0
    5.6625   -0.2129   -2.1713 H   0  0  0  0  0  0  0  0  0  0  0  0
    6.0423    0.1214    1.4736 H   0  0  0  0  0  0  0  0  0  0  0  0
    6.5467   -0.8469    0.0948 H   0  0  0  0  0  0  0  0  0  0  0  0
    4.1798   -1.6862   -0.1597 H   0  0  0  0  0  0  0  0  0  0  0  0
    3.6774   -0.6975    1.2056 H   0  0  0  0  0  0  0  0  0  0  0  0
    5.3695   -1.0180    3.3747 H   0  0  0  0  0  0  0  0  0  0  0  0
    5.9314   -2.7986    4.9311 H   0  0  0  0  0  0  0  0  0  0  0  0
    6.4669   -6.1028    4.2040 H   0  0  0  0  0  0  0  0  0  0  0  0
    6.5984   -7.1909    8.3460 H   0  0  0  0  0  0  0  0  0  0  0  0
    2.7244   -2.5639   11.0612 H   0  0  0  0  0  0  0  0  0  0  0  0
   -0.1006   -3.0231   10.6800 H   0  0  0  0  0  0  0  0  0  0  0  0
   -1.7043   -3.4239    8.8155 H   0  0  0  0  0  0  0  0  0  0  0  0
   -0.8851   -3.7058    6.5020 H   0  0  0  0  0  0  0  0  0  0  0  0
    1.5558   -3.8953    6.0341 H   0  0  0  0  0  0  0  0  0  0  0  0
    5.0781   -5.7475    1.9143 H   0  0  0  0  0  0  0  0  0  0  0  0
    4.5469   -3.9589    0.3200 H   0  0  0  0  0  0  0  0  0  0  0  0
  1  2  1  0  0  0  0
  1 29  1  0  0  0  0
  1 30  1  0  0  0  0
  1 31  1  0  0  0  0
  2  3  1  0  0  0  0
  2  4  1  0  0  0  0
  3 32  1  0  0  0  0
  3 33  1  0  0  0  0
  3 34  1  0  0  0  0
  4  5  1  0  0  0  0
  4 35  1  0  0  0  0
  4 36  1  0  0  0  0
  5  6  1  0  0  0  0
  5 37  1  0  0  0  0
  5 38  1  0  0  0  0
  6  7  1  0  0  0  0
  6 28  2  0  0  0  0
  7  8  2  0  0  0  0
  7 39  1  0  0  0  0
  8  9  1  0  0  0  0
  8 40  1  0  0  0  0
  9 10  1  0  0  0  0
  9 27  2  0  0  0  0
 10 11  1  0  0  0  0
 10 41  1  0  0  0  0
 11 12  1  0  0  0  0
 11 26  2  0  0  0  0
 12 13  2  0  0  0  0
 13 14  1  0  0  0  0
 13 42  1  0  0  0  0
 14 15  1  0  0  0  0
 14 16  2  0  0  0  0
 16 17  1  0  0  0  0
 16 26  1  0  0  0  0
 17 18  2  0  0  0  0
 17 25  1  0  0  0  0
 18 19  1  0  0  0  0
 19 20  1  0  0  0  0
 19 43  1  0  0  0  0
 20 21  1  0  0  0  0
 20 25  2  0  0  0  0
 21 22  2  0  0  0  0
 21 44  1  0  0  0  0
 22 23  1  0  0  0  0
 22 45  1  0  0  0  0
 23 24  2  0  0  0  0
 23 46  1  0  0  0  0
 24 25  1  0  0  0  0
 24 47  1  0  0  0  0
 27 28  1  0  0  0  0
 27 48  1  0  0  0  0
 28 49  1  0  0  0  0
M  END
$$$$
