CHEMBL1095762
 OpenBabel04072215363D

 41 44  0  0  0  0  0  0  0  0999 V2000
    1.2329    0.1730   -0.2426 N   0  0  0  0  0  0  0  0  0  0  0  0
    2.6135    0.1289   -0.1978 C   0  0  0  0  0  0  0  0  0  0  0  0
    3.1542   -1.0909   -0.1262 N   0  0  0  0  0  0  0  0  0  0  0  0
    4.4993   -1.2432   -0.1339 C   0  0  0  0  0  0  0  0  0  0  0  0
    5.1022   -2.5116   -0.0763 N   0  0  0  0  0  0  0  0  0  0  0  0
    4.5776   -3.7610    0.3022 C   0  0  0  0  0  0  0  0  0  0  0  0
    3.2061   -4.0485    0.2698 C   0  0  0  0  0  0  0  0  0  0  0  0
    2.7083   -5.2623    0.7514 C   0  0  0  0  0  0  0  0  0  0  0  0
    3.5823   -6.2137    1.2662 C   0  0  0  0  0  0  0  0  0  0  0  0
    2.9011   -7.8280    1.9732 Br  0  0  0  0  0  0  0  0  0  0  0  0
    4.9520   -5.9792    1.2747 C   0  0  0  0  0  0  0  0  0  0  0  0
    5.4396   -4.7626    0.7920 C   0  0  0  0  0  0  0  0  0  0  0  0
    7.1523   -4.4939    0.8395 Cl  0  0  0  0  0  0  0  0  0  0  0  0
    5.2807   -0.0798   -0.2071 C   0  0  0  0  0  0  0  0  0  0  0  0
    6.6660    0.2311   -0.2923 C   0  0  0  0  0  0  0  0  0  0  0  0
    6.7785    1.5968   -0.4836 C   0  0  0  0  0  0  0  0  0  0  0  0
    7.9572    2.4228   -0.8802 C   0  0  0  0  0  0  0  0  0  0  0  0
    8.7736    2.9196    0.2870 C   0  0  0  0  0  0  0  0  0  0  0  0
    9.8196    2.1132    0.7732 C   0  0  0  0  0  0  0  0  0  0  0  0
   10.5993    2.5289    1.8535 C   0  0  0  0  0  0  0  0  0  0  0  0
   10.3387    3.7535    2.4607 C   0  0  0  0  0  0  0  0  0  0  0  0
   11.2903    4.2599    3.8013 Cl  0  0  0  0  0  0  0  0  0  0  0  0
    9.3115    4.5693    1.9950 C   0  0  0  0  0  0  0  0  0  0  0  0
    8.5296    4.1524    0.9148 C   0  0  0  0  0  0  0  0  0  0  0  0
    7.2681    5.2101    0.3871 Cl  0  0  0  0  0  0  0  0  0  0  0  0
    5.5181    2.1319   -0.3244 N   0  0  0  0  0  0  0  0  0  0  0  0
    4.5982    1.1225   -0.2323 C   0  0  0  0  0  0  0  0  0  0  0  0
    3.2703    1.2927   -0.2085 N   0  0  0  0  0  0  0  0  0  0  0  0
    0.8553   -0.6900    0.1224 H   0  0  0  0  0  0  0  0  0  0  0  0
    0.8987    1.0378    0.1529 H   0  0  0  0  0  0  0  0  0  0  0  0
    6.1153   -2.4749   -0.0339 H   0  0  0  0  0  0  0  0  0  0  0  0
    2.4950   -3.3340   -0.1358 H   0  0  0  0  0  0  0  0  0  0  0  0
    1.6361   -5.4440    0.7298 H   0  0  0  0  0  0  0  0  0  0  0  0
    5.6379   -6.7209    1.6712 H   0  0  0  0  0  0  0  0  0  0  0  0
    7.4854   -0.4752   -0.3213 H   0  0  0  0  0  0  0  0  0  0  0  0
    7.6417    3.2532   -1.5226 H   0  0  0  0  0  0  0  0  0  0  0  0
    8.6021    1.8137   -1.5291 H   0  0  0  0  0  0  0  0  0  0  0  0
   10.0335    1.1520    0.3082 H   0  0  0  0  0  0  0  0  0  0  0  0
   11.4037    1.8931    2.2153 H   0  0  0  0  0  0  0  0  0  0  0  0
    9.1188    5.5262    2.4726 H   0  0  0  0  0  0  0  0  0  0  0  0
    5.2728    3.1118   -0.3690 H   0  0  0  0  0  0  0  0  0  0  0  0
  1  2  1  0  0  0  0
  1 29  1  0  0  0  0
  1 30  1  0  0  0  0
  2  3  1  0  0  0  0
  2 28  2  0  0  0  0
  3  4  2  0  0  0  0
  4  5  1  0  0  0  0
  4 14  1  0  0  0  0
  5  6  1  0  0  0  0
  5 31  1  0  0  0  0
  6  7  1  0  0  0  0
  6 12  2  0  0  0  0
  7  8  2  0  0  0  0
  7 32  1  0  0  0  0
  8  9  1  0  0  0  0
  8 33  1  0  0  0  0
  9 10  1  0  0  0  0
  9 11  2  0  0  0  0
 11 12  1  0  0  0  0
 11 34  1  0  0  0  0
 12 13  1  0  0  0  0
 14 15  1  0  0  0  0
 14 27  2  0  0  0  0
 15 16  2  0  0  0  0
 15 35  1  0  0  0  0
 16 17  1  0  0  0  0
 16 26  1  0  0  0  0
 17 18  1  0  0  0  0
 17 36  1  0  0  0  0
 17 37  1  0  0  0  0
 18 19  1  0  0  0  0
 18 24  2  0  0  0  0
 19 20  2  0  0  0  0
 19 38  1  0  0  0  0
 20 21  1  0  0  0  0
 20 39  1  0  0  0  0
 21 22  1  0  0  0  0
 21 23  2  0  0  0  0
 23 24  1  0  0  0  0
 23 40  1  0  0  0  0
 24 25  1  0  0  0  0
 26 27  1  0  0  0  0
 26 41  1  0  0  0  0
 27 28  1  0  0  0  0
M  END
$$$$
