CHEMBL425825
 OpenBabel04072215383D

 60 64  0  0  0  0  0  0  0  0999 V2000
    7.3788   -0.6791   12.7720 C   0  0  0  0  0  0  0  0  0  0  0  0
    6.7563   -1.7966   12.0746 N   0  0  0  0  0  0  0  0  0  0  0  0
    5.4519   -1.5295   11.6175 C   0  0  0  0  0  0  0  0  0  0  0  0
    4.7668   -2.5288   10.9536 C   0  0  0  0  0  0  0  0  0  0  0  0
    3.4993   -2.2134   10.5199 C   0  0  0  0  0  0  0  0  0  0  0  0
    2.8132   -3.1907    9.8005 O   0  0  0  0  0  0  0  0  0  0  0  0
    1.7918   -2.7684    8.9681 C   0  0  0  0  0  0  0  0  0  0  0  0
    1.9097   -1.6318    8.1479 C   0  0  0  0  0  0  0  0  0  0  0  0
    0.8485   -1.1831    7.3536 C   0  0  0  0  0  0  0  0  0  0  0  0
   -0.2921   -1.9705    7.3857 C   0  0  0  0  0  0  0  0  0  0  0  0
   -1.4613   -1.7627    6.7149 O   0  0  0  0  0  0  0  0  0  0  0  0
   -2.2276   -2.8561    7.0330 C   0  0  0  0  0  0  0  0  0  0  0  0
   -3.4244   -2.9073    6.4218 N   0  0  0  0  0  0  0  0  0  0  0  0
   -4.1226   -4.0767    6.0571 C   0  0  0  0  0  0  0  0  0  0  0  0
   -3.6368   -5.3662    6.2964 C   0  0  0  0  0  0  0  0  0  0  0  0
   -4.3593   -6.4980    5.9154 C   0  0  0  0  0  0  0  0  0  0  0  0
   -5.6053   -6.3675    5.3065 C   0  0  0  0  0  0  0  0  0  0  0  0
   -6.4037   -7.8230    4.8297 Cl  0  0  0  0  0  0  0  0  0  0  0  0
   -6.1513   -5.0962    5.0863 C   0  0  0  0  0  0  0  0  0  0  0  0
   -7.5052   -4.8857    4.4363 C   0  0  0  0  0  0  0  0  0  0  0  0
   -7.4360   -4.0737    3.2112 N   0  0  0  0  0  0  0  0  0  0  0  0
   -6.6556   -4.7332    2.1439 C   0  0  0  0  0  0  0  0  0  0  0  0
   -6.5994   -3.8570    0.8709 C   0  0  0  0  0  0  0  0  0  0  0  0
   -7.9159   -3.4761    0.3217 N   0  0  0  0  0  0  0  0  0  0  0  0
   -8.5612   -4.6020   -0.3483 C   0  0  0  0  0  0  0  0  0  0  0  0
   -8.7552   -2.9316    1.4087 C   0  0  0  0  0  0  0  0  0  0  0  0
   -8.7918   -3.7811    2.7029 C   0  0  0  0  0  0  0  0  0  0  0  0
   -5.3981   -3.9636    5.4791 C   0  0  0  0  0  0  0  0  0  0  0  0
   -1.6517   -3.6910    7.8761 N   0  0  0  0  0  0  0  0  0  0  0  0
   -0.4242   -3.1371    8.1171 C   0  0  0  0  0  0  0  0  0  0  0  0
    0.6355   -3.5606    8.9317 C   0  0  0  0  0  0  0  0  0  0  0  0
    2.9060   -1.0300   10.7559 N   0  0  0  0  0  0  0  0  0  0  0  0
    3.6645   -0.1241   11.3702 C   0  0  0  0  0  0  0  0  0  0  0  0
    4.9166   -0.3113   11.8005 N   0  0  0  0  0  0  0  0  0  0  0  0
    8.3354   -1.0049   13.1920 H   0  0  0  0  0  0  0  0  0  0  0  0
    6.7627   -0.3188   13.6040 H   0  0  0  0  0  0  0  0  0  0  0  0
    7.5855    0.1480   12.0835 H   0  0  0  0  0  0  0  0  0  0  0  0
    6.7416   -2.6362   12.6472 H   0  0  0  0  0  0  0  0  0  0  0  0
    5.2084   -3.4962   10.7581 H   0  0  0  0  0  0  0  0  0  0  0  0
    2.8321   -1.0547    8.1494 H   0  0  0  0  0  0  0  0  0  0  0  0
    0.9141   -0.2830    6.7571 H   0  0  0  0  0  0  0  0  0  0  0  0
   -3.6794   -2.0941    5.8743 H   0  0  0  0  0  0  0  0  0  0  0  0
   -2.6670   -5.5236    6.7598 H   0  0  0  0  0  0  0  0  0  0  0  0
   -3.9298   -7.4804    6.0938 H   0  0  0  0  0  0  0  0  0  0  0  0
   -8.1255   -4.3662    5.1798 H   0  0  0  0  0  0  0  0  0  0  0  0
   -8.0197   -5.8304    4.2334 H   0  0  0  0  0  0  0  0  0  0  0  0
   -7.0770   -5.7182    1.9040 H   0  0  0  0  0  0  0  0  0  0  0  0
   -5.6223   -4.8968    2.4698 H   0  0  0  0  0  0  0  0  0  0  0  0
   -5.9984   -4.3596    0.1031 H   0  0  0  0  0  0  0  0  0  0  0  0
   -6.0544   -2.9338    1.1108 H   0  0  0  0  0  0  0  0  0  0  0  0
   -7.9253   -4.9788   -1.1575 H   0  0  0  0  0  0  0  0  0  0  0  0
   -9.4974   -4.2780   -0.8161 H   0  0  0  0  0  0  0  0  0  0  0  0
   -8.7872   -5.4368    0.3223 H   0  0  0  0  0  0  0  0  0  0  0  0
   -9.7781   -2.7639    1.0494 H   0  0  0  0  0  0  0  0  0  0  0  0
   -8.3669   -1.9363    1.6635 H   0  0  0  0  0  0  0  0  0  0  0  0
   -9.3437   -4.7117    2.5140 H   0  0  0  0  0  0  0  0  0  0  0  0
   -9.3542   -3.2219    3.4604 H   0  0  0  0  0  0  0  0  0  0  0  0
   -5.8223   -2.9751    5.3033 H   0  0  0  0  0  0  0  0  0  0  0  0
    0.5463   -4.4645    9.5260 H   0  0  0  0  0  0  0  0  0  0  0  0
    3.2309    0.8568   11.5272 H   0  0  0  0  0  0  0  0  0  0  0  0
  1  2  1  0  0  0  0
  1 35  1  0  0  0  0
  1 36  1  0  0  0  0
  1 37  1  0  0  0  0
  2  3  1  0  0  0  0
  2 38  1  0  0  0  0
  3  4  1  0  0  0  0
  3 34  2  0  0  0  0
  4  5  2  0  0  0  0
  4 39  1  0  0  0  0
  5  6  1  0  0  0  0
  5 32  1  0  0  0  0
  6  7  1  0  0  0  0
  7  8  1  0  0  0  0
  7 31  2  0  0  0  0
  8  9  2  0  0  0  0
  8 40  1  0  0  0  0
  9 10  1  0  0  0  0
  9 41  1  0  0  0  0
 10 11  1  0  0  0  0
 10 30  2  0  0  0  0
 11 12  1  0  0  0  0
 12 13  1  0  0  0  0
 12 29  2  0  0  0  0
 13 14  1  0  0  0  0
 13 42  1  0  0  0  0
 14 15  1  0  0  0  0
 14 28  2  0  0  0  0
 15 16  2  0  0  0  0
 15 43  1  0  0  0  0
 16 17  1  0  0  0  0
 16 44  1  0  0  0  0
 17 18  1  0  0  0  0
 17 19  2  0  0  0  0
 19 20  1  0  0  0  0
 19 28  1  0  0  0  0
 20 21  1  0  0  0  0
 20 45  1  0  0  0  0
 20 46  1  0  0  0  0
 21 22  1  0  0  0  0
 21 27  1  0  0  0  0
 22 23  1  0  0  0  0
 22 47  1  0  0  0  0
 22 48  1  0  0  0  0
 23 24  1  0  0  0  0
 23 49  1  0  0  0  0
 23 50  1  0  0  0  0
 24 25  1  0  0  0  0
 24 26  1  0  0  0  0
 25 51  1  0  0  0  0
 25 52  1  0  0  0  0
 25 53  1  0  0  0  0
 26 27  1  0  0  0  0
 26 54  1  0  0  0  0
 26 55  1  0  0  0  0
 27 56  1  0  0  0  0
 27 57  1  0  0  0  0
 28 58  1  0  0  0  0
 29 30  1  0  0  0  0
 30 31  1  0  0  0  0
 31 59  1  0  0  0  0
 32 33  2  0  0  0  0
 33 34  1  0  0  0  0
 33 60  1  0  0  0  0
M  END
$$$$
