CHEMBL1242751
 OpenBabel04072215363D

 42 44  0  0  0  0  0  0  0  0999 V2000
    2.1176    3.9281   -2.5180 C   0  0  0  0  0  0  0  0  0  0  0  0
    3.1480    3.2009   -3.1796 O   0  0  0  0  0  0  0  0  0  0  0  0
    3.4167    1.9438   -2.6956 C   0  0  0  0  0  0  0  0  0  0  0  0
    2.4458    1.1681   -2.0517 C   0  0  0  0  0  0  0  0  0  0  0  0
    2.7514   -0.1092   -1.5943 C   0  0  0  0  0  0  0  0  0  0  0  0
    4.0248   -0.6336   -1.7999 C   0  0  0  0  0  0  0  0  0  0  0  0
    4.9966    0.0763   -2.5266 C   0  0  0  0  0  0  0  0  0  0  0  0
    6.2751   -0.5899   -2.8159 C   0  0  0  0  0  0  0  0  0  0  0  0
    7.4452    0.0716   -2.6522 N   0  0  0  0  0  0  0  0  0  0  0  0
    8.3896   -0.8237   -3.0052 N   0  0  0  0  0  0  0  0  0  0  0  0
    9.7902   -0.4108   -3.0750 C   0  0  0  0  0  0  0  0  0  0  0  0
   10.0045    0.6075   -4.1987 C   0  0  0  0  0  0  0  0  0  0  0  0
   10.2857    0.1328   -1.7344 C   0  0  0  0  0  0  0  0  0  0  0  0
    7.9000   -2.0670   -3.2834 C   0  0  0  0  0  0  0  0  0  0  0  0
    8.6117   -3.1668   -3.5717 N   0  0  0  0  0  0  0  0  0  0  0  0
    7.8192   -4.2219   -3.7919 C   0  0  0  0  0  0  0  0  0  0  0  0
    6.4746   -4.2606   -3.7748 N   0  0  0  0  0  0  0  0  0  0  0  0
    5.7930   -3.1235   -3.5081 C   0  0  0  0  0  0  0  0  0  0  0  0
    4.4238   -3.2472   -3.5236 N   0  0  0  0  0  0  0  0  0  0  0  0
    6.5159   -1.9542   -3.2065 C   0  0  0  0  0  0  0  0  0  0  0  0
    4.7000    1.3983   -2.9366 C   0  0  0  0  0  0  0  0  0  0  0  0
    5.6602    2.0874   -3.6454 O   0  0  0  0  0  0  0  0  0  0  0  0
    5.9125    3.4093   -3.1664 C   0  0  0  0  0  0  0  0  0  0  0  0
    2.1633    4.9651   -2.8640 H   0  0  0  0  0  0  0  0  0  0  0  0
    2.2618    3.9320   -1.4316 H   0  0  0  0  0  0  0  0  0  0  0  0
    1.1312    3.5363   -2.7838 H   0  0  0  0  0  0  0  0  0  0  0  0
    1.4329    1.5297   -1.9079 H   0  0  0  0  0  0  0  0  0  0  0  0
    1.9936   -0.7018   -1.0879 H   0  0  0  0  0  0  0  0  0  0  0  0
    4.2466   -1.6214   -1.3999 H   0  0  0  0  0  0  0  0  0  0  0  0
   10.3778   -1.3031   -3.3129 H   0  0  0  0  0  0  0  0  0  0  0  0
    9.4116    1.5164   -4.0412 H   0  0  0  0  0  0  0  0  0  0  0  0
    9.7130    0.1858   -5.1645 H   0  0  0  0  0  0  0  0  0  0  0  0
   11.0584    0.8995   -4.2619 H   0  0  0  0  0  0  0  0  0  0  0  0
    9.7452    1.0380   -1.4385 H   0  0  0  0  0  0  0  0  0  0  0  0
   11.3505    0.3803   -1.7904 H   0  0  0  0  0  0  0  0  0  0  0  0
   10.1527   -0.6091   -0.9411 H   0  0  0  0  0  0  0  0  0  0  0  0
    8.3158   -5.1626   -4.0062 H   0  0  0  0  0  0  0  0  0  0  0  0
    4.0660   -4.1712   -3.7209 H   0  0  0  0  0  0  0  0  0  0  0  0
    3.8042   -2.4552   -3.4918 H   0  0  0  0  0  0  0  0  0  0  0  0
    6.9806    3.6170   -3.2855 H   0  0  0  0  0  0  0  0  0  0  0  0
    5.6649    3.5445   -2.1067 H   0  0  0  0  0  0  0  0  0  0  0  0
    5.3707    4.1340   -3.7818 H   0  0  0  0  0  0  0  0  0  0  0  0
  1  2  1  0  0  0  0
  1 24  1  0  0  0  0
  1 25  1  0  0  0  0
  1 26  1  0  0  0  0
  2  3  1  0  0  0  0
  3  4  1  0  0  0  0
  3 21  2  0  0  0  0
  4  5  2  0  0  0  0
  4 27  1  0  0  0  0
  5  6  1  0  0  0  0
  5 28  1  0  0  0  0
  6  7  2  0  0  0  0
  6 29  1  0  0  0  0
  7  8  1  0  0  0  0
  7 21  1  0  0  0  0
  8  9  2  0  0  0  0
  8 20  1  0  0  0  0
  9 10  1  0  0  0  0
 10 11  1  0  0  0  0
 10 14  1  0  0  0  0
 11 12  1  0  0  0  0
 11 13  1  0  0  0  0
 11 30  1  0  0  0  0
 12 31  1  0  0  0  0
 12 32  1  0  0  0  0
 12 33  1  0  0  0  0
 13 34  1  0  0  0  0
 13 35  1  0  0  0  0
 13 36  1  0  0  0  0
 14 15  1  0  0  0  0
 14 20  2  0  0  0  0
 15 16  2  0  0  0  0
 16 17  1  0  0  0  0
 16 37  1  0  0  0  0
 17 18  2  0  0  0  0
 18 19  1  0  0  0  0
 18 20  1  0  0  0  0
 19 38  1  0  0  0  0
 19 39  1  0  0  0  0
 21 22  1  0  0  0  0
 22 23  1  0  0  0  0
 23 40  1  0  0  0  0
 23 41  1  0  0  0  0
 23 42  1  0  0  0  0
M  END
$$$$
