CHEMBL3969861
 OpenBabel04072215373D

 51 54  0  0  0  0  0  0  0  0999 V2000
    1.1583    0.6981    0.0188 O   0  0  0  0  0  0  0  0  0  0  0  0
    2.2333    0.1097    0.0216 C   0  0  0  0  0  0  0  0  0  0  0  0
    2.7618   -0.5565   -1.0808 N   0  0  0  0  0  0  0  0  0  0  0  0
    2.1088   -0.6797   -2.3398 C   0  0  0  0  0  0  0  0  0  0  0  0
    1.0258    0.1275   -2.7041 C   0  0  0  0  0  0  0  0  0  0  0  0
    0.3127   -0.1074   -3.8770 C   0  0  0  0  0  0  0  0  0  0  0  0
    0.6969   -1.1359   -4.7242 C   0  0  0  0  0  0  0  0  0  0  0  0
    1.8451   -1.8831   -4.4444 C   0  0  0  0  0  0  0  0  0  0  0  0
    2.2858   -2.9015   -5.2733 O   0  0  0  0  0  0  0  0  0  0  0  0
    2.1890   -2.7045   -6.6530 C   0  0  0  0  0  0  0  0  0  0  0  0
    2.1405   -3.8285   -7.4555 C   0  0  0  0  0  0  0  0  0  0  0  0
    2.0668   -3.5920   -8.8146 C   0  0  0  0  0  0  0  0  0  0  0  0
    2.0853   -4.6821   -9.7081 N   0  0  0  0  0  0  0  0  0  0  0  0
    2.1175   -4.5383  -11.0814 C   0  0  0  0  0  0  0  0  0  0  0  0
    2.0850   -3.4941  -11.7202 O   0  0  0  0  0  0  0  0  0  0  0  0
    2.2206   -5.8304  -11.8376 C   0  0  0  0  0  0  0  0  0  0  0  0
    3.0321   -5.8762  -13.1169 C   0  0  0  0  0  0  0  0  0  0  0  0
    1.5349   -5.9555  -13.1817 C   0  0  0  0  0  0  0  0  0  0  0  0
    2.0014   -2.3508   -9.3098 N   0  0  0  0  0  0  0  0  0  0  0  0
    2.0664   -1.3345   -8.4525 C   0  0  0  0  0  0  0  0  0  0  0  0
    2.1889   -1.4485   -7.1327 N   0  0  0  0  0  0  0  0  0  0  0  0
    2.5414   -1.6667   -3.2426 C   0  0  0  0  0  0  0  0  0  0  0  0
    3.0456    0.0043    1.1420 N   0  0  0  0  0  0  0  0  0  0  0  0
    2.7335    0.4719    2.4448 C   0  0  0  0  0  0  0  0  0  0  0  0
    1.5292    1.1042    2.7804 C   0  0  0  0  0  0  0  0  0  0  0  0
    1.2807    1.5355    4.0854 C   0  0  0  0  0  0  0  0  0  0  0  0
    2.2274    1.3256    5.0747 C   0  0  0  0  0  0  0  0  0  0  0  0
    1.9553    1.7468    6.3150 F   0  0  0  0  0  0  0  0  0  0  0  0
    3.4291    0.6873    4.7864 C   0  0  0  0  0  0  0  0  0  0  0  0
    4.4337    0.4221    5.8662 C   0  0  0  0  0  0  0  0  0  0  0  0
    4.0955    0.8693    7.1037 F   0  0  0  0  0  0  0  0  0  0  0  0
    4.6793   -0.9125    6.0107 F   0  0  0  0  0  0  0  0  0  0  0  0
    5.6448    0.9839    5.5870 F   0  0  0  0  0  0  0  0  0  0  0  0
    3.6790    0.2712    3.4602 C   0  0  0  0  0  0  0  0  0  0  0  0
    3.5423   -1.1738   -0.9206 H   0  0  0  0  0  0  0  0  0  0  0  0
    0.6933    0.9569   -2.0883 H   0  0  0  0  0  0  0  0  0  0  0  0
   -0.5451    0.5137   -4.1202 H   0  0  0  0  0  0  0  0  0  0  0  0
    0.1077   -1.3196   -5.6181 H   0  0  0  0  0  0  0  0  0  0  0  0
    2.1705   -4.8201   -7.0290 H   0  0  0  0  0  0  0  0  0  0  0  0
    2.1281   -5.6108   -9.3164 H   0  0  0  0  0  0  0  0  0  0  0  0
    2.2468   -6.7310  -11.2318 H   0  0  0  0  0  0  0  0  0  0  0  0
    3.5965   -6.7722  -13.3432 H   0  0  0  0  0  0  0  0  0  0  0  0
    3.5028   -4.9600  -13.4617 H   0  0  0  0  0  0  0  0  0  0  0  0
    1.0869   -6.9043  -13.4477 H   0  0  0  0  0  0  0  0  0  0  0  0
    1.0031   -5.0913  -13.5693 H   0  0  0  0  0  0  0  0  0  0  0  0
    2.0100   -0.3353   -8.8684 H   0  0  0  0  0  0  0  0  0  0  0  0
    3.4021   -2.2886   -3.0160 H   0  0  0  0  0  0  0  0  0  0  0  0
    3.9571   -0.4043    1.0100 H   0  0  0  0  0  0  0  0  0  0  0  0
    0.7457    1.2849    2.0526 H   0  0  0  0  0  0  0  0  0  0  0  0
    0.3435    2.0287    4.3274 H   0  0  0  0  0  0  0  0  0  0  0  0
    4.6239   -0.2244    3.2387 H   0  0  0  0  0  0  0  0  0  0  0  0
  1  2  2  0  0  0  0
  2  3  1  0  0  0  0
  2 23  1  0  0  0  0
  3  4  1  0  0  0  0
  3 35  1  0  0  0  0
  4  5  1  0  0  0  0
  4 22  2  0  0  0  0
  5  6  2  0  0  0  0
  5 36  1  0  0  0  0
  6  7  1  0  0  0  0
  6 37  1  0  0  0  0
  7  8  2  0  0  0  0
  7 38  1  0  0  0  0
  8  9  1  0  0  0  0
  8 22  1  0  0  0  0
  9 10  1  0  0  0  0
 10 11  1  0  0  0  0
 10 21  2  0  0  0  0
 11 12  2  0  0  0  0
 11 39  1  0  0  0  0
 12 13  1  0  0  0  0
 12 19  1  0  0  0  0
 13 14  1  0  0  0  0
 13 40  1  0  0  0  0
 14 15  2  0  0  0  0
 14 16  1  0  0  0  0
 16 17  1  0  0  0  0
 16 18  1  0  0  0  0
 16 41  1  0  0  0  0
 17 18  1  0  0  0  0
 17 42  1  0  0  0  0
 17 43  1  0  0  0  0
 18 44  1  0  0  0  0
 18 45  1  0  0  0  0
 19 20  2  0  0  0  0
 20 21  1  0  0  0  0
 20 46  1  0  0  0  0
 22 47  1  0  0  0  0
 23 24  1  0  0  0  0
 23 48  1  0  0  0  0
 24 25  1  0  0  0  0
 24 34  2  0  0  0  0
 25 26  2  0  0  0  0
 25 49  1  0  0  0  0
 26 27  1  0  0  0  0
 26 50  1  0  0  0  0
 27 28  1  0  0  0  0
 27 29  2  0  0  0  0
 29 30  1  0  0  0  0
 29 34  1  0  0  0  0
 30 31  1  0  0  0  0
 30 32  1  0  0  0  0
 30 33  1  0  0  0  0
 34 51  1  0  0  0  0
M  END
$$$$
