CHEMBL507056
 OpenBabel04072215383D

 42 45  0  0  0  0  0  0  0  0999 V2000
    3.2672    1.2049    0.4187 C   0  0  0  0  0  0  0  0  0  0  0  0
    2.6327    0.0354   -0.0920 O   0  0  0  0  0  0  0  0  0  0  0  0
    3.3810   -0.7144   -0.9599 C   0  0  0  0  0  0  0  0  0  0  0  0
    4.7736   -0.7629   -0.9829 C   0  0  0  0  0  0  0  0  0  0  0  0
    5.4357   -1.5550   -1.9292 C   0  0  0  0  0  0  0  0  0  0  0  0
    4.7162   -2.3050   -2.8657 C   0  0  0  0  0  0  0  0  0  0  0  0
    5.4328   -3.0855   -3.8809 C   0  0  0  0  0  0  0  0  0  0  0  0
    5.9141   -4.3354   -3.7578 C   0  0  0  0  0  0  0  0  0  0  0  0
    5.8421   -5.1329   -2.5933 C   0  0  0  0  0  0  0  0  0  0  0  0
    4.7140   -5.8239   -2.2178 C   0  0  0  0  0  0  0  0  0  0  0  0
    4.6857   -5.7700   -0.8479 N   0  0  0  0  0  0  0  0  0  0  0  0
    3.4822   -5.9715   -0.0737 C   0  0  0  0  0  0  0  0  0  0  0  0
    5.8729   -5.2602   -0.3579 C   0  0  0  0  0  0  0  0  0  0  0  0
    6.2721   -4.9213    0.9451 C   0  0  0  0  0  0  0  0  0  0  0  0
    7.5548   -4.3899    1.1219 C   0  0  0  0  0  0  0  0  0  0  0  0
    8.4204   -4.2220    0.0445 C   0  0  0  0  0  0  0  0  0  0  0  0
    7.9920   -4.5032   -1.2552 C   0  0  0  0  0  0  0  0  0  0  0  0
    6.6876   -5.0003   -1.4607 C   0  0  0  0  0  0  0  0  0  0  0  0
    6.6106   -4.6384   -5.0159 C   0  0  0  0  0  0  0  0  0  0  0  0
    7.1953   -5.6632   -5.3188 O   0  0  0  0  0  0  0  0  0  0  0  0
    6.4815   -3.5272   -5.8237 N   0  0  0  0  0  0  0  0  0  0  0  0
    5.7927   -2.4538   -5.1766 C   0  0  0  0  0  0  0  0  0  0  0  0
    3.3183   -2.2948   -2.8055 C   0  0  0  0  0  0  0  0  0  0  0  0
    2.6572   -1.5056   -1.8542 C   0  0  0  0  0  0  0  0  0  0  0  0
    2.5242    1.7684    0.9924 H   0  0  0  0  0  0  0  0  0  0  0  0
    3.6200    1.8500   -0.3941 H   0  0  0  0  0  0  0  0  0  0  0  0
    4.0838    0.9529    1.1023 H   0  0  0  0  0  0  0  0  0  0  0  0
    5.3757   -0.2106   -0.2699 H   0  0  0  0  0  0  0  0  0  0  0  0
    6.5227   -1.5907   -1.9171 H   0  0  0  0  0  0  0  0  0  0  0  0
    3.8469   -6.1364   -2.7854 H   0  0  0  0  0  0  0  0  0  0  0  0
    2.7188   -6.4352   -0.7047 H   0  0  0  0  0  0  0  0  0  0  0  0
    3.1336   -4.9890    0.2578 H   0  0  0  0  0  0  0  0  0  0  0  0
    3.7092   -6.6172    0.7753 H   0  0  0  0  0  0  0  0  0  0  0  0
    5.6001   -5.0313    1.7892 H   0  0  0  0  0  0  0  0  0  0  0  0
    7.8787   -4.0985    2.1183 H   0  0  0  0  0  0  0  0  0  0  0  0
    9.4235   -3.8366    0.2075 H   0  0  0  0  0  0  0  0  0  0  0  0
    8.6519   -4.3278   -2.1004 H   0  0  0  0  0  0  0  0  0  0  0  0
    6.9139   -3.4893   -6.7309 H   0  0  0  0  0  0  0  0  0  0  0  0
    4.9268   -2.1600   -5.7741 H   0  0  0  0  0  0  0  0  0  0  0  0
    6.4803   -1.6127   -5.0469 H   0  0  0  0  0  0  0  0  0  0  0  0
    2.7292   -2.8954   -3.4941 H   0  0  0  0  0  0  0  0  0  0  0  0
    1.5700   -1.4947   -1.8215 H   0  0  0  0  0  0  0  0  0  0  0  0
  1  2  1  0  0  0  0
  1 25  1  0  0  0  0
  1 26  1  0  0  0  0
  1 27  1  0  0  0  0
  2  3  1  0  0  0  0
  3  4  1  0  0  0  0
  3 24  2  0  0  0  0
  4  5  2  0  0  0  0
  4 28  1  0  0  0  0
  5  6  1  0  0  0  0
  5 29  1  0  0  0  0
  6  7  1  0  0  0  0
  6 23  2  0  0  0  0
  7  8  2  0  0  0  0
  7 22  1  0  0  0  0
  8  9  1  0  0  0  0
  8 19  1  0  0  0  0
  9 10  2  0  0  0  0
  9 18  1  0  0  0  0
 10 11  1  0  0  0  0
 10 30  1  0  0  0  0
 11 12  1  0  0  0  0
 11 13  1  0  0  0  0
 12 31  1  0  0  0  0
 12 32  1  0  0  0  0
 12 33  1  0  0  0  0
 13 14  1  0  0  0  0
 13 18  2  0  0  0  0
 14 15  2  0  0  0  0
 14 34  1  0  0  0  0
 15 16  1  0  0  0  0
 15 35  1  0  0  0  0
 16 17  2  0  0  0  0
 16 36  1  0  0  0  0
 17 18  1  0  0  0  0
 17 37  1  0  0  0  0
 19 20  2  0  0  0  0
 19 21  1  0  0  0  0
 21 22  1  0  0  0  0
 21 38  1  0  0  0  0
 22 39  1  0  0  0  0
 22 40  1  0  0  0  0
 23 24  1  0  0  0  0
 23 41  1  0  0  0  0
 24 42  1  0  0  0  0
M  END
$$$$
