CHEMBL3215582
 OpenBabel04072215363D

 60 62  0  0  0  0  0  0  0  0999 V2000
    1.0558   -0.0816   -0.3211 C   0  0  0  0  0  0  0  0  0  0  0  0
    2.5482   -0.2420   -0.2693 C   0  0  0  0  0  0  0  0  0  0  0  0
    3.2583    0.9656   -0.1918 C   0  0  0  0  0  0  0  0  0  0  0  0
    4.6322    1.0028   -0.1139 C   0  0  0  0  0  0  0  0  0  0  0  0
    5.3711   -0.1777   -0.1321 C   0  0  0  0  0  0  0  0  0  0  0  0
    6.7846   -0.1403   -0.1150 C   0  0  0  0  0  0  0  0  0  0  0  0
    7.5147    1.0771    0.0281 N   0  0  0  0  0  0  0  0  0  0  0  0
    8.8086    1.2385   -0.5389 C   0  0  0  0  0  0  0  0  0  0  0  0
    9.1364    0.6036   -1.7517 C   0  0  0  0  0  0  0  0  0  0  0  0
   10.3988    0.7672   -2.3177 C   0  0  0  0  0  0  0  0  0  0  0  0
   11.3561    1.5534   -1.6728 C   0  0  0  0  0  0  0  0  0  0  0  0
   12.9521    1.7314   -2.3755 Cl  0  0  0  0  0  0  0  0  0  0  0  0
   11.0378    2.1969   -0.4706 C   0  0  0  0  0  0  0  0  0  0  0  0
    9.7621    2.0541    0.0876 C   0  0  0  0  0  0  0  0  0  0  0  0
    7.4817   -1.3037   -0.2033 N   0  0  0  0  0  0  0  0  0  0  0  0
    6.8784   -2.5092   -0.2778 C   0  0  0  0  0  0  0  0  0  0  0  0
    5.4922   -2.5990   -0.2732 C   0  0  0  0  0  0  0  0  0  0  0  0
    4.6965   -1.4319   -0.2100 C   0  0  0  0  0  0  0  0  0  0  0  0
    3.2631   -1.4948   -0.2563 C   0  0  0  0  0  0  0  0  0  0  0  0
    2.6330   -2.8062   -0.1834 N   0  0  0  0  0  0  0  0  0  0  0  0
    1.3388   -3.2327   -0.6294 C   0  0  0  0  0  0  0  0  0  0  0  0
    0.6644   -2.4633   -1.5197 N   0  0  0  0  0  0  0  0  0  0  0  0
   -0.6172   -2.6871   -1.8997 C   0  0  0  0  0  0  0  0  0  0  0  0
   -1.3043   -3.7693   -1.3864 C   0  0  0  0  0  0  0  0  0  0  0  0
   -0.6504   -4.6276   -0.5164 C   0  0  0  0  0  0  0  0  0  0  0  0
    0.6914   -4.4106   -0.1254 C   0  0  0  0  0  0  0  0  0  0  0  0
    1.2389   -5.4405    0.8228 C   0  0  0  0  0  0  0  0  0  0  0  0
    0.3546   -5.9994    1.7091 N   0  0  0  0  0  0  0  0  0  0  0  0
    0.7003   -6.9800    2.5943 C   0  0  0  0  0  0  0  0  0  0  0  0
    1.9699   -7.4762    2.6149 N   0  0  0  0  0  0  0  0  0  0  0  0
    2.8590   -6.9639    1.7346 C   0  0  0  0  0  0  0  0  0  0  0  0
    4.1242   -7.3470    1.5655 N   0  0  0  0  0  0  0  0  0  0  0  0
    4.5761   -6.5661    0.5523 C   0  0  0  0  0  0  0  0  0  0  0  0
    3.6227   -5.7202    0.0789 N   0  0  0  0  0  0  0  0  0  0  0  0
    2.5463   -5.9723    0.8523 C   0  0  0  0  0  0  0  0  0  0  0  0
    1.9367    1.7518   -3.2593 Cl  0  0  0  0  0  0  0  0  0  0  0  0
   -1.0573    0.0156    2.4404 Cl  0  0  0  0  0  0  0  0  0  0  0  0
    1.1805    2.8244    2.0640 Cl  0  0  0  0  0  0  0  0  0  0  0  0
    0.7237    0.9402   -0.0483 H   0  0  0  0  0  0  0  0  0  0  0  0
    0.5611   -0.7903    0.3642 H   0  0  0  0  0  0  0  0  0  0  0  0
    0.7162   -0.1714   -1.3701 H   0  0  0  0  0  0  0  0  0  0  0  0
    2.7420    1.9172   -0.1957 H   0  0  0  0  0  0  0  0  0  0  0  0
    5.1010    1.9760   -0.0708 H   0  0  0  0  0  0  0  0  0  0  0  0
    7.1517    1.8097    0.6567 H   0  0  0  0  0  0  0  0  0  0  0  0
    8.4050   -0.0001   -2.2744 H   0  0  0  0  0  0  0  0  0  0  0  0
   10.6280    0.2799   -3.2567 H   0  0  0  0  0  0  0  0  0  0  0  0
   11.7783    2.8054    0.0313 H   0  0  0  0  0  0  0  0  0  0  0  0
    9.5269    2.5540    1.0192 H   0  0  0  0  0  0  0  0  0  0  0  0
    7.4813   -3.4048   -0.3446 H   0  0  0  0  0  0  0  0  0  0  0  0
    5.0784   -3.5874   -0.3555 H   0  0  0  0  0  0  0  0  0  0  0  0
    3.1291   -3.4638    0.4129 H   0  0  0  0  0  0  0  0  0  0  0  0
   -1.1065   -2.0015   -2.5795 H   0  0  0  0  0  0  0  0  0  0  0  0
   -2.3331   -3.9506   -1.6662 H   0  0  0  0  0  0  0  0  0  0  0  0
   -1.2078   -5.4828   -0.1543 H   0  0  0  0  0  0  0  0  0  0  0  0
   -0.0427   -7.3696    3.2751 H   0  0  0  0  0  0  0  0  0  0  0  0
    4.6421   -8.0890    2.0885 H   0  0  0  0  0  0  0  0  0  0  0  0
    5.5825   -6.6290    0.1630 H   0  0  0  0  0  0  0  0  0  0  0  0
    1.3081    2.1982   -2.1193 H   0  0  0  0  0  0  0  0  0  0  0  0
    0.3108   -0.1226    2.5321 H   0  0  0  0  0  0  0  0  0  0  0  0
    1.9731    1.7013    2.1471 H   0  0  0  0  0  0  0  0  0  0  0  0
  1  2  1  0  0  0  0
  1 39  1  0  0  0  0
  1 40  1  0  0  0  0
  1 41  1  0  0  0  0
  2  3  1  0  0  0  0
  2 19  2  0  0  0  0
  3  4  2  0  0  0  0
  3 42  1  0  0  0  0
  4  5  1  0  0  0  0
  4 43  1  0  0  0  0
  5  6  1  0  0  0  0
  5 18  2  0  0  0  0
  6  7  1  0  0  0  0
  6 15  2  0  0  0  0
  7  8  1  0  0  0  0
  7 44  1  0  0  0  0
  8  9  1  0  0  0  0
  8 14  2  0  0  0  0
  9 10  2  0  0  0  0
  9 45  1  0  0  0  0
 10 11  1  0  0  0  0
 10 46  1  0  0  0  0
 11 12  1  0  0  0  0
 11 13  2  0  0  0  0
 13 14  1  0  0  0  0
 13 47  1  0  0  0  0
 14 48  1  0  0  0  0
 15 16  1  0  0  0  0
 16 17  2  0  0  0  0
 16 49  1  0  0  0  0
 17 18  1  0  0  0  0
 17 50  1  0  0  0  0
 18 19  1  0  0  0  0
 19 20  1  0  0  0  0
 20 21  1  0  0  0  0
 20 51  1  0  0  0  0
 21 22  1  0  0  0  0
 21 26  2  0  0  0  0
 22 23  2  0  0  0  0
 23 24  1  0  0  0  0
 23 52  1  0  0  0  0
 24 25  2  0  0  0  0
 24 53  1  0  0  0  0
 25 26  1  0  0  0  0
 25 54  1  0  0  0  0
 26 27  1  0  0  0  0
 27 28  1  0  0  0  0
 27 35  2  0  0  0  0
 28 29  2  0  0  0  0
 29 30  1  0  0  0  0
 29 55  1  0  0  0  0
 30 31  2  0  0  0  0
 31 32  1  0  0  0  0
 31 35  1  0  0  0  0
 32 33  1  0  0  0  0
 32 56  1  0  0  0  0
 33 34  2  0  0  0  0
 33 57  1  0  0  0  0
 34 35  1  0  0  0  0
 36 58  1  0  0  0  0
 37 59  1  0  0  0  0
 38 60  1  0  0  0  0
M  END
$$$$
