CHEMBL3933224
 OpenBabel04072215373D

 48 50  0  0  1  0  0  0  0  0999 V2000
    4.9656    0.2686   -0.0936 C   0  0  0  0  0  0  0  0  0  0  0  0
    5.2927   -1.2070    0.1832 C   0  0  3  0  0  0  0  0  0  0  0  0
    6.6770   -1.2673    0.8530 C   0  0  0  0  0  0  0  0  0  0  0  0
    7.1500   -2.5129    1.1624 N   0  0  0  0  0  0  0  0  0  0  0  0
    7.3930   -0.2882    1.0614 O   0  0  0  0  0  0  0  0  0  0  0  0
    4.1322   -1.8317    0.9731 C   0  0  0  0  0  0  0  0  0  0  0  0
    4.1187   -1.6662    2.3776 C   0  0  0  0  0  0  0  0  0  0  0  0
    3.0505   -2.1040    3.1578 C   0  0  0  0  0  0  0  0  0  0  0  0
    1.9538   -2.6994    2.5534 C   0  0  0  0  0  0  0  0  0  0  0  0
    1.9362   -2.8771    1.1703 C   0  0  0  0  0  0  0  0  0  0  0  0
    3.0139   -2.4621    0.3545 C   0  0  0  0  0  0  0  0  0  0  0  0
    2.8870   -2.7711   -1.1402 C   0  0  0  0  0  0  0  0  0  0  0  0
    2.8423   -1.5391   -2.0478 C   0  0  0  0  0  0  0  0  0  0  0  0
    2.7283   -1.7874   -3.5348 C   0  0  0  0  0  0  0  0  0  0  0  0
    1.8981   -2.7859   -3.9405 N   0  0  0  0  0  0  0  0  0  0  0  0
    1.7083   -2.9472   -5.2660 C   0  0  0  0  0  0  0  0  0  0  0  0
    0.7526   -3.8887   -5.6524 N   0  0  0  0  0  0  0  0  0  0  0  0
    0.1649   -4.0400   -6.8581 C   0  0  0  0  0  0  0  0  0  0  0  0
    0.5140   -3.5033   -8.1174 C   0  0  0  0  0  0  0  0  0  0  0  0
   -0.3475   -3.8545   -9.0780 N   0  0  0  0  0  0  0  0  0  0  0  0
   -1.2432   -4.6172   -8.4283 N   0  0  0  0  0  0  0  0  0  0  0  0
   -2.3542   -5.1855   -9.1503 C   0  0  0  0  0  0  0  0  0  0  0  0
   -0.9749   -4.7686   -7.0964 C   0  0  0  0  0  0  0  0  0  0  0  0
    2.3325   -2.2060   -6.1941 N   0  0  0  0  0  0  0  0  0  0  0  0
    3.1399   -1.2219   -5.7673 C   0  0  0  0  0  0  0  0  0  0  0  0
    3.3626   -0.9463   -4.4422 C   0  0  0  0  0  0  0  0  0  0  0  0
    4.3574    0.3915   -4.0255 Cl  0  0  0  0  0  0  0  0  0  0  0  0
    5.6508    0.6694   -0.8491 H   0  0  0  0  0  0  0  0  0  0  0  0
    5.0705    0.8816    0.8091 H   0  0  0  0  0  0  0  0  0  0  0  0
    3.9424    0.4242   -0.4478 H   0  0  0  0  0  0  0  0  0  0  0  0
    5.4137   -1.7559   -0.7558 H   0  0  0  0  0  0  0  0  0  0  0  0
    6.5555   -3.3288    1.1852 H   0  0  0  0  0  0  0  0  0  0  0  0
    8.0429   -2.5499    1.6352 H   0  0  0  0  0  0  0  0  0  0  0  0
    4.9445   -1.1665    2.8823 H   0  0  0  0  0  0  0  0  0  0  0  0
    3.0686   -1.9593    4.2352 H   0  0  0  0  0  0  0  0  0  0  0  0
    1.1077   -3.0213    3.1562 H   0  0  0  0  0  0  0  0  0  0  0  0
    1.0576   -3.3451    0.7282 H   0  0  0  0  0  0  0  0  0  0  0  0
    1.9712   -3.3548   -1.3089 H   0  0  0  0  0  0  0  0  0  0  0  0
    3.7099   -3.4376   -1.4258 H   0  0  0  0  0  0  0  0  0  0  0  0
    3.7801   -1.0170   -1.9077 H   0  0  0  0  0  0  0  0  0  0  0  0
    2.0377   -0.8612   -1.7418 H   0  0  0  0  0  0  0  0  0  0  0  0
    0.3579   -4.3025   -4.8182 H   0  0  0  0  0  0  0  0  0  0  0  0
    1.3505   -2.8710   -8.3811 H   0  0  0  0  0  0  0  0  0  0  0  0
   -2.3328   -4.8381  -10.1867 H   0  0  0  0  0  0  0  0  0  0  0  0
   -3.2805   -4.8623   -8.6694 H   0  0  0  0  0  0  0  0  0  0  0  0
   -2.2596   -6.2731   -9.1182 H   0  0  0  0  0  0  0  0  0  0  0  0
   -1.6164   -5.3515   -6.4516 H   0  0  0  0  0  0  0  0  0  0  0  0
    3.5994   -0.6328   -6.5554 H   0  0  0  0  0  0  0  0  0  0  0  0
  1  2  1  0  0  0  0
  1 28  1  0  0  0  0
  1 29  1  0  0  0  0
  1 30  1  0  0  0  0
  2  3  1  0  0  0  0
  2  6  1  0  0  0  0
  2 31  1  0  0  0  0
  3  4  1  0  0  0  0
  3  5  2  0  0  0  0
  4 32  1  0  0  0  0
  4 33  1  0  0  0  0
  6  7  1  0  0  0  0
  6 11  2  0  0  0  0
  7  8  2  0  0  0  0
  7 34  1  0  0  0  0
  8  9  1  0  0  0  0
  8 35  1  0  0  0  0
  9 10  2  0  0  0  0
  9 36  1  0  0  0  0
 10 11  1  0  0  0  0
 10 37  1  0  0  0  0
 11 12  1  0  0  0  0
 12 13  1  0  0  0  0
 12 38  1  0  0  0  0
 12 39  1  0  0  0  0
 13 14  1  0  0  0  0
 13 40  1  0  0  0  0
 13 41  1  0  0  0  0
 14 15  1  0  0  0  0
 14 26  2  0  0  0  0
 15 16  2  0  0  0  0
 16 17  1  0  0  0  0
 16 24  1  0  0  0  0
 17 18  1  0  0  0  0
 17 42  1  0  0  0  0
 18 19  1  0  0  0  0
 18 23  2  0  0  0  0
 19 20  2  0  0  0  0
 19 43  1  0  0  0  0
 20 21  1  0  0  0  0
 21 22  1  0  0  0  0
 21 23  1  0  0  0  0
 22 44  1  0  0  0  0
 22 45  1  0  0  0  0
 22 46  1  0  0  0  0
 23 47  1  0  0  0  0
 24 25  2  0  0  0  0
 25 26  1  0  0  0  0
 25 48  1  0  0  0  0
 26 27  1  0  0  0  0
M  END
$$$$
