CHEMBL3781261
 OpenBabel04072215373D

 61 65  0  0  0  0  0  0  0  0999 V2000
   10.5466   -2.2213    1.8956 C   0  0  0  0  0  0  0  0  0  0  0  0
   10.0368   -0.8949    1.9522 O   0  0  0  0  0  0  0  0  0  0  0  0
    8.8866   -0.7127    2.6692 C   0  0  0  0  0  0  0  0  0  0  0  0
    8.1527   -1.7105    3.3097 C   0  0  0  0  0  0  0  0  0  0  0  0
    6.9938   -1.3886    4.0264 C   0  0  0  0  0  0  0  0  0  0  0  0
    6.5621   -0.0605    4.1288 C   0  0  0  0  0  0  0  0  0  0  0  0
    5.2864    0.3298    4.8358 C   0  0  0  0  0  0  0  0  0  0  0  0
    4.8588   -0.4934    6.0230 C   0  0  0  0  0  0  0  0  0  0  0  0
    3.9427   -1.4367    5.7303 N   0  0  0  0  0  0  0  0  0  0  0  0
    3.3256   -2.1096    6.7272 N   0  0  0  0  0  0  0  0  0  0  0  0
    3.5703   -1.8377    8.0257 C   0  0  0  0  0  0  0  0  0  0  0  0
    2.7509   -2.4484    9.0136 N   0  0  0  0  0  0  0  0  0  0  0  0
    1.6376   -3.2912    8.7588 C   0  0  0  0  0  0  0  0  0  0  0  0
    1.2965   -4.2574    9.6961 C   0  0  0  0  0  0  0  0  0  0  0  0
    0.2464   -5.1492    9.4518 C   0  0  0  0  0  0  0  0  0  0  0  0
   -0.5025   -5.1064    8.2700 C   0  0  0  0  0  0  0  0  0  0  0  0
   -1.5002   -6.0627    7.9386 N   0  0  0  0  0  0  0  0  0  0  0  0
   -1.7385   -7.2203    8.6563 C   0  0  0  0  0  0  0  0  0  0  0  0
   -1.1087   -7.5459    9.6538 O   0  0  0  0  0  0  0  0  0  0  0  0
   -2.7573   -8.0061    8.1338 N   0  0  0  0  0  0  0  0  0  0  0  0
   -3.2127   -9.1809    8.7972 C   0  0  0  0  0  0  0  0  0  0  0  0
   -3.0854   -9.3449   10.1830 C   0  0  0  0  0  0  0  0  0  0  0  0
   -3.4022  -10.5521   10.8052 C   0  0  0  0  0  0  0  0  0  0  0  0
   -3.9037  -11.5978   10.0447 C   0  0  0  0  0  0  0  0  0  0  0  0
   -4.2577  -13.1013   10.8005 Cl  0  0  0  0  0  0  0  0  0  0  0  0
   -4.1142  -11.4296    8.6762 C   0  0  0  0  0  0  0  0  0  0  0  0
   -3.7776  -10.2195    8.0505 C   0  0  0  0  0  0  0  0  0  0  0  0
   -0.2395   -4.0693    7.3793 C   0  0  0  0  0  0  0  0  0  0  0  0
    0.8024   -3.1616    7.6379 C   0  0  0  0  0  0  0  0  0  0  0  0
    4.5880   -0.9245    8.3873 C   0  0  0  0  0  0  0  0  0  0  0  0
    4.9531   -0.6252    9.7275 C   0  0  0  0  0  0  0  0  0  0  0  0
    5.9879    0.2652   10.0281 C   0  0  0  0  0  0  0  0  0  0  0  0
    6.6780    0.8904    9.0008 C   0  0  0  0  0  0  0  0  0  0  0  0
    6.3184    0.6416    7.6755 C   0  0  0  0  0  0  0  0  0  0  0  0
    5.2750   -0.2542    7.3446 C   0  0  0  0  0  0  0  0  0  0  0  0
    7.2865    0.9309    3.4510 C   0  0  0  0  0  0  0  0  0  0  0  0
    8.4389    0.6065    2.7331 C   0  0  0  0  0  0  0  0  0  0  0  0
   11.4990   -2.1928    1.3581 H   0  0  0  0  0  0  0  0  0  0  0  0
    9.8666   -2.8751    1.3399 H   0  0  0  0  0  0  0  0  0  0  0  0
   10.7447   -2.6161    2.8979 H   0  0  0  0  0  0  0  0  0  0  0  0
    8.4460   -2.7539    3.2652 H   0  0  0  0  0  0  0  0  0  0  0  0
    6.4294   -2.1959    4.4905 H   0  0  0  0  0  0  0  0  0  0  0  0
    4.4815    0.2917    4.0881 H   0  0  0  0  0  0  0  0  0  0  0  0
    5.3344    1.3810    5.1475 H   0  0  0  0  0  0  0  0  0  0  0  0
    3.3348   -2.8302    9.7509 H   0  0  0  0  0  0  0  0  0  0  0  0
    1.8502   -4.3676   10.6235 H   0  0  0  0  0  0  0  0  0  0  0  0
    0.0605   -5.8823   10.2296 H   0  0  0  0  0  0  0  0  0  0  0  0
   -2.0129   -5.9174    7.0861 H   0  0  0  0  0  0  0  0  0  0  0  0
   -2.9143   -7.9480    7.1399 H   0  0  0  0  0  0  0  0  0  0  0  0
   -2.7161   -8.5424   10.8166 H   0  0  0  0  0  0  0  0  0  0  0  0
   -3.2347  -10.6596   11.8732 H   0  0  0  0  0  0  0  0  0  0  0  0
   -4.5201  -12.2483    8.0878 H   0  0  0  0  0  0  0  0  0  0  0  0
   -3.9222  -10.1285    6.9776 H   0  0  0  0  0  0  0  0  0  0  0  0
   -0.8045   -3.9538    6.4584 H   0  0  0  0  0  0  0  0  0  0  0  0
    0.9687   -2.3637    6.9187 H   0  0  0  0  0  0  0  0  0  0  0  0
    4.4300   -1.0857   10.5634 H   0  0  0  0  0  0  0  0  0  0  0  0
    6.2556    0.4656   11.0631 H   0  0  0  0  0  0  0  0  0  0  0  0
    7.4934    1.5743    9.2244 H   0  0  0  0  0  0  0  0  0  0  0  0
    6.8866    1.1469    6.8969 H   0  0  0  0  0  0  0  0  0  0  0  0
    6.9510    1.9660    3.4646 H   0  0  0  0  0  0  0  0  0  0  0  0
    8.9872    1.3885    2.2136 H   0  0  0  0  0  0  0  0  0  0  0  0
  1  2  1  0  0  0  0
  1 38  1  0  0  0  0
  1 39  1  0  0  0  0
  1 40  1  0  0  0  0
  2  3  1  0  0  0  0
  3  4  1  0  0  0  0
  3 37  2  0  0  0  0
  4  5  2  0  0  0  0
  4 41  1  0  0  0  0
  5  6  1  0  0  0  0
  5 42  1  0  0  0  0
  6  7  1  0  0  0  0
  6 36  2  0  0  0  0
  7  8  1  0  0  0  0
  7 43  1  0  0  0  0
  7 44  1  0  0  0  0
  8  9  1  0  0  0  0
  8 35  2  0  0  0  0
  9 10  2  0  0  0  0
 10 11  1  0  0  0  0
 11 12  1  0  0  0  0
 11 30  2  0  0  0  0
 12 13  1  0  0  0  0
 12 45  1  0  0  0  0
 13 14  1  0  0  0  0
 13 29  2  0  0  0  0
 14 15  2  0  0  0  0
 14 46  1  0  0  0  0
 15 16  1  0  0  0  0
 15 47  1  0  0  0  0
 16 17  1  0  0  0  0
 16 28  2  0  0  0  0
 17 18  1  0  0  0  0
 17 48  1  0  0  0  0
 18 19  2  0  0  0  0
 18 20  1  0  0  0  0
 20 21  1  0  0  0  0
 20 49  1  0  0  0  0
 21 22  1  0  0  0  0
 21 27  2  0  0  0  0
 22 23  2  0  0  0  0
 22 50  1  0  0  0  0
 23 24  1  0  0  0  0
 23 51  1  0  0  0  0
 24 25  1  0  0  0  0
 24 26  2  0  0  0  0
 26 27  1  0  0  0  0
 26 52  1  0  0  0  0
 27 53  1  0  0  0  0
 28 29  1  0  0  0  0
 28 54  1  0  0  0  0
 29 55  1  0  0  0  0
 30 31  1  0  0  0  0
 30 35  1  0  0  0  0
 31 32  2  0  0  0  0
 31 56  1  0  0  0  0
 32 33  1  0  0  0  0
 32 57  1  0  0  0  0
 33 34  2  0  0  0  0
 33 58  1  0  0  0  0
 34 35  1  0  0  0  0
 34 59  1  0  0  0  0
 36 37  1  0  0  0  0
 36 60  1  0  0  0  0
 37 61  1  0  0  0  0
M  END
$$$$
