CHEMBL269862
 OpenBabel04072215363D

 42 45  0  0  0  0  0  0  0  0999 V2000
    1.2495    2.0567    3.1944 N   0  0  0  0  0  0  0  0  0  0  0  0
    1.4925    0.9514    2.4660 C   0  0  0  0  0  0  0  0  0  0  0  0
    1.8832   -0.1903    3.0377 N   0  0  0  0  0  0  0  0  0  0  0  0
    2.0525   -1.0907    2.0125 O   0  0  0  0  0  0  0  0  0  0  0  0
    1.7668   -0.4928    0.8304 C   0  0  0  0  0  0  0  0  0  0  0  0
    1.8404   -1.1305   -0.4040 C   0  0  0  0  0  0  0  0  0  0  0  0
    1.4909   -0.3699   -1.5128 C   0  0  0  0  0  0  0  0  0  0  0  0
    1.0845    0.9604   -1.3679 C   0  0  0  0  0  0  0  0  0  0  0  0
    1.0198    1.6013   -0.1023 C   0  0  0  0  0  0  0  0  0  0  0  0
    0.5638    3.0040   -0.0009 C   0  0  0  0  0  0  0  0  0  0  0  0
   -0.3414    3.3977    0.9873 C   0  0  0  0  0  0  0  0  0  0  0  0
   -0.7057    4.7352    1.1603 C   0  0  0  0  0  0  0  0  0  0  0  0
   -0.2477    5.7249    0.2921 C   0  0  0  0  0  0  0  0  0  0  0  0
   -0.6215    7.0836    0.4192 N   0  0  0  0  0  0  0  0  0  0  0  0
   -1.2245    7.6361    1.5360 C   0  0  0  0  0  0  0  0  0  0  0  0
   -1.3368    7.0762    2.6211 O   0  0  0  0  0  0  0  0  0  0  0  0
   -1.7488    8.8960    1.2720 N   0  0  0  0  0  0  0  0  0  0  0  0
   -2.4778    9.5886    2.2707 C   0  0  0  0  0  0  0  0  0  0  0  0
   -2.0492    9.6235    3.6040 C   0  0  0  0  0  0  0  0  0  0  0  0
   -2.8424   10.2270    4.5750 C   0  0  0  0  0  0  0  0  0  0  0  0
   -2.4338   10.2418    5.8502 F   0  0  0  0  0  0  0  0  0  0  0  0
   -4.0655   10.7900    4.2462 C   0  0  0  0  0  0  0  0  0  0  0  0
   -4.4709   10.7749    2.9183 C   0  0  0  0  0  0  0  0  0  0  0  0
   -5.6618   11.2928    2.5896 F   0  0  0  0  0  0  0  0  0  0  0  0
   -3.6793   10.2055    1.9213 C   0  0  0  0  0  0  0  0  0  0  0  0
    0.5737    5.3416   -0.7687 C   0  0  0  0  0  0  0  0  0  0  0  0
    0.9873    4.0020   -0.9011 C   0  0  0  0  0  0  0  0  0  0  0  0
    1.3829    0.8282    1.0348 C   0  0  0  0  0  0  0  0  0  0  0  0
    1.4694    2.0245    4.1839 H   0  0  0  0  0  0  0  0  0  0  0  0
    1.3090    2.9866    2.7944 H   0  0  0  0  0  0  0  0  0  0  0  0
    2.1511   -2.1659   -0.4839 H   0  0  0  0  0  0  0  0  0  0  0  0
    1.5209   -0.8212   -2.5028 H   0  0  0  0  0  0  0  0  0  0  0  0
    0.7944    1.5014   -2.2672 H   0  0  0  0  0  0  0  0  0  0  0  0
   -0.7677    2.6651    1.6712 H   0  0  0  0  0  0  0  0  0  0  0  0
   -1.3672    4.9556    1.9915 H   0  0  0  0  0  0  0  0  0  0  0  0
   -0.2619    7.7314   -0.2668 H   0  0  0  0  0  0  0  0  0  0  0  0
   -2.0558    9.0232    0.3176 H   0  0  0  0  0  0  0  0  0  0  0  0
   -1.1093    9.1722    3.9087 H   0  0  0  0  0  0  0  0  0  0  0  0
   -4.6949   11.2253    5.0132 H   0  0  0  0  0  0  0  0  0  0  0  0
   -4.0547   10.1908    0.9038 H   0  0  0  0  0  0  0  0  0  0  0  0
    0.9213    6.0687   -1.4980 H   0  0  0  0  0  0  0  0  0  0  0  0
    1.6516    3.7498   -1.7251 H   0  0  0  0  0  0  0  0  0  0  0  0
  1  2  1  0  0  0  0
  1 29  1  0  0  0  0
  1 30  1  0  0  0  0
  2  3  2  0  0  0  0
  2 28  1  0  0  0  0
  3  4  1  0  0  0  0
  4  5  1  0  0  0  0
  5  6  1  0  0  0  0
  5 28  2  0  0  0  0
  6  7  2  0  0  0  0
  6 31  1  0  0  0  0
  7  8  1  0  0  0  0
  7 32  1  0  0  0  0
  8  9  2  0  0  0  0
  8 33  1  0  0  0  0
  9 10  1  0  0  0  0
  9 28  1  0  0  0  0
 10 11  1  0  0  0  0
 10 27  2  0  0  0  0
 11 12  2  0  0  0  0
 11 34  1  0  0  0  0
 12 13  1  0  0  0  0
 12 35  1  0  0  0  0
 13 14  1  0  0  0  0
 13 26  2  0  0  0  0
 14 15  1  0  0  0  0
 14 36  1  0  0  0  0
 15 16  2  0  0  0  0
 15 17  1  0  0  0  0
 17 18  1  0  0  0  0
 17 37  1  0  0  0  0
 18 19  1  0  0  0  0
 18 25  2  0  0  0  0
 19 20  2  0  0  0  0
 19 38  1  0  0  0  0
 20 21  1  0  0  0  0
 20 22  1  0  0  0  0
 22 23  2  0  0  0  0
 22 39  1  0  0  0  0
 23 24  1  0  0  0  0
 23 25  1  0  0  0  0
 25 40  1  0  0  0  0
 26 27  1  0  0  0  0
 26 41  1  0  0  0  0
 27 42  1  0  0  0  0
M  END
$$$$
