CHEMBL3644028
 OpenBabel04072215373D

 37 38  0  0  0  0  0  0  0  0999 V2000
    3.4575   -0.5961    3.5176 C   0  0  0  0  0  0  0  0  0  0  0  0
    4.0719    0.2331    2.7208 C   0  0  0  0  0  0  0  0  0  0  0  0
    4.7881    1.1999    1.7919 C   0  0  0  0  0  0  0  0  0  0  0  0
    4.9056    0.5962    0.4986 O   0  0  0  0  0  0  0  0  0  0  0  0
    5.9242    1.0800   -0.2999 C   0  0  0  0  0  0  0  0  0  0  0  0
    6.4390    2.3118   -0.0470 N   0  0  0  0  0  0  0  0  0  0  0  0
    7.4929    2.6955   -0.7950 C   0  0  0  0  0  0  0  0  0  0  0  0
    8.0756    3.9501   -0.5797 N   0  0  0  0  0  0  0  0  0  0  0  0
    9.3956    4.3483   -0.8578 C   0  0  0  0  0  0  0  0  0  0  0  0
    9.6980    5.6678   -1.2275 C   0  0  0  0  0  0  0  0  0  0  0  0
   11.0020    6.0350   -1.6124 C   0  0  0  0  0  0  0  0  0  0  0  0
   12.0219    5.0750   -1.6153 C   0  0  0  0  0  0  0  0  0  0  0  0
   13.6300    5.4710   -2.2679 S   0  0  0  0  0  0  0  0  0  0  0  0
   14.5506    6.0948   -0.8907 C   0  0  0  0  0  0  0  0  0  0  0  0
   14.2516    4.2288   -2.6845 O   0  0  0  0  0  0  0  0  0  0  0  0
   13.4510    6.5611   -3.2102 O   0  0  0  0  0  0  0  0  0  0  0  0
   11.7467    3.7621   -1.2444 C   0  0  0  0  0  0  0  0  0  0  0  0
   10.4453    3.4122   -0.8771 C   0  0  0  0  0  0  0  0  0  0  0  0
    8.0037    1.9343   -1.7744 N   0  0  0  0  0  0  0  0  0  0  0  0
    7.4152    0.7606   -2.0386 C   0  0  0  0  0  0  0  0  0  0  0  0
    6.3478    0.2742   -1.3317 C   0  0  0  0  0  0  0  0  0  0  0  0
    5.7675   -1.0279   -1.7402 C   0  0  0  0  0  0  0  0  0  0  0  0
    4.7251   -1.4857   -0.9965 F   0  0  0  0  0  0  0  0  0  0  0  0
    5.3111   -0.9889   -3.0249 F   0  0  0  0  0  0  0  0  0  0  0  0
    6.6969   -2.0286   -1.7257 F   0  0  0  0  0  0  0  0  0  0  0  0
    2.9542   -1.2777    4.1640 H   0  0  0  0  0  0  0  0  0  0  0  0
    5.7707    1.4217    2.2259 H   0  0  0  0  0  0  0  0  0  0  0  0
    4.2033    2.1219    1.7057 H   0  0  0  0  0  0  0  0  0  0  0  0
    7.4176    4.6373   -0.2500 H   0  0  0  0  0  0  0  0  0  0  0  0
    8.9133    6.4194   -1.2708 H   0  0  0  0  0  0  0  0  0  0  0  0
   11.1990    7.0500   -1.9443 H   0  0  0  0  0  0  0  0  0  0  0  0
   14.6332    5.3185   -0.1282 H   0  0  0  0  0  0  0  0  0  0  0  0
   14.0556    6.9836   -0.4980 H   0  0  0  0  0  0  0  0  0  0  0  0
   15.5483    6.3603   -1.2519 H   0  0  0  0  0  0  0  0  0  0  0  0
   12.5142    2.9923   -1.2759 H   0  0  0  0  0  0  0  0  0  0  0  0
   10.2522    2.3732   -0.6157 H   0  0  0  0  0  0  0  0  0  0  0  0
    7.8576    0.2107   -2.8695 H   0  0  0  0  0  0  0  0  0  0  0  0
  1  2  3  0  0  0  0
  1 26  1  0  0  0  0
  2  3  1  0  0  0  0
  3  4  1  0  0  0  0
  3 27  1  0  0  0  0
  3 28  1  0  0  0  0
  4  5  1  0  0  0  0
  5  6  1  0  0  0  0
  5 21  2  0  0  0  0
  6  7  2  0  0  0  0
  7  8  1  0  0  0  0
  7 19  1  0  0  0  0
  8  9  1  0  0  0  0
  8 29  1  0  0  0  0
  9 10  1  0  0  0  0
  9 18  2  0  0  0  0
 10 11  2  0  0  0  0
 10 30  1  0  0  0  0
 11 12  1  0  0  0  0
 11 31  1  0  0  0  0
 12 13  1  0  0  0  0
 12 17  2  0  0  0  0
 13 14  1  0  0  0  0
 13 15  2  0  0  0  0
 13 16  2  0  0  0  0
 14 32  1  0  0  0  0
 14 33  1  0  0  0  0
 14 34  1  0  0  0  0
 17 18  1  0  0  0  0
 17 35  1  0  0  0  0
 18 36  1  0  0  0  0
 19 20  2  0  0  0  0
 20 21  1  0  0  0  0
 20 37  1  0  0  0  0
 21 22  1  0  0  0  0
 22 23  1  0  0  0  0
 22 24  1  0  0  0  0
 22 25  1  0  0  0  0
M  END
$$$$
