CHEMBL201906
 OpenBabel04072215363D

 46 48  0  0  0  0  0  0  0  0999 V2000
    2.7907    0.2579   -1.2546 C   0  0  0  0  0  0  0  0  0  0  0  0
    2.1948   -0.1279    0.1000 C   0  0  0  0  0  0  0  0  0  0  0  0
    0.6655   -0.1150    0.0375 C   0  0  0  0  0  0  0  0  0  0  0  0
    2.7329   -1.4585    0.5947 C   0  0  0  0  0  0  0  0  0  0  0  0
    3.4576   -1.5061    1.7892 C   0  0  0  0  0  0  0  0  0  0  0  0
    3.9476   -2.7175    2.2867 C   0  0  0  0  0  0  0  0  0  0  0  0
    3.7273   -3.9187    1.6120 C   0  0  0  0  0  0  0  0  0  0  0  0
    4.1677   -5.1762    2.0876 N   0  0  0  0  0  0  0  0  0  0  0  0
    4.8630   -5.4326    3.2674 C   0  0  0  0  0  0  0  0  0  0  0  0
    5.2215   -4.5572    4.0460 O   0  0  0  0  0  0  0  0  0  0  0  0
    5.1430   -6.8378    3.5497 C   0  0  0  0  0  0  0  0  0  0  0  0
    4.7239   -8.0948    2.4543 S   0  0  0  0  0  0  0  0  0  0  0  0
    5.3006   -9.2515    3.5707 C   0  0  0  0  0  0  0  0  0  0  0  0
    5.8132   -8.7769    4.6815 N   0  0  0  0  0  0  0  0  0  0  0  0
    5.7381   -7.3866    4.6869 C   0  0  0  0  0  0  0  0  0  0  0  0
    6.2095   -6.6474    5.9172 C   0  0  0  0  0  0  0  0  0  0  0  0
    7.2967   -7.3685    6.7240 C   0  0  0  0  0  0  0  0  0  0  0  0
    7.6836   -6.6074    7.9750 C   0  0  0  0  0  0  0  0  0  0  0  0
    7.0139   -6.8353    9.1809 C   0  0  0  0  0  0  0  0  0  0  0  0
    7.3993   -6.1202   10.3069 C   0  0  0  0  0  0  0  0  0  0  0  0
    8.3879   -5.2032   10.3136 N   0  0  0  0  0  0  0  0  0  0  0  0
    9.0181   -4.9897    9.1385 C   0  0  0  0  0  0  0  0  0  0  0  0
    8.7047   -5.6530    7.9586 C   0  0  0  0  0  0  0  0  0  0  0  0
    3.0201   -3.8759    0.4041 C   0  0  0  0  0  0  0  0  0  0  0  0
    2.5318   -2.6606   -0.1000 C   0  0  0  0  0  0  0  0  0  0  0  0
    2.3827    1.2157   -1.5962 H   0  0  0  0  0  0  0  0  0  0  0  0
    2.5744   -0.4894   -2.0250 H   0  0  0  0  0  0  0  0  0  0  0  0
    3.8787    0.3634   -1.1850 H   0  0  0  0  0  0  0  0  0  0  0  0
    2.4886    0.6542    0.8136 H   0  0  0  0  0  0  0  0  0  0  0  0
    0.2786   -0.8514   -0.6745 H   0  0  0  0  0  0  0  0  0  0  0  0
    0.3041    0.8715   -0.2748 H   0  0  0  0  0  0  0  0  0  0  0  0
    0.2294   -0.3331    1.0186 H   0  0  0  0  0  0  0  0  0  0  0  0
    3.6508   -0.5992    2.3582 H   0  0  0  0  0  0  0  0  0  0  0  0
    4.4957   -2.6730    3.2209 H   0  0  0  0  0  0  0  0  0  0  0  0
    3.9268   -5.9829    1.5278 H   0  0  0  0  0  0  0  0  0  0  0  0
    5.2395  -10.3138    3.3703 H   0  0  0  0  0  0  0  0  0  0  0  0
    5.3325   -6.4721    6.5533 H   0  0  0  0  0  0  0  0  0  0  0  0
    6.6010   -5.6648    5.6340 H   0  0  0  0  0  0  0  0  0  0  0  0
    8.1891   -7.5223    6.1039 H   0  0  0  0  0  0  0  0  0  0  0  0
    6.9611   -8.3723    7.0150 H   0  0  0  0  0  0  0  0  0  0  0  0
    6.2087   -7.5591    9.2505 H   0  0  0  0  0  0  0  0  0  0  0  0
    6.9053   -6.2746   11.2619 H   0  0  0  0  0  0  0  0  0  0  0  0
    9.8099   -4.2465    9.1694 H   0  0  0  0  0  0  0  0  0  0  0  0
    9.2543   -5.4256    7.0514 H   0  0  0  0  0  0  0  0  0  0  0  0
    2.8328   -4.7826   -0.1673 H   0  0  0  0  0  0  0  0  0  0  0  0
    1.9853   -2.6623   -1.0417 H   0  0  0  0  0  0  0  0  0  0  0  0
  1  2  1  0  0  0  0
  1 26  1  0  0  0  0
  1 27  1  0  0  0  0
  1 28  1  0  0  0  0
  2  3  1  0  0  0  0
  2  4  1  0  0  0  0
  2 29  1  0  0  0  0
  3 30  1  0  0  0  0
  3 31  1  0  0  0  0
  3 32  1  0  0  0  0
  4  5  1  0  0  0  0
  4 25  2  0  0  0  0
  5  6  2  0  0  0  0
  5 33  1  0  0  0  0
  6  7  1  0  0  0  0
  6 34  1  0  0  0  0
  7  8  1  0  0  0  0
  7 24  2  0  0  0  0
  8  9  1  0  0  0  0
  8 35  1  0  0  0  0
  9 10  2  0  0  0  0
  9 11  1  0  0  0  0
 11 12  1  0  0  0  0
 11 15  2  0  0  0  0
 12 13  1  0  0  0  0
 13 14  2  0  0  0  0
 13 36  1  0  0  0  0
 14 15  1  0  0  0  0
 15 16  1  0  0  0  0
 16 17  1  0  0  0  0
 16 37  1  0  0  0  0
 16 38  1  0  0  0  0
 17 18  1  0  0  0  0
 17 39  1  0  0  0  0
 17 40  1  0  0  0  0
 18 19  1  0  0  0  0
 18 23  2  0  0  0  0
 19 20  2  0  0  0  0
 19 41  1  0  0  0  0
 20 21  1  0  0  0  0
 20 42  1  0  0  0  0
 21 22  2  0  0  0  0
 22 23  1  0  0  0  0
 22 43  1  0  0  0  0
 23 44  1  0  0  0  0
 24 25  1  0  0  0  0
 24 45  1  0  0  0  0
 25 46  1  0  0  0  0
M  END
$$$$
