CHEMBL3958708
 OpenBabel04072215373D

 72 76  0  0  1  0  0  0  0  0999 V2000
    0.8527   -3.1131   -3.1909 C   0  0  0  0  0  0  0  0  0  0  0  0
    1.9139   -3.6716   -2.4159 O   0  0  0  0  0  0  0  0  0  0  0  0
    2.8931   -2.8047   -1.9913 C   0  0  0  0  0  0  0  0  0  0  0  0
    2.7296   -1.4211   -1.9038 C   0  0  0  0  0  0  0  0  0  0  0  0
    3.7619   -0.6316   -1.4059 C   0  0  0  0  0  0  0  0  0  0  0  0
    3.7273    0.7262   -1.2369 O   0  0  0  0  0  0  0  0  0  0  0  0
    2.5881    1.4111   -1.7428 C   0  0  0  0  0  0  0  0  0  0  0  0
    4.9542   -1.2306   -0.9878 C   0  0  0  0  0  0  0  0  0  0  0  0
    5.1550   -2.6185   -1.0311 C   0  0  0  0  0  0  0  0  0  0  0  0
    6.2736   -3.2358   -0.4152 N   0  0  0  0  0  0  0  0  0  0  0  0
    6.7935   -2.5660    0.8445 C   0  0  0  0  0  0  0  0  0  0  0  0
    5.7466   -2.4276    1.9918 C   0  0  0  0  0  0  0  0  0  0  0  0
    6.2446   -1.7918    3.2396 N   0  0  0  0  0  0  0  0  0  0  0  0
    5.2049   -1.7958    4.2853 C   0  0  0  0  0  0  0  0  0  0  0  0
    4.3962   -0.5412    4.0171 C   0  0  0  0  0  0  0  0  0  0  0  0
    5.4701    0.5225    3.7636 C   0  0  3  0  0  0  0  0  0  0  0  0
    5.8775    1.2641    4.9939 N   0  0  0  0  0  0  0  0  0  0  0  0
    6.9259    2.2549    4.7168 C   0  0  0  0  0  0  0  0  0  0  0  0
    4.7529    1.9701    5.6264 C   0  0  0  0  0  0  0  0  0  0  0  0
    6.6016   -0.3543    3.1175 C   0  0  0  0  0  0  0  0  0  0  0  0
    7.3646   -3.9477   -1.0333 C   0  0  0  0  0  0  0  0  0  0  0  0
    7.8679   -5.0168   -0.2820 C   0  0  0  0  0  0  0  0  0  0  0  0
    9.1679   -5.4552   -0.4545 C   0  0  0  0  0  0  0  0  0  0  0  0
    9.9567   -4.9440   -1.4515 C   0  0  0  0  0  0  0  0  0  0  0  0
   11.2391   -5.3170   -1.3869 N   0  0  0  0  0  0  0  0  0  0  0  0
   12.0314   -4.9454   -2.4018 C   0  0  0  0  0  0  0  0  0  0  0  0
   11.5429   -4.2810   -3.5032 C   0  0  0  0  0  0  0  0  0  0  0  0
   12.4197   -4.2382   -4.6692 C   0  0  0  0  0  0  0  0  0  0  0  0
   12.4643   -5.0937   -5.8000 C   0  0  0  0  0  0  0  0  0  0  0  0
   13.5480   -4.8922   -6.5599 N   0  0  0  0  0  0  0  0  0  0  0  0
   14.1995   -3.9081   -5.9174 N   0  0  0  0  0  0  0  0  0  0  0  0
   15.2620   -3.1828   -6.5724 C   0  0  0  0  0  0  0  0  0  0  0  0
   13.6539   -3.6129   -4.6986 C   0  0  0  0  0  0  0  0  0  0  0  0
   10.2546   -3.8025   -3.5416 N   0  0  0  0  0  0  0  0  0  0  0  0
    9.4300   -4.0807   -2.4502 C   0  0  0  0  0  0  0  0  0  0  0  0
    8.1088   -3.5582   -2.1802 C   0  0  0  0  0  0  0  0  0  0  0  0
    4.1000   -3.3934   -1.5541 C   0  0  0  0  0  0  0  0  0  0  0  0
    0.1662   -3.9208   -3.4635 H   0  0  0  0  0  0  0  0  0  0  0  0
    1.2392   -2.6738   -4.1171 H   0  0  0  0  0  0  0  0  0  0  0  0
    0.2651   -2.3791   -2.6269 H   0  0  0  0  0  0  0  0  0  0  0  0
    1.7916   -0.9619   -2.1880 H   0  0  0  0  0  0  0  0  0  0  0  0
    2.7642    2.4832   -1.6226 H   0  0  0  0  0  0  0  0  0  0  0  0
    1.6905    1.1520   -1.1716 H   0  0  0  0  0  0  0  0  0  0  0  0
    2.4487    1.2135   -2.8110 H   0  0  0  0  0  0  0  0  0  0  0  0
    5.7246   -0.5807   -0.5835 H   0  0  0  0  0  0  0  0  0  0  0  0
    7.2377   -1.5982    0.5823 H   0  0  0  0  0  0  0  0  0  0  0  0
    7.6186   -3.1431    1.2857 H   0  0  0  0  0  0  0  0  0  0  0  0
    5.4396   -3.4525    2.2491 H   0  0  0  0  0  0  0  0  0  0  0  0
    4.8466   -1.9209    1.6346 H   0  0  0  0  0  0  0  0  0  0  0  0
    5.6837   -1.7291    5.2707 H   0  0  0  0  0  0  0  0  0  0  0  0
    4.5888   -2.7012    4.2880 H   0  0  0  0  0  0  0  0  0  0  0  0
    3.6966   -0.3284    4.8252 H   0  0  0  0  0  0  0  0  0  0  0  0
    3.7852   -0.6562    3.1131 H   0  0  0  0  0  0  0  0  0  0  0  0
    5.0996    1.2426    3.0215 H   0  0  0  0  0  0  0  0  0  0  0  0
    7.8363    1.7958    4.3238 H   0  0  0  0  0  0  0  0  0  0  0  0
    7.2369    2.7551    5.6399 H   0  0  0  0  0  0  0  0  0  0  0  0
    6.5890    3.0237    4.0122 H   0  0  0  0  0  0  0  0  0  0  0  0
    3.9847    1.2862    5.9943 H   0  0  0  0  0  0  0  0  0  0  0  0
    4.2838    2.6896    4.9453 H   0  0  0  0  0  0  0  0  0  0  0  0
    5.0935    2.5139    6.5148 H   0  0  0  0  0  0  0  0  0  0  0  0
    7.5561   -0.2161    3.6348 H   0  0  0  0  0  0  0  0  0  0  0  0
    6.7664   -0.0453    2.0802 H   0  0  0  0  0  0  0  0  0  0  0  0
    7.2855   -5.4168    0.5450 H   0  0  0  0  0  0  0  0  0  0  0  0
    9.5806   -6.1900    0.2520 H   0  0  0  0  0  0  0  0  0  0  0  0
   13.0672   -5.2468   -2.3186 H   0  0  0  0  0  0  0  0  0  0  0  0
   11.7758   -5.8796   -6.0846 H   0  0  0  0  0  0  0  0  0  0  0  0
   15.4050   -3.5664   -7.5863 H   0  0  0  0  0  0  0  0  0  0  0  0
   16.1834   -3.2814   -5.9940 H   0  0  0  0  0  0  0  0  0  0  0  0
   14.9532   -2.1347   -6.6216 H   0  0  0  0  0  0  0  0  0  0  0  0
   14.1641   -2.9692   -3.9963 H   0  0  0  0  0  0  0  0  0  0  0  0
    7.7102   -2.7904   -2.8463 H   0  0  0  0  0  0  0  0  0  0  0  0
    4.1819   -4.4789   -1.5638 H   0  0  0  0  0  0  0  0  0  0  0  0
  1  2  1  0  0  0  0
  1 38  1  0  0  0  0
  1 39  1  0  0  0  0
  1 40  1  0  0  0  0
  2  3  1  0  0  0  0
  3  4  1  0  0  0  0
  3 37  2  0  0  0  0
  4  5  2  0  0  0  0
  4 41  1  0  0  0  0
  5  6  1  0  0  0  0
  5  8  1  0  0  0  0
  6  7  1  0  0  0  0
  7 42  1  0  0  0  0
  7 43  1  0  0  0  0
  7 44  1  0  0  0  0
  8  9  2  0  0  0  0
  8 45  1  0  0  0  0
  9 10  1  0  0  0  0
  9 37  1  0  0  0  0
 10 11  1  0  0  0  0
 10 21  1  0  0  0  0
 11 12  1  0  0  0  0
 11 46  1  0  0  0  0
 11 47  1  0  0  0  0
 12 13  1  0  0  0  0
 12 48  1  0  0  0  0
 12 49  1  0  0  0  0
 13 14  1  0  0  0  0
 13 20  1  0  0  0  0
 14 15  1  0  0  0  0
 14 50  1  0  0  0  0
 14 51  1  0  0  0  0
 15 16  1  0  0  0  0
 15 52  1  0  0  0  0
 15 53  1  0  0  0  0
 16 17  1  0  0  0  0
 16 20  1  0  0  0  0
 16 54  1  0  0  0  0
 17 18  1  0  0  0  0
 17 19  1  0  0  0  0
 18 55  1  0  0  0  0
 18 56  1  0  0  0  0
 18 57  1  0  0  0  0
 19 58  1  0  0  0  0
 19 59  1  0  0  0  0
 19 60  1  0  0  0  0
 20 61  1  0  0  0  0
 20 62  1  0  0  0  0
 21 22  1  0  0  0  0
 21 36  2  0  0  0  0
 22 23  2  0  0  0  0
 22 63  1  0  0  0  0
 23 24  1  0  0  0  0
 23 64  1  0  0  0  0
 24 25  1  0  0  0  0
 24 35  2  0  0  0  0
 25 26  2  0  0  0  0
 26 27  1  0  0  0  0
 26 65  1  0  0  0  0
 27 28  1  0  0  0  0
 27 34  2  0  0  0  0
 28 29  1  0  0  0  0
 28 33  2  0  0  0  0
 29 30  2  0  0  0  0
 29 66  1  0  0  0  0
 30 31  1  0  0  0  0
 31 32  1  0  0  0  0
 31 33  1  0  0  0  0
 32 67  1  0  0  0  0
 32 68  1  0  0  0  0
 32 69  1  0  0  0  0
 33 70  1  0  0  0  0
 34 35  1  0  0  0  0
 35 36  1  0  0  0  0
 36 71  1  0  0  0  0
 37 72  1  0  0  0  0
M  END
$$$$
