CHEMBL3895612
 OpenBabel04072215373D

 46 49  0  0  0  0  0  0  0  0999 V2000
    6.7672   -2.3923    0.4316 C   0  0  0  0  0  0  0  0  0  0  0  0
    6.0397   -1.2953    0.9760 O   0  0  0  0  0  0  0  0  0  0  0  0
    4.8209   -1.5875    1.5449 C   0  0  0  0  0  0  0  0  0  0  0  0
    4.3374   -2.8867    1.7519 C   0  0  0  0  0  0  0  0  0  0  0  0
    3.0875   -3.0952    2.3409 C   0  0  0  0  0  0  0  0  0  0  0  0
    2.3374   -2.0139    2.7771 C   0  0  0  0  0  0  0  0  0  0  0  0
    2.8203   -0.7229    2.5893 C   0  0  0  0  0  0  0  0  0  0  0  0
    4.0286   -0.4778    1.9165 C   0  0  0  0  0  0  0  0  0  0  0  0
    4.4511    0.8374    1.5941 N   0  0  0  0  0  0  0  0  0  0  0  0
    3.6254    1.9175    1.2749 C   0  0  0  0  0  0  0  0  0  0  0  0
    2.4062    2.0227    1.8190 N   0  0  0  0  0  0  0  0  0  0  0  0
    1.5976    3.0094    1.4097 C   0  0  0  0  0  0  0  0  0  0  0  0
    1.9625    3.9321    0.4682 C   0  0  0  0  0  0  0  0  0  0  0  0
    3.2435    3.7769   -0.0392 C   0  0  0  0  0  0  0  0  0  0  0  0
    4.0881    2.7928    0.3619 N   0  0  0  0  0  0  0  0  0  0  0  0
    3.7789    4.7685   -1.0435 C   0  0  0  0  0  0  0  0  0  0  0  0
    2.6393    5.5255   -1.7342 C   0  0  0  0  0  0  0  0  0  0  0  0
    1.7144    6.0427   -0.7206 N   0  0  0  0  0  0  0  0  0  0  0  0
    1.4730    7.3661   -0.3535 C   0  0  0  0  0  0  0  0  0  0  0  0
    0.5625    7.6667    0.4164 O   0  0  0  0  0  0  0  0  0  0  0  0
    2.2969    8.4801   -0.8812 C   0  0  0  0  0  0  0  0  0  0  0  0
    3.6669    8.4060   -1.1301 C   0  0  0  0  0  0  0  0  0  0  0  0
    4.3473    9.5107   -1.6368 C   0  0  0  0  0  0  0  0  0  0  0  0
    3.6411   10.6851   -1.8219 C   0  0  0  0  0  0  0  0  0  0  0  0
    2.3297   10.8191   -1.5342 N   0  0  0  0  0  0  0  0  0  0  0  0
    1.6900    9.7172   -1.0626 C   0  0  0  0  0  0  0  0  0  0  0  0
    1.0094    4.9890    0.0006 C   0  0  0  0  0  0  0  0  0  0  0  0
    7.7289   -2.0169    0.0694 H   0  0  0  0  0  0  0  0  0  0  0  0
    6.2294   -2.8198   -0.4212 H   0  0  0  0  0  0  0  0  0  0  0  0
    6.9838   -3.1572    1.1855 H   0  0  0  0  0  0  0  0  0  0  0  0
    4.8994   -3.7657    1.4595 H   0  0  0  0  0  0  0  0  0  0  0  0
    2.7060   -4.1045    2.4711 H   0  0  0  0  0  0  0  0  0  0  0  0
    1.3719   -2.1617    3.2511 H   0  0  0  0  0  0  0  0  0  0  0  0
    2.2163    0.0940    2.9689 H   0  0  0  0  0  0  0  0  0  0  0  0
    5.2704    0.8455    0.9969 H   0  0  0  0  0  0  0  0  0  0  0  0
    0.6157    3.0197    1.8754 H   0  0  0  0  0  0  0  0  0  0  0  0
    4.4006    4.2610   -1.7879 H   0  0  0  0  0  0  0  0  0  0  0  0
    4.4204    5.4602   -0.4874 H   0  0  0  0  0  0  0  0  0  0  0  0
    2.0704    4.8364   -2.3740 H   0  0  0  0  0  0  0  0  0  0  0  0
    3.0092    6.3097   -2.3955 H   0  0  0  0  0  0  0  0  0  0  0  0
    4.2362    7.5116   -0.9207 H   0  0  0  0  0  0  0  0  0  0  0  0
    5.4056    9.4556   -1.8678 H   0  0  0  0  0  0  0  0  0  0  0  0
    4.1291   11.5768   -2.2044 H   0  0  0  0  0  0  0  0  0  0  0  0
    0.6409    9.8707   -0.8201 H   0  0  0  0  0  0  0  0  0  0  0  0
    0.2896    4.5401   -0.6959 H   0  0  0  0  0  0  0  0  0  0  0  0
    0.4497    5.3924    0.8501 H   0  0  0  0  0  0  0  0  0  0  0  0
  1  2  1  0  0  0  0
  1 28  1  0  0  0  0
  1 29  1  0  0  0  0
  1 30  1  0  0  0  0
  2  3  1  0  0  0  0
  3  4  1  0  0  0  0
  3  8  2  0  0  0  0
  4  5  2  0  0  0  0
  4 31  1  0  0  0  0
  5  6  1  0  0  0  0
  5 32  1  0  0  0  0
  6  7  2  0  0  0  0
  6 33  1  0  0  0  0
  7  8  1  0  0  0  0
  7 34  1  0  0  0  0
  8  9  1  0  0  0  0
  9 10  1  0  0  0  0
  9 35  1  0  0  0  0
 10 11  1  0  0  0  0
 10 15  2  0  0  0  0
 11 12  2  0  0  0  0
 12 13  1  0  0  0  0
 12 36  1  0  0  0  0
 13 14  2  0  0  0  0
 13 27  1  0  0  0  0
 14 15  1  0  0  0  0
 14 16  1  0  0  0  0
 16 17  1  0  0  0  0
 16 37  1  0  0  0  0
 16 38  1  0  0  0  0
 17 18  1  0  0  0  0
 17 39  1  0  0  0  0
 17 40  1  0  0  0  0
 18 19  1  0  0  0  0
 18 27  1  0  0  0  0
 19 20  2  0  0  0  0
 19 21  1  0  0  0  0
 21 22  1  0  0  0  0
 21 26  2  0  0  0  0
 22 23  2  0  0  0  0
 22 41  1  0  0  0  0
 23 24  1  0  0  0  0
 23 42  1  0  0  0  0
 24 25  2  0  0  0  0
 24 43  1  0  0  0  0
 25 26  1  0  0  0  0
 26 44  1  0  0  0  0
 27 45  1  0  0  0  0
 27 46  1  0  0  0  0
M  END
$$$$
