CHEMBL3891135
 OpenBabel04072215373D

 54 58  0  0  0  0  0  0  0  0999 V2000
   -3.1482    0.2825   -1.8998 C   0  0  0  0  0  0  0  0  0  0  0  0
   -2.0321    1.2097   -1.6153 C   0  0  0  0  0  0  0  0  0  0  0  0
   -0.6936    1.1551   -1.9221 C   0  0  0  0  0  0  0  0  0  0  0  0
   -0.1288    2.3387   -1.3722 C   0  0  0  0  0  0  0  0  0  0  0  0
    1.2866    2.7236   -1.4533 C   0  0  0  0  0  0  0  0  0  0  0  0
    2.0861    1.9975   -2.0403 O   0  0  0  0  0  0  0  0  0  0  0  0
    1.5932    3.9109   -0.8028 N   0  0  0  0  0  0  0  0  0  0  0  0
    2.8742    4.5024   -0.7497 C   0  0  0  0  0  0  0  0  0  0  0  0
    3.8995    4.1222   -1.6221 C   0  0  0  0  0  0  0  0  0  0  0  0
    5.1883    4.6283   -1.4947 C   0  0  0  0  0  0  0  0  0  0  0  0
    5.4597    5.5535   -0.5037 C   0  0  0  0  0  0  0  0  0  0  0  0
    4.4208    6.0463    0.2924 C   0  0  0  0  0  0  0  0  0  0  0  0
    4.6824    7.1687    1.2351 C   0  0  0  0  0  0  0  0  0  0  0  0
    4.0136    7.2381    2.2566 O   0  0  0  0  0  0  0  0  0  0  0  0
    5.7303    8.1924    0.9222 C   0  0  0  0  0  0  0  0  0  0  0  0
    6.1023    8.5172   -0.4008 C   0  0  0  0  0  0  0  0  0  0  0  0
    7.1243    9.4488   -0.6801 C   0  0  0  0  0  0  0  0  0  0  0  0
    7.6599   10.1748    0.4048 C   0  0  0  0  0  0  0  0  0  0  0  0
    8.4204   11.3802    0.6136 C   0  0  0  0  0  0  0  0  0  0  0  0
    9.6871   11.5185    1.3391 C   0  0  0  0  0  0  0  0  0  0  0  0
   10.3086   10.5286    2.0090 C   0  0  0  0  0  0  0  0  0  0  0  0
   10.9598   10.7672    3.3185 C   0  0  0  0  0  0  0  0  0  0  0  0
   11.5007    9.7000    4.0298 C   0  0  0  0  0  0  0  0  0  0  0  0
   11.9244    9.9026    5.3448 C   0  0  0  0  0  0  0  0  0  0  0  0
   11.7911   11.1589    5.9210 C   0  0  0  0  0  0  0  0  0  0  0  0
   11.2419   12.1674    5.1506 C   0  0  0  0  0  0  0  0  0  0  0  0
   10.8263   11.9986    3.8731 N   0  0  0  0  0  0  0  0  0  0  0  0
    7.4823   12.2053    1.1384 N   0  0  0  0  0  0  0  0  0  0  0  0
    6.9454   11.3574    2.0559 N   0  0  0  0  0  0  0  0  0  0  0  0
    6.9621   10.0565    1.6026 C   0  0  0  0  0  0  0  0  0  0  0  0
    6.2162    8.9500    1.9902 C   0  0  0  0  0  0  0  0  0  0  0  0
    3.1291    5.5015    0.1957 C   0  0  0  0  0  0  0  0  0  0  0  0
   -1.0638    3.0811   -0.7531 N   0  0  0  0  0  0  0  0  0  0  0  0
   -2.1988    2.3813   -0.9271 N   0  0  0  0  0  0  0  0  0  0  0  0
   -2.8046   -0.5806   -2.4791 H   0  0  0  0  0  0  0  0  0  0  0  0
   -3.9298    0.7871   -2.4764 H   0  0  0  0  0  0  0  0  0  0  0  0
   -3.5868   -0.0887   -0.9681 H   0  0  0  0  0  0  0  0  0  0  0  0
   -0.1694    0.3777   -2.4614 H   0  0  0  0  0  0  0  0  0  0  0  0
    0.8339    4.2998   -0.2505 H   0  0  0  0  0  0  0  0  0  0  0  0
    3.7293    3.4190   -2.4312 H   0  0  0  0  0  0  0  0  0  0  0  0
    5.9713    4.3008   -2.1702 H   0  0  0  0  0  0  0  0  0  0  0  0
    6.4811    5.9075   -0.3926 H   0  0  0  0  0  0  0  0  0  0  0  0
    5.5618    8.0896   -1.2439 H   0  0  0  0  0  0  0  0  0  0  0  0
    7.3651    9.7056   -1.7087 H   0  0  0  0  0  0  0  0  0  0  0  0
    9.8757   12.5475    1.6523 H   0  0  0  0  0  0  0  0  0  0  0  0
   10.1200    9.4896    1.7646 H   0  0  0  0  0  0  0  0  0  0  0  0
   11.5631    8.7103    3.5913 H   0  0  0  0  0  0  0  0  0  0  0  0
   12.3385    9.0791    5.9202 H   0  0  0  0  0  0  0  0  0  0  0  0
   12.1017   11.3457    6.9434 H   0  0  0  0  0  0  0  0  0  0  0  0
   11.1061   13.1670    5.5557 H   0  0  0  0  0  0  0  0  0  0  0  0
    6.4045   11.7490    2.8177 H   0  0  0  0  0  0  0  0  0  0  0  0
    5.8307    8.8320    2.9970 H   0  0  0  0  0  0  0  0  0  0  0  0
    2.3489    5.8535    0.8665 H   0  0  0  0  0  0  0  0  0  0  0  0
   -3.0624    2.7595   -0.5480 H   0  0  0  0  0  0  0  0  0  0  0  0
  1  2  1  0  0  0  0
  1 35  1  0  0  0  0
  1 36  1  0  0  0  0
  1 37  1  0  0  0  0
  2  3  2  0  0  0  0
  2 34  1  0  0  0  0
  3  4  1  0  0  0  0
  3 38  1  0  0  0  0
  4  5  1  0  0  0  0
  4 33  2  0  0  0  0
  5  6  2  0  0  0  0
  5  7  1  0  0  0  0
  7  8  1  0  0  0  0
  7 39  1  0  0  0  0
  8  9  1  0  0  0  0
  8 32  2  0  0  0  0
  9 10  2  0  0  0  0
  9 40  1  0  0  0  0
 10 11  1  0  0  0  0
 10 41  1  0  0  0  0
 11 12  2  0  0  0  0
 11 42  1  0  0  0  0
 12 13  1  0  0  0  0
 12 32  1  0  0  0  0
 13 14  2  0  0  0  0
 13 15  1  0  0  0  0
 15 16  1  0  0  0  0
 15 31  2  0  0  0  0
 16 17  2  0  0  0  0
 16 43  1  0  0  0  0
 17 18  1  0  0  0  0
 17 44  1  0  0  0  0
 18 19  1  0  0  0  0
 18 30  2  0  0  0  0
 19 20  1  0  0  0  0
 19 28  2  0  0  0  0
 20 21  2  0  0  0  0
 20 45  1  0  0  0  0
 21 22  1  0  0  0  0
 21 46  1  0  0  0  0
 22 23  1  0  0  0  0
 22 27  2  0  0  0  0
 23 24  2  0  0  0  0
 23 47  1  0  0  0  0
 24 25  1  0  0  0  0
 24 48  1  0  0  0  0
 25 26  2  0  0  0  0
 25 49  1  0  0  0  0
 26 27  1  0  0  0  0
 26 50  1  0  0  0  0
 28 29  1  0  0  0  0
 29 30  1  0  0  0  0
 29 51  1  0  0  0  0
 30 31  1  0  0  0  0
 31 52  1  0  0  0  0
 32 53  1  0  0  0  0
 33 34  1  0  0  0  0
 34 54  1  0  0  0  0
M  END
$$$$
