CHEMBL3893580
 OpenBabel04072215373D

 56 59  0  0  0  0  0  0  0  0999 V2000
    0.6980    0.4830    0.2860 C   0  0  0  0  0  0  0  0  0  0  0  0
    2.1262    0.0643    0.5408 C   0  0  0  0  0  0  0  0  0  0  0  0
    3.0790    1.1461    0.4677 C   0  0  0  0  0  0  0  0  0  0  0  0
    4.3898    0.9224    0.5456 C   0  0  0  0  0  0  0  0  0  0  0  0
    4.9256   -0.3475    0.6487 N   0  0  0  0  0  0  0  0  0  0  0  0
    6.3551   -0.4933    0.6186 C   0  0  0  0  0  0  0  0  0  0  0  0
    6.9828   -1.3615   -0.2764 C   0  0  0  0  0  0  0  0  0  0  0  0
    8.3876   -1.3857   -0.3911 C   0  0  0  0  0  0  0  0  0  0  0  0
    9.2199   -0.5841    0.4148 C   0  0  0  0  0  0  0  0  0  0  0  0
   10.7614   -0.6788    0.3816 C   0  0  0  0  0  0  0  0  0  0  0  0
   11.2915   -1.7015   -0.6495 C   0  0  0  0  0  0  0  0  0  0  0  0
   11.4111    0.6830    0.0419 C   0  0  0  0  0  0  0  0  0  0  0  0
   11.2769   -1.1266    1.7684 C   0  0  0  0  0  0  0  0  0  0  0  0
    8.5755    0.2825    1.3126 C   0  0  0  0  0  0  0  0  0  0  0  0
    7.1718    0.3352    1.4018 C   0  0  0  0  0  0  0  0  0  0  0  0
    4.0742   -1.4895    0.7359 C   0  0  0  0  0  0  0  0  0  0  0  0
    4.4964   -2.6375    0.8368 O   0  0  0  0  0  0  0  0  0  0  0  0
    2.5303   -1.2121    0.7687 C   0  0  0  0  0  0  0  0  0  0  0  0
    1.6432   -2.2841    1.0299 N   0  0  0  0  0  0  0  0  0  0  0  0
    1.6788   -3.5719    0.2761 C   0  0  0  0  0  0  0  0  0  0  0  0
    0.8605   -4.6774    0.9826 C   0  0  0  0  0  0  0  0  0  0  0  0
   -0.5473   -4.1371    1.0858 C   0  0  0  0  0  0  0  0  0  0  0  0
   -1.5785   -4.7972    0.5198 N   0  0  0  0  0  0  0  0  0  0  0  0
   -2.7229   -4.1105    0.4099 C   0  0  0  0  0  0  0  0  0  0  0  0
   -3.7933   -4.7169   -0.2144 N   0  0  0  0  0  0  0  0  0  0  0  0
   -2.9193   -2.8634    0.8582 N   0  0  0  0  0  0  0  0  0  0  0  0
   -1.8682   -2.2525    1.4398 C   0  0  0  0  0  0  0  0  0  0  0  0
   -0.6451   -2.8517    1.5872 C   0  0  0  0  0  0  0  0  0  0  0  0
    0.6083   -2.2056    2.0886 C   0  0  0  0  0  0  0  0  0  0  0  0
    0.5963    1.5666    0.1821 H   0  0  0  0  0  0  0  0  0  0  0  0
    0.0164    0.2095    1.0884 H   0  0  0  0  0  0  0  0  0  0  0  0
    0.3372    0.0364   -0.6514 H   0  0  0  0  0  0  0  0  0  0  0  0
    2.7244    2.1657    0.3629 H   0  0  0  0  0  0  0  0  0  0  0  0
    5.0855    1.7520    0.4715 H   0  0  0  0  0  0  0  0  0  0  0  0
    6.3926   -1.9915   -0.9347 H   0  0  0  0  0  0  0  0  0  0  0  0
    8.8058   -2.0547   -1.1373 H   0  0  0  0  0  0  0  0  0  0  0  0
   11.0202   -1.4163   -1.6729 H   0  0  0  0  0  0  0  0  0  0  0  0
   10.8993   -2.7066   -0.4574 H   0  0  0  0  0  0  0  0  0  0  0  0
   12.3853   -1.7729   -0.6133 H   0  0  0  0  0  0  0  0  0  0  0  0
   11.0954    1.0462   -0.9398 H   0  0  0  0  0  0  0  0  0  0  0  0
   12.5094    0.5953    0.0204 H   0  0  0  0  0  0  0  0  0  0  0  0
   11.1732    1.4547    0.7797 H   0  0  0  0  0  0  0  0  0  0  0  0
   10.8056   -2.0633    2.0843 H   0  0  0  0  0  0  0  0  0  0  0  0
   11.0760   -0.3760    2.5424 H   0  0  0  0  0  0  0  0  0  0  0  0
   12.3617   -1.2878    1.7546 H   0  0  0  0  0  0  0  0  0  0  0  0
    9.1548    0.9263    1.9715 H   0  0  0  0  0  0  0  0  0  0  0  0
    6.7265    1.0104    2.1297 H   0  0  0  0  0  0  0  0  0  0  0  0
    2.6954   -3.9284    0.1082 H   0  0  0  0  0  0  0  0  0  0  0  0
    1.2334   -3.3863   -0.7121 H   0  0  0  0  0  0  0  0  0  0  0  0
    0.8890   -5.6217    0.4326 H   0  0  0  0  0  0  0  0  0  0  0  0
    1.2562   -4.8654    1.9915 H   0  0  0  0  0  0  0  0  0  0  0  0
   -3.7715   -5.7136   -0.0605 H   0  0  0  0  0  0  0  0  0  0  0  0
   -4.6419   -4.2237    0.0241 H   0  0  0  0  0  0  0  0  0  0  0  0
   -2.0456   -1.2250    1.7387 H   0  0  0  0  0  0  0  0  0  0  0  0
    0.9643   -2.7508    2.9730 H   0  0  0  0  0  0  0  0  0  0  0  0
    0.4230   -1.1918    2.4484 H   0  0  0  0  0  0  0  0  0  0  0  0
  1  2  1  0  0  0  0
  1 30  1  0  0  0  0
  1 31  1  0  0  0  0
  1 32  1  0  0  0  0
  2  3  1  0  0  0  0
  2 18  2  0  0  0  0
  3  4  2  0  0  0  0
  3 33  1  0  0  0  0
  4  5  1  0  0  0  0
  4 34  1  0  0  0  0
  5  6  1  0  0  0  0
  5 16  1  0  0  0  0
  6  7  1  0  0  0  0
  6 15  2  0  0  0  0
  7  8  2  0  0  0  0
  7 35  1  0  0  0  0
  8  9  1  0  0  0  0
  8 36  1  0  0  0  0
  9 10  1  0  0  0  0
  9 14  2  0  0  0  0
 10 11  1  0  0  0  0
 10 12  1  0  0  0  0
 10 13  1  0  0  0  0
 11 37  1  0  0  0  0
 11 38  1  0  0  0  0
 11 39  1  0  0  0  0
 12 40  1  0  0  0  0
 12 41  1  0  0  0  0
 12 42  1  0  0  0  0
 13 43  1  0  0  0  0
 13 44  1  0  0  0  0
 13 45  1  0  0  0  0
 14 15  1  0  0  0  0
 14 46  1  0  0  0  0
 15 47  1  0  0  0  0
 16 17  2  0  0  0  0
 16 18  1  0  0  0  0
 18 19  1  0  0  0  0
 19 20  1  0  0  0  0
 19 29  1  0  0  0  0
 20 21  1  0  0  0  0
 20 48  1  0  0  0  0
 20 49  1  0  0  0  0
 21 22  1  0  0  0  0
 21 50  1  0  0  0  0
 21 51  1  0  0  0  0
 22 23  1  0  0  0  0
 22 28  2  0  0  0  0
 23 24  2  0  0  0  0
 24 25  1  0  0  0  0
 24 26  1  0  0  0  0
 25 52  1  0  0  0  0
 25 53  1  0  0  0  0
 26 27  2  0  0  0  0
 27 28  1  0  0  0  0
 27 54  1  0  0  0  0
 28 29  1  0  0  0  0
 29 55  1  0  0  0  0
 29 56  1  0  0  0  0
M  END
$$$$
