CHEMBL172450
 OpenBabel04072215363D

 59 62  0  0  0  0  0  0  0  0999 V2000
    2.1793   -3.0763   -3.3204 C   0  0  0  0  0  0  0  0  0  0  0  0
    2.6019   -1.7184   -3.3697 O   0  0  0  0  0  0  0  0  0  0  0  0
    3.9263   -1.5222   -3.6429 C   0  0  0  0  0  0  0  0  0  0  0  0
    4.7367   -2.3935   -4.3664 C   0  0  0  0  0  0  0  0  0  0  0  0
    6.0862   -2.1106   -4.5433 C   0  0  0  0  0  0  0  0  0  0  0  0
    6.6415   -0.9465   -4.0164 C   0  0  0  0  0  0  0  0  0  0  0  0
    8.3612   -0.7884   -4.0835 Cl  0  0  0  0  0  0  0  0  0  0  0  0
    5.8155   -0.0037   -3.3723 C   0  0  0  0  0  0  0  0  0  0  0  0
    6.2901    1.1710   -2.7210 N   0  0  0  0  0  0  0  0  0  0  0  0
    7.1472    2.1563   -3.2920 C   0  0  0  0  0  0  0  0  0  0  0  0
    7.3201    2.1819   -4.6240 N   0  0  0  0  0  0  0  0  0  0  0  0
    8.0903    3.1615   -5.1138 C   0  0  0  0  0  0  0  0  0  0  0  0
    8.6309    4.1612   -4.4094 N   0  0  0  0  0  0  0  0  0  0  0  0
    8.4155    4.1499   -3.0901 C   0  0  0  0  0  0  0  0  0  0  0  0
    8.9306    5.1688   -2.3099 C   0  0  0  0  0  0  0  0  0  0  0  0
    8.8516    5.1893   -0.9016 C   0  0  0  0  0  0  0  0  0  0  0  0
    9.5080    6.2867   -0.4183 O   0  0  0  0  0  0  0  0  0  0  0  0
    9.9388    6.2418    0.9185 C   0  0  0  0  0  0  0  0  0  0  0  0
   11.3364    6.8112    1.0898 C   0  0  0  0  0  0  0  0  0  0  0  0
   11.6785    6.6204    2.5702 C   0  0  0  0  0  0  0  0  0  0  0  0
   13.0378    6.9771    2.9708 N   0  0  0  0  0  0  0  0  0  0  0  0
   14.0737    6.1235    2.3452 C   0  0  0  0  0  0  0  0  0  0  0  0
   14.1080    4.6710    2.8581 C   0  0  0  0  0  0  0  0  0  0  0  0
   14.1914    4.6007    4.2872 O   0  0  0  0  0  0  0  0  0  0  0  0
   13.1529    5.3607    4.9137 C   0  0  0  0  0  0  0  0  0  0  0  0
   13.1753    6.8243    4.4454 C   0  0  0  0  0  0  0  0  0  0  0  0
    8.1940    4.1468   -0.2375 C   0  0  0  0  0  0  0  0  0  0  0  0
    8.2501    3.7853    1.0828 O   0  0  0  0  0  0  0  0  0  0  0  0
    7.6937    4.6133    2.0973 C   0  0  0  0  0  0  0  0  0  0  0  0
    7.6042    3.1569   -1.0272 C   0  0  0  0  0  0  0  0  0  0  0  0
    7.6976    3.1381   -2.4477 C   0  0  0  0  0  0  0  0  0  0  0  0
    4.4641   -0.3263   -3.1664 C   0  0  0  0  0  0  0  0  0  0  0  0
    1.1449   -3.0945   -2.9639 H   0  0  0  0  0  0  0  0  0  0  0  0
    2.7884   -3.6510   -2.6133 H   0  0  0  0  0  0  0  0  0  0  0  0
    2.1947   -3.5316   -4.3143 H   0  0  0  0  0  0  0  0  0  0  0  0
    4.3405   -3.3078   -4.8056 H   0  0  0  0  0  0  0  0  0  0  0  0
    6.7186   -2.8165   -5.0771 H   0  0  0  0  0  0  0  0  0  0  0  0
    6.6727    0.8753   -1.8282 H   0  0  0  0  0  0  0  0  0  0  0  0
    8.2904    3.1451   -6.1794 H   0  0  0  0  0  0  0  0  0  0  0  0
    9.4853    5.9648   -2.8106 H   0  0  0  0  0  0  0  0  0  0  0  0
   10.0219    5.2139    1.2588 H   0  0  0  0  0  0  0  0  0  0  0  0
    9.2261    6.8136    1.5270 H   0  0  0  0  0  0  0  0  0  0  0  0
   11.3837    7.8614    0.7840 H   0  0  0  0  0  0  0  0  0  0  0  0
   12.0114    6.2542    0.4317 H   0  0  0  0  0  0  0  0  0  0  0  0
   11.4483    5.5860    2.8461 H   0  0  0  0  0  0  0  0  0  0  0  0
   10.9736    7.2470    3.1392 H   0  0  0  0  0  0  0  0  0  0  0  0
   15.0440    6.5869    2.5687 H   0  0  0  0  0  0  0  0  0  0  0  0
   13.9937    6.1332    1.2538 H   0  0  0  0  0  0  0  0  0  0  0  0
   14.9984    4.1726    2.4616 H   0  0  0  0  0  0  0  0  0  0  0  0
   13.2362    4.1003    2.5168 H   0  0  0  0  0  0  0  0  0  0  0  0
   13.3197    5.3203    5.9946 H   0  0  0  0  0  0  0  0  0  0  0  0
   12.1870    4.8744    4.7292 H   0  0  0  0  0  0  0  0  0  0  0  0
   14.1301    7.2734    4.7341 H   0  0  0  0  0  0  0  0  0  0  0  0
   12.3937    7.3991    4.9579 H   0  0  0  0  0  0  0  0  0  0  0  0
    7.1772    3.9650    2.8143 H   0  0  0  0  0  0  0  0  0  0  0  0
    7.0027    5.3791    1.7391 H   0  0  0  0  0  0  0  0  0  0  0  0
    8.5048    5.0621    2.6800 H   0  0  0  0  0  0  0  0  0  0  0  0
    7.1069    2.3443   -0.5079 H   0  0  0  0  0  0  0  0  0  0  0  0
    3.8252    0.3577   -2.6100 H   0  0  0  0  0  0  0  0  0  0  0  0
  1  2  1  0  0  0  0
  1 33  1  0  0  0  0
  1 34  1  0  0  0  0
  1 35  1  0  0  0  0
  2  3  1  0  0  0  0
  3  4  1  0  0  0  0
  3 32  2  0  0  0  0
  4  5  2  0  0  0  0
  4 36  1  0  0  0  0
  5  6  1  0  0  0  0
  5 37  1  0  0  0  0
  6  7  1  0  0  0  0
  6  8  2  0  0  0  0
  8  9  1  0  0  0  0
  8 32  1  0  0  0  0
  9 10  1  0  0  0  0
  9 38  1  0  0  0  0
 10 11  1  0  0  0  0
 10 31  2  0  0  0  0
 11 12  2  0  0  0  0
 12 13  1  0  0  0  0
 12 39  1  0  0  0  0
 13 14  2  0  0  0  0
 14 15  1  0  0  0  0
 14 31  1  0  0  0  0
 15 16  2  0  0  0  0
 15 40  1  0  0  0  0
 16 17  1  0  0  0  0
 16 27  1  0  0  0  0
 17 18  1  0  0  0  0
 18 19  1  0  0  0  0
 18 41  1  0  0  0  0
 18 42  1  0  0  0  0
 19 20  1  0  0  0  0
 19 43  1  0  0  0  0
 19 44  1  0  0  0  0
 20 21  1  0  0  0  0
 20 45  1  0  0  0  0
 20 46  1  0  0  0  0
 21 22  1  0  0  0  0
 21 26  1  0  0  0  0
 22 23  1  0  0  0  0
 22 47  1  0  0  0  0
 22 48  1  0  0  0  0
 23 24  1  0  0  0  0
 23 49  1  0  0  0  0
 23 50  1  0  0  0  0
 24 25  1  0  0  0  0
 25 26  1  0  0  0  0
 25 51  1  0  0  0  0
 25 52  1  0  0  0  0
 26 53  1  0  0  0  0
 26 54  1  0  0  0  0
 27 28  1  0  0  0  0
 27 30  2  0  0  0  0
 28 29  1  0  0  0  0
 29 55  1  0  0  0  0
 29 56  1  0  0  0  0
 29 57  1  0  0  0  0
 30 31  1  0  0  0  0
 30 58  1  0  0  0  0
 32 59  1  0  0  0  0
M  END
$$$$
