CHEMBL1095131
 OpenBabel04072215363D

 41 44  0  0  0  0  0  0  0  0999 V2000
    1.2189    0.2914   -0.1413 N   0  0  0  0  0  0  0  0  0  0  0  0
    2.5982    0.2483   -0.0837 C   0  0  0  0  0  0  0  0  0  0  0  0
    3.1455   -0.9709    0.0166 N   0  0  0  0  0  0  0  0  0  0  0  0
    4.4958   -1.1117   -0.0097 C   0  0  0  0  0  0  0  0  0  0  0  0
    5.0851   -2.3822   -0.0157 N   0  0  0  0  0  0  0  0  0  0  0  0
    4.6228   -3.5835    0.5417 C   0  0  0  0  0  0  0  0  0  0  0  0
    3.6657   -3.6196    1.5651 C   0  0  0  0  0  0  0  0  0  0  0  0
    3.2255   -4.8331    2.1016 C   0  0  0  0  0  0  0  0  0  0  0  0
    3.7147   -6.0320    1.5922 C   0  0  0  0  0  0  0  0  0  0  0  0
    4.6341   -6.0027    0.5518 C   0  0  0  0  0  0  0  0  0  0  0  0
    5.0895   -7.1559    0.0441 F   0  0  0  0  0  0  0  0  0  0  0  0
    5.0906   -4.7976    0.0268 C   0  0  0  0  0  0  0  0  0  0  0  0
    5.2676    0.0531   -0.1211 C   0  0  0  0  0  0  0  0  0  0  0  0
    6.6504    0.3696   -0.2299 C   0  0  0  0  0  0  0  0  0  0  0  0
    6.7580    1.7363   -0.4258 C   0  0  0  0  0  0  0  0  0  0  0  0
    7.9374    2.5704   -0.8030 C   0  0  0  0  0  0  0  0  0  0  0  0
    8.7330    3.0736    0.3768 C   0  0  0  0  0  0  0  0  0  0  0  0
    9.7785    2.2755    0.8785 C   0  0  0  0  0  0  0  0  0  0  0  0
   10.5465    2.7019    1.9632 C   0  0  0  0  0  0  0  0  0  0  0  0
   10.2750    3.9290    2.5607 C   0  0  0  0  0  0  0  0  0  0  0  0
   11.2171    4.4514    3.9019 Cl  0  0  0  0  0  0  0  0  0  0  0  0
    9.2453    4.7348    2.0831 C   0  0  0  0  0  0  0  0  0  0  0  0
    8.4748    4.3067    0.9986 C   0  0  0  0  0  0  0  0  0  0  0  0
    7.2099    5.3533    0.4569 Cl  0  0  0  0  0  0  0  0  0  0  0  0
    5.4926    2.2639   -0.2867 N   0  0  0  0  0  0  0  0  0  0  0  0
    4.5796    1.2518   -0.1629 C   0  0  0  0  0  0  0  0  0  0  0  0
    3.2514    1.4148   -0.1303 N   0  0  0  0  0  0  0  0  0  0  0  0
    0.8335   -0.5698    0.2178 H   0  0  0  0  0  0  0  0  0  0  0  0
    0.8731    1.1631    0.2301 H   0  0  0  0  0  0  0  0  0  0  0  0
    6.0614   -2.3869   -0.2732 H   0  0  0  0  0  0  0  0  0  0  0  0
    3.2734   -2.6929    1.9786 H   0  0  0  0  0  0  0  0  0  0  0  0
    2.5042   -4.8346    2.9140 H   0  0  0  0  0  0  0  0  0  0  0  0
    3.3804   -6.9833    1.9915 H   0  0  0  0  0  0  0  0  0  0  0  0
    5.7953   -4.8215   -0.7976 H   0  0  0  0  0  0  0  0  0  0  0  0
    7.4734   -0.3326   -0.2449 H   0  0  0  0  0  0  0  0  0  0  0  0
    7.6262    3.3998   -1.4486 H   0  0  0  0  0  0  0  0  0  0  0  0
    8.5969    1.9674   -1.4423 H   0  0  0  0  0  0  0  0  0  0  0  0
   10.0028    1.3134    0.4206 H   0  0  0  0  0  0  0  0  0  0  0  0
   11.3517    2.0732    2.3356 H   0  0  0  0  0  0  0  0  0  0  0  0
    9.0430    5.6929    2.5542 H   0  0  0  0  0  0  0  0  0  0  0  0
    5.2403    3.2421   -0.3471 H   0  0  0  0  0  0  0  0  0  0  0  0
  1  2  1  0  0  0  0
  1 28  1  0  0  0  0
  1 29  1  0  0  0  0
  2  3  1  0  0  0  0
  2 27  2  0  0  0  0
  3  4  2  0  0  0  0
  4  5  1  0  0  0  0
  4 13  1  0  0  0  0
  5  6  1  0  0  0  0
  5 30  1  0  0  0  0
  6  7  1  0  0  0  0
  6 12  2  0  0  0  0
  7  8  2  0  0  0  0
  7 31  1  0  0  0  0
  8  9  1  0  0  0  0
  8 32  1  0  0  0  0
  9 10  2  0  0  0  0
  9 33  1  0  0  0  0
 10 11  1  0  0  0  0
 10 12  1  0  0  0  0
 12 34  1  0  0  0  0
 13 14  1  0  0  0  0
 13 26  2  0  0  0  0
 14 15  2  0  0  0  0
 14 35  1  0  0  0  0
 15 16  1  0  0  0  0
 15 25  1  0  0  0  0
 16 17  1  0  0  0  0
 16 36  1  0  0  0  0
 16 37  1  0  0  0  0
 17 18  1  0  0  0  0
 17 23  2  0  0  0  0
 18 19  2  0  0  0  0
 18 38  1  0  0  0  0
 19 20  1  0  0  0  0
 19 39  1  0  0  0  0
 20 21  1  0  0  0  0
 20 22  2  0  0  0  0
 22 23  1  0  0  0  0
 22 40  1  0  0  0  0
 23 24  1  0  0  0  0
 25 26  1  0  0  0  0
 25 41  1  0  0  0  0
 26 27  1  0  0  0  0
M  END
$$$$
