CHEMBL491758
 OpenBabel04072215383D

 34 36  0  0  0  0  0  0  0  0999 V2000
   -2.2931    0.1153    0.1635 F   0  0  0  0  0  0  0  0  0  0  0  0
   -0.9540    0.1209    0.1164 C   0  0  0  0  0  0  0  0  0  0  0  0
   -0.2564    1.2923    0.0284 C   0  0  0  0  0  0  0  0  0  0  0  0
    1.0831    1.3388   -0.0474 N   0  0  0  0  0  0  0  0  0  0  0  0
    1.7508    0.1708   -0.0038 C   0  0  0  0  0  0  0  0  0  0  0  0
    3.1396    0.1790   -0.0777 N   0  0  0  0  0  0  0  0  0  0  0  0
    3.9683    1.1339   -0.6955 C   0  0  0  0  0  0  0  0  0  0  0  0
    5.2765    1.3282   -0.2340 C   0  0  0  0  0  0  0  0  0  0  0  0
    6.0777    2.3474   -0.7593 C   0  0  0  0  0  0  0  0  0  0  0  0
    5.5887    3.1743   -1.7692 C   0  0  0  0  0  0  0  0  0  0  0  0
    4.3025    2.9792   -2.2590 C   0  0  0  0  0  0  0  0  0  0  0  0
    3.5020    1.9707   -1.7215 C   0  0  0  0  0  0  0  0  0  0  0  0
    1.1461   -1.0158    0.1372 N   0  0  0  0  0  0  0  0  0  0  0  0
   -0.2086   -1.0426    0.1702 C   0  0  0  0  0  0  0  0  0  0  0  0
   -0.8989   -2.2712    0.3086 N   0  0  0  0  0  0  0  0  0  0  0  0
   -0.3548   -3.4952    0.7311 C   0  0  0  0  0  0  0  0  0  0  0  0
    0.5859   -3.5446    1.7689 C   0  0  0  0  0  0  0  0  0  0  0  0
    1.1375   -4.7548    2.1843 C   0  0  0  0  0  0  0  0  0  0  0  0
    0.7606   -5.9383    1.5568 C   0  0  0  0  0  0  0  0  0  0  0  0
   -0.1723   -5.9085    0.5219 C   0  0  0  0  0  0  0  0  0  0  0  0
   -0.7321   -4.6934    0.1148 C   0  0  0  0  0  0  0  0  0  0  0  0
   -0.7612    2.2509    0.0178 H   0  0  0  0  0  0  0  0  0  0  0  0
    3.5334   -0.7424    0.0467 H   0  0  0  0  0  0  0  0  0  0  0  0
    5.6668    0.7146    0.5746 H   0  0  0  0  0  0  0  0  0  0  0  0
    7.0785    2.5095   -0.3666 H   0  0  0  0  0  0  0  0  0  0  0  0
    6.2034    3.9766   -2.1680 H   0  0  0  0  0  0  0  0  0  0  0  0
    3.9083    3.6160   -3.0459 H   0  0  0  0  0  0  0  0  0  0  0  0
    2.4994    1.8411   -2.1196 H   0  0  0  0  0  0  0  0  0  0  0  0
   -1.6796   -2.3450   -0.3333 H   0  0  0  0  0  0  0  0  0  0  0  0
    0.8854   -2.6282    2.2716 H   0  0  0  0  0  0  0  0  0  0  0  0
    1.8608   -4.7652    2.9945 H   0  0  0  0  0  0  0  0  0  0  0  0
    1.1969   -6.8812    1.8741 H   0  0  0  0  0  0  0  0  0  0  0  0
   -0.4599   -6.8320    0.0266 H   0  0  0  0  0  0  0  0  0  0  0  0
   -1.4490   -4.6940   -0.7020 H   0  0  0  0  0  0  0  0  0  0  0  0
  1  2  1  0  0  0  0
  2  3  1  0  0  0  0
  2 14  2  0  0  0  0
  3  4  2  0  0  0  0
  3 22  1  0  0  0  0
  4  5  1  0  0  0  0
  5  6  1  0  0  0  0
  5 13  2  0  0  0  0
  6  7  1  0  0  0  0
  6 23  1  0  0  0  0
  7  8  1  0  0  0  0
  7 12  2  0  0  0  0
  8  9  2  0  0  0  0
  8 24  1  0  0  0  0
  9 10  1  0  0  0  0
  9 25  1  0  0  0  0
 10 11  2  0  0  0  0
 10 26  1  0  0  0  0
 11 12  1  0  0  0  0
 11 27  1  0  0  0  0
 12 28  1  0  0  0  0
 13 14  1  0  0  0  0
 14 15  1  0  0  0  0
 15 16  1  0  0  0  0
 15 29  1  0  0  0  0
 16 17  1  0  0  0  0
 16 21  2  0  0  0  0
 17 18  2  0  0  0  0
 17 30  1  0  0  0  0
 18 19  1  0  0  0  0
 18 31  1  0  0  0  0
 19 20  2  0  0  0  0
 19 32  1  0  0  0  0
 20 21  1  0  0  0  0
 20 33  1  0  0  0  0
 21 34  1  0  0  0  0
M  END
$$$$
