CHEMBL3397939
 OpenBabel04072215363D

 55 57  0  0  0  0  0  0  0  0999 V2000
    8.5457    1.3295    0.1973 C   0  0  0  0  0  0  0  0  0  0  0  0
    8.2965    0.6890    1.4901 N   0  0  0  0  0  0  0  0  0  0  0  0
    8.8596    1.5066    2.5680 C   0  0  0  0  0  0  0  0  0  0  0  0
    6.8599    0.4432    1.7214 C   0  0  0  0  0  0  0  0  0  0  0  0
    6.2170   -0.5414    0.7273 C   0  0  0  0  0  0  0  0  0  0  0  0
    6.9524   -1.8724    0.7474 C   0  0  0  0  0  0  0  0  0  0  0  0
    6.4147   -2.8025   -0.2020 O   0  0  0  0  0  0  0  0  0  0  0  0
    7.0851   -4.0071   -0.2462 C   0  0  0  0  0  0  0  0  0  0  0  0
    8.1409   -4.3137    0.6118 C   0  0  0  0  0  0  0  0  0  0  0  0
    8.7786   -5.5444    0.5508 C   0  0  0  0  0  0  0  0  0  0  0  0
    8.3724   -6.5313   -0.3424 C   0  0  0  0  0  0  0  0  0  0  0  0
    8.9927   -7.8031   -0.3606 N   0  0  0  0  0  0  0  0  0  0  0  0
    9.7641   -8.2897    0.6872 C   0  0  0  0  0  0  0  0  0  0  0  0
    9.8474   -7.7730    1.7995 O   0  0  0  0  0  0  0  0  0  0  0  0
   10.5242   -9.5477    0.4781 C   0  0  0  0  0  0  0  0  0  0  0  0
   10.8667  -10.0486   -0.7762 C   0  0  0  0  0  0  0  0  0  0  0  0
   11.6610  -11.1930   -0.8558 C   0  0  0  0  0  0  0  0  0  0  0  0
   12.1239  -11.8215    0.3101 C   0  0  0  0  0  0  0  0  0  0  0  0
   11.8197  -11.3231    1.5863 C   0  0  0  0  0  0  0  0  0  0  0  0
   12.3595  -11.9201    2.8288 C   0  0  0  0  0  0  0  0  0  0  0  0
   11.6249  -11.9202    4.0320 C   0  0  0  0  0  0  0  0  0  0  0  0
   12.1528  -12.4521    5.2139 C   0  0  0  0  0  0  0  0  0  0  0  0
   13.4231  -13.0188    5.2163 C   0  0  0  0  0  0  0  0  0  0  0  0
   14.1567  -13.0342    4.0373 C   0  0  0  0  0  0  0  0  0  0  0  0
   15.4000  -13.5922    3.9822 O   0  0  0  0  0  0  0  0  0  0  0  0
   13.6470  -12.4803    2.8649 C   0  0  0  0  0  0  0  0  0  0  0  0
   11.0032  -10.1853    1.6377 C   0  0  0  0  0  0  0  0  0  0  0  0
    7.3477   -6.2309   -1.2416 C   0  0  0  0  0  0  0  0  0  0  0  0
    6.7033   -4.9770   -1.1851 C   0  0  0  0  0  0  0  0  0  0  0  0
    5.4267   -4.6744   -2.3158 Cl  0  0  0  0  0  0  0  0  0  0  0  0
    9.6173    1.5157    0.0613 H   0  0  0  0  0  0  0  0  0  0  0  0
    8.0141    2.2815    0.1014 H   0  0  0  0  0  0  0  0  0  0  0  0
    8.2514    0.6773   -0.6306 H   0  0  0  0  0  0  0  0  0  0  0  0
    9.9271    1.6904    2.3976 H   0  0  0  0  0  0  0  0  0  0  0  0
    8.7858    0.9836    3.5280 H   0  0  0  0  0  0  0  0  0  0  0  0
    8.3548    2.4747    2.6577 H   0  0  0  0  0  0  0  0  0  0  0  0
    6.2984    1.3853    1.7102 H   0  0  0  0  0  0  0  0  0  0  0  0
    6.7390    0.0162    2.7268 H   0  0  0  0  0  0  0  0  0  0  0  0
    6.1932   -0.1341   -0.2895 H   0  0  0  0  0  0  0  0  0  0  0  0
    5.1680   -0.7049    1.0033 H   0  0  0  0  0  0  0  0  0  0  0  0
    6.8596   -2.2906    1.7584 H   0  0  0  0  0  0  0  0  0  0  0  0
    8.0059   -1.6950    0.5018 H   0  0  0  0  0  0  0  0  0  0  0  0
    8.5154   -3.6260    1.3629 H   0  0  0  0  0  0  0  0  0  0  0  0
    9.6126   -5.6879    1.2332 H   0  0  0  0  0  0  0  0  0  0  0  0
    8.7445   -8.4333   -1.1125 H   0  0  0  0  0  0  0  0  0  0  0  0
   10.5719   -9.5482   -1.6927 H   0  0  0  0  0  0  0  0  0  0  0  0
   11.9488  -11.5891   -1.8271 H   0  0  0  0  0  0  0  0  0  0  0  0
   12.7463  -12.7082    0.2030 H   0  0  0  0  0  0  0  0  0  0  0  0
   10.6213  -11.4996    4.0689 H   0  0  0  0  0  0  0  0  0  0  0  0
   11.5664  -12.4213    6.1290 H   0  0  0  0  0  0  0  0  0  0  0  0
   13.8218  -13.4318    6.1368 H   0  0  0  0  0  0  0  0  0  0  0  0
   15.5745  -14.0365    4.8278 H   0  0  0  0  0  0  0  0  0  0  0  0
   14.2790  -12.4784    1.9809 H   0  0  0  0  0  0  0  0  0  0  0  0
   10.7630   -9.7451    2.6055 H   0  0  0  0  0  0  0  0  0  0  0  0
    7.0184   -6.9664   -1.9696 H   0  0  0  0  0  0  0  0  0  0  0  0
  1  2  1  0  0  0  0
  1 31  1  0  0  0  0
  1 32  1  0  0  0  0
  1 33  1  0  0  0  0
  2  3  1  0  0  0  0
  2  4  1  0  0  0  0
  3 34  1  0  0  0  0
  3 35  1  0  0  0  0
  3 36  1  0  0  0  0
  4  5  1  0  0  0  0
  4 37  1  0  0  0  0
  4 38  1  0  0  0  0
  5  6  1  0  0  0  0
  5 39  1  0  0  0  0
  5 40  1  0  0  0  0
  6  7  1  0  0  0  0
  6 41  1  0  0  0  0
  6 42  1  0  0  0  0
  7  8  1  0  0  0  0
  8  9  1  0  0  0  0
  8 29  2  0  0  0  0
  9 10  2  0  0  0  0
  9 43  1  0  0  0  0
 10 11  1  0  0  0  0
 10 44  1  0  0  0  0
 11 12  1  0  0  0  0
 11 28  2  0  0  0  0
 12 13  1  0  0  0  0
 12 45  1  0  0  0  0
 13 14  2  0  0  0  0
 13 15  1  0  0  0  0
 15 16  1  0  0  0  0
 15 27  2  0  0  0  0
 16 17  2  0  0  0  0
 16 46  1  0  0  0  0
 17 18  1  0  0  0  0
 17 47  1  0  0  0  0
 18 19  2  0  0  0  0
 18 48  1  0  0  0  0
 19 20  1  0  0  0  0
 19 27  1  0  0  0  0
 20 21  1  0  0  0  0
 20 26  2  0  0  0  0
 21 22  2  0  0  0  0
 21 49  1  0  0  0  0
 22 23  1  0  0  0  0
 22 50  1  0  0  0  0
 23 24  2  0  0  0  0
 23 51  1  0  0  0  0
 24 25  1  0  0  0  0
 24 26  1  0  0  0  0
 25 52  1  0  0  0  0
 26 53  1  0  0  0  0
 27 54  1  0  0  0  0
 28 29  1  0  0  0  0
 28 55  1  0  0  0  0
 29 30  1  0  0  0  0
M  END
$$$$
