CHEMBL3932756
 OpenBabel04072215373D

 70 74  0  0  1  0  0  0  0  0999 V2000
    0.7179   -3.1104    2.7224 C   0  0  0  0  0  0  0  0  0  0  0  0
    2.0950   -3.0573    3.1013 O   0  0  0  0  0  0  0  0  0  0  0  0
    2.9731   -2.4673    2.2231 C   0  0  0  0  0  0  0  0  0  0  0  0
    2.6234   -2.0119    0.9464 C   0  0  0  0  0  0  0  0  0  0  0  0
    3.5789   -1.3711    0.1615 C   0  0  0  0  0  0  0  0  0  0  0  0
    3.3718   -0.8427   -1.0847 O   0  0  0  0  0  0  0  0  0  0  0  0
    2.0917   -1.0363   -1.6691 C   0  0  0  0  0  0  0  0  0  0  0  0
    4.8784   -1.1854    0.6487 C   0  0  0  0  0  0  0  0  0  0  0  0
    5.2708   -1.6269    1.9167 C   0  0  0  0  0  0  0  0  0  0  0  0
    6.5194   -1.2774    2.4899 N   0  0  0  0  0  0  0  0  0  0  0  0
    7.0658    0.0909    2.1102 C   0  0  0  0  0  0  0  0  0  0  0  0
    6.2138    1.3537    2.4567 C   0  0  0  0  0  0  0  0  0  0  0  0
    6.8324    2.6404    2.0117 N   0  0  0  0  0  0  0  0  0  0  0  0
    8.1491    2.9709    2.5974 C   0  0  1  0  0  0  0  0  0  0  0  0
    9.3110    2.4766    1.7309 C   0  0  0  0  0  0  0  0  0  0  0  0
    8.2130    4.5070    2.6676 C   0  0  0  0  0  0  0  0  0  0  0  0
    6.9647    4.9840    1.9529 C   0  0  0  0  0  0  0  0  0  0  0  0
    5.9737    3.8376    2.1464 C   0  0  2  0  0  0  0  0  0  0  0  0
    5.2267    4.0064    3.4737 C   0  0  0  0  0  0  0  0  0  0  0  0
    7.6614   -2.1372    2.7494 C   0  0  0  0  0  0  0  0  0  0  0  0
    8.4004   -1.7866    3.8799 C   0  0  0  0  0  0  0  0  0  0  0  0
    9.7437   -2.0948    3.9701 C   0  0  0  0  0  0  0  0  0  0  0  0
   10.3587   -2.8836    3.0367 C   0  0  0  0  0  0  0  0  0  0  0  0
   11.6916   -2.9552    3.1750 N   0  0  0  0  0  0  0  0  0  0  0  0
   12.3310   -3.8218    2.3812 C   0  0  0  0  0  0  0  0  0  0  0  0
   11.6507   -4.6645    1.5155 C   0  0  0  0  0  0  0  0  0  0  0  0
   12.4339   -5.7682    0.9751 C   0  0  0  0  0  0  0  0  0  0  0  0
   12.5942   -7.0909    1.4681 C   0  0  0  0  0  0  0  0  0  0  0  0
   13.5629   -7.7687    0.8390 N   0  0  0  0  0  0  0  0  0  0  0  0
   14.0289   -6.8814   -0.0557 N   0  0  0  0  0  0  0  0  0  0  0  0
   14.8388   -7.3186   -1.1687 C   0  0  0  0  0  0  0  0  0  0  0  0
   13.5205   -5.6238    0.1264 C   0  0  0  0  0  0  0  0  0  0  0  0
   10.3105   -4.5140    1.2989 N   0  0  0  0  0  0  0  0  0  0  0  0
    9.6164   -3.5558    2.0350 C   0  0  0  0  0  0  0  0  0  0  0  0
    8.2429   -3.1081    1.8843 C   0  0  0  0  0  0  0  0  0  0  0  0
    4.2955   -2.2940    2.6867 C   0  0  0  0  0  0  0  0  0  0  0  0
    0.1406   -3.4909    3.5722 H   0  0  0  0  0  0  0  0  0  0  0  0
    0.5684   -3.8022    1.8860 H   0  0  0  0  0  0  0  0  0  0  0  0
    0.3212   -2.1167    2.4830 H   0  0  0  0  0  0  0  0  0  0  0  0
    1.6162   -2.1405    0.5771 H   0  0  0  0  0  0  0  0  0  0  0  0
    2.1170   -0.5994   -2.6719 H   0  0  0  0  0  0  0  0  0  0  0  0
    1.3136   -0.5179   -1.0988 H   0  0  0  0  0  0  0  0  0  0  0  0
    1.8639   -2.1017   -1.7742 H   0  0  0  0  0  0  0  0  0  0  0  0
    5.5794   -0.6547    0.0119 H   0  0  0  0  0  0  0  0  0  0  0  0
    7.3457    0.0947    1.0507 H   0  0  0  0  0  0  0  0  0  0  0  0
    7.9908    0.2500    2.6703 H   0  0  0  0  0  0  0  0  0  0  0  0
    6.0340    1.3769    3.5388 H   0  0  0  0  0  0  0  0  0  0  0  0
    5.2348    1.2702    1.9728 H   0  0  0  0  0  0  0  0  0  0  0  0
    8.2429    2.5713    3.6146 H   0  0  0  0  0  0  0  0  0  0  0  0
    9.3063    2.9531    0.7442 H   0  0  0  0  0  0  0  0  0  0  0  0
    9.3019    1.3987    1.5691 H   0  0  0  0  0  0  0  0  0  0  0  0
   10.2654    2.7155    2.2138 H   0  0  0  0  0  0  0  0  0  0  0  0
    9.1112    4.9372    2.2086 H   0  0  0  0  0  0  0  0  0  0  0  0
    8.1937    4.8359    3.7137 H   0  0  0  0  0  0  0  0  0  0  0  0
    7.1811    5.1299    0.8869 H   0  0  0  0  0  0  0  0  0  0  0  0
    6.6149    5.9434    2.3505 H   0  0  0  0  0  0  0  0  0  0  0  0
    5.2390    3.8625    1.3333 H   0  0  0  0  0  0  0  0  0  0  0  0
    5.8920    3.9152    4.3384 H   0  0  0  0  0  0  0  0  0  0  0  0
    4.4281    3.2660    3.5727 H   0  0  0  0  0  0  0  0  0  0  0  0
    4.7580    4.9976    3.5244 H   0  0  0  0  0  0  0  0  0  0  0  0
    7.9709   -1.1155    4.6167 H   0  0  0  0  0  0  0  0  0  0  0  0
   10.3370   -1.6674    4.7731 H   0  0  0  0  0  0  0  0  0  0  0  0
   13.4069   -3.8519    2.4988 H   0  0  0  0  0  0  0  0  0  0  0  0
   12.0719   -7.5795    2.2808 H   0  0  0  0  0  0  0  0  0  0  0  0
   14.9648   -8.4043   -1.1335 H   0  0  0  0  0  0  0  0  0  0  0  0
   15.8092   -6.8189   -1.1355 H   0  0  0  0  0  0  0  0  0  0  0  0
   14.2999   -7.0469   -2.0813 H   0  0  0  0  0  0  0  0  0  0  0  0
   13.9399   -4.7717   -0.3898 H   0  0  0  0  0  0  0  0  0  0  0  0
    7.6711   -3.4833    1.0353 H   0  0  0  0  0  0  0  0  0  0  0  0
    4.5342   -2.6216    3.6958 H   0  0  0  0  0  0  0  0  0  0  0  0
  1  2  1  0  0  0  0
  1 37  1  0  0  0  0
  1 38  1  0  0  0  0
  1 39  1  0  0  0  0
  2  3  1  0  0  0  0
  3  4  1  0  0  0  0
  3 36  2  0  0  0  0
  4  5  2  0  0  0  0
  4 40  1  0  0  0  0
  5  6  1  0  0  0  0
  5  8  1  0  0  0  0
  6  7  1  0  0  0  0
  7 41  1  0  0  0  0
  7 42  1  0  0  0  0
  7 43  1  0  0  0  0
  8  9  2  0  0  0  0
  8 44  1  0  0  0  0
  9 10  1  0  0  0  0
  9 36  1  0  0  0  0
 10 11  1  0  0  0  0
 10 20  1  0  0  0  0
 11 12  1  0  0  0  0
 11 45  1  0  0  0  0
 11 46  1  0  0  0  0
 12 13  1  0  0  0  0
 12 47  1  0  0  0  0
 12 48  1  0  0  0  0
 13 14  1  0  0  0  0
 13 18  1  0  0  0  0
 14 15  1  0  0  0  0
 14 16  1  0  0  0  0
 14 49  1  1  0  0  0
 15 50  1  0  0  0  0
 15 51  1  0  0  0  0
 15 52  1  0  0  0  0
 16 17  1  0  0  0  0
 16 53  1  0  0  0  0
 16 54  1  0  0  0  0
 17 18  1  0  0  0  0
 17 55  1  0  0  0  0
 17 56  1  0  0  0  0
 18 19  1  0  0  0  0
 18 57  1  6  0  0  0
 19 58  1  0  0  0  0
 19 59  1  0  0  0  0
 19 60  1  0  0  0  0
 20 21  1  0  0  0  0
 20 35  2  0  0  0  0
 21 22  2  0  0  0  0
 21 61  1  0  0  0  0
 22 23  1  0  0  0  0
 22 62  1  0  0  0  0
 23 24  1  0  0  0  0
 23 34  2  0  0  0  0
 24 25  2  0  0  0  0
 25 26  1  0  0  0  0
 25 63  1  0  0  0  0
 26 27  1  0  0  0  0
 26 33  2  0  0  0  0
 27 28  1  0  0  0  0
 27 32  2  0  0  0  0
 28 29  2  0  0  0  0
 28 64  1  0  0  0  0
 29 30  1  0  0  0  0
 30 31  1  0  0  0  0
 30 32  1  0  0  0  0
 31 65  1  0  0  0  0
 31 66  1  0  0  0  0
 31 67  1  0  0  0  0
 32 68  1  0  0  0  0
 33 34  1  0  0  0  0
 34 35  1  0  0  0  0
 35 69  1  0  0  0  0
 36 70  1  0  0  0  0
M  END
$$$$
