CHEMBL3919173
 OpenBabel04072215373D

 65 68  0  0  0  0  0  0  0  0999 V2000
    0.6852    0.5901    4.0468 C   0  0  0  0  0  0  0  0  0  0  0  0
    2.0222    1.0872    4.1783 O   0  0  0  0  0  0  0  0  0  0  0  0
    2.9408    0.6560    3.2494 C   0  0  0  0  0  0  0  0  0  0  0  0
    2.6341   -0.2315    2.2139 C   0  0  0  0  0  0  0  0  0  0  0  0
    3.6023   -0.5387    1.2637 C   0  0  0  0  0  0  0  0  0  0  0  0
    3.4127   -1.3531    0.1765 O   0  0  0  0  0  0  0  0  0  0  0  0
    2.1641   -2.0343    0.0903 C   0  0  0  0  0  0  0  0  0  0  0  0
    4.8844    0.0268    1.3611 C   0  0  0  0  0  0  0  0  0  0  0  0
    5.2640    0.8879    2.4111 C   0  0  0  0  0  0  0  0  0  0  0  0
    6.5298    1.5365    2.4163 N   0  0  0  0  0  0  0  0  0  0  0  0
    7.0840    1.9691    1.0515 C   0  0  0  0  0  0  0  0  0  0  0  0
    6.2008    2.8021    0.0727 C   0  0  0  0  0  0  0  0  0  0  0  0
    5.9117    4.2216    0.3906 N   0  0  0  0  0  0  0  0  0  0  0  0
    7.0747    5.4181    0.3578 S   0  0  0  0  0  0  0  0  0  0  0  0
    6.3888    6.6806    0.4892 O   0  0  0  0  0  0  0  0  0  0  0  0
    8.1145    5.0448    1.2836 O   0  0  0  0  0  0  0  0  0  0  0  0
    7.7253    5.3262   -1.2051 N   0  0  0  0  0  0  0  0  0  0  0  0
    6.8348    5.7931   -2.2963 C   0  0  0  0  0  0  0  0  0  0  0  0
    9.0479    6.0102   -1.3029 C   0  0  0  0  0  0  0  0  0  0  0  0
    7.5811    1.6233    3.4248 C   0  0  0  0  0  0  0  0  0  0  0  0
    8.0845    2.9008    3.5562 C   0  0  0  0  0  0  0  0  0  0  0  0
    9.4059    3.0980    3.8856 C   0  0  0  0  0  0  0  0  0  0  0  0
   10.2121    2.1047    4.3488 C   0  0  0  0  0  0  0  0  0  0  0  0
   11.4593    2.5521    4.4607 N   0  0  0  0  0  0  0  0  0  0  0  0
   12.3216    1.8044    5.1253 C   0  0  0  0  0  0  0  0  0  0  0  0
   11.9826    0.6222    5.7331 C   0  0  0  0  0  0  0  0  0  0  0  0
   13.0936    0.1337    6.6265 C   0  0  0  0  0  0  0  0  0  0  0  0
   13.3602    0.4276    8.0107 C   0  0  0  0  0  0  0  0  0  0  0  0
   14.6595    0.3286    8.3578 N   0  0  0  0  0  0  0  0  0  0  0  0
   15.2726    0.0535    7.1974 N   0  0  0  0  0  0  0  0  0  0  0  0
   16.7123   -0.0943    7.1452 C   0  0  0  0  0  0  0  0  0  0  0  0
   14.3982   -0.0053    6.1405 C   0  0  0  0  0  0  0  0  0  0  0  0
   10.7107    0.0705    5.4988 N   0  0  0  0  0  0  0  0  0  0  0  0
    9.7525    0.8270    4.7035 C   0  0  0  0  0  0  0  0  0  0  0  0
    8.3526    0.5967    4.0980 C   0  0  0  0  0  0  0  0  0  0  0  0
    4.2550    1.1920    3.3525 C   0  0  0  0  0  0  0  0  0  0  0  0
    0.0564    1.0804    4.7941 H   0  0  0  0  0  0  0  0  0  0  0  0
    0.6478   -0.4898    4.2385 H   0  0  0  0  0  0  0  0  0  0  0  0
    0.2558    0.8237    3.0646 H   0  0  0  0  0  0  0  0  0  0  0  0
    1.6421   -0.6548    2.1300 H   0  0  0  0  0  0  0  0  0  0  0  0
    2.1898   -2.6760   -0.7952 H   0  0  0  0  0  0  0  0  0  0  0  0
    1.3349   -1.3293   -0.0361 H   0  0  0  0  0  0  0  0  0  0  0  0
    2.0035   -2.6774    0.9630 H   0  0  0  0  0  0  0  0  0  0  0  0
    5.5940   -0.2275    0.5795 H   0  0  0  0  0  0  0  0  0  0  0  0
    7.3714    1.0514    0.5258 H   0  0  0  0  0  0  0  0  0  0  0  0
    8.0230    2.5200    1.1541 H   0  0  0  0  0  0  0  0  0  0  0  0
    5.2308    2.3213   -0.0932 H   0  0  0  0  0  0  0  0  0  0  0  0
    6.6905    2.7926   -0.9107 H   0  0  0  0  0  0  0  0  0  0  0  0
    5.3130    4.3351    1.2088 H   0  0  0  0  0  0  0  0  0  0  0  0
    5.9142    5.2081   -2.3269 H   0  0  0  0  0  0  0  0  0  0  0  0
    7.3330    5.6557   -3.2643 H   0  0  0  0  0  0  0  0  0  0  0  0
    6.5978    6.8585   -2.1985 H   0  0  0  0  0  0  0  0  0  0  0  0
    9.7635    5.5674   -0.6061 H   0  0  0  0  0  0  0  0  0  0  0  0
    8.9534    7.0833   -1.1022 H   0  0  0  0  0  0  0  0  0  0  0  0
    9.4668    5.8860   -2.3089 H   0  0  0  0  0  0  0  0  0  0  0  0
    7.5205    3.7502    3.1943 H   0  0  0  0  0  0  0  0  0  0  0  0
    9.8364    4.0834    3.7239 H   0  0  0  0  0  0  0  0  0  0  0  0
   13.3094    2.2424    5.2004 H   0  0  0  0  0  0  0  0  0  0  0  0
   12.6805    0.8189    8.7578 H   0  0  0  0  0  0  0  0  0  0  0  0
   17.1544    0.0723    8.1338 H   0  0  0  0  0  0  0  0  0  0  0  0
   17.1346    0.6231    6.4353 H   0  0  0  0  0  0  0  0  0  0  0  0
   16.9264   -1.1153    6.8186 H   0  0  0  0  0  0  0  0  0  0  0  0
   14.7872   -0.0388    5.1318 H   0  0  0  0  0  0  0  0  0  0  0  0
    7.9360   -0.4120    4.1546 H   0  0  0  0  0  0  0  0  0  0  0  0
    4.4533    1.9150    4.1414 H   0  0  0  0  0  0  0  0  0  0  0  0
  1  2  1  0  0  0  0
  1 37  1  0  0  0  0
  1 38  1  0  0  0  0
  1 39  1  0  0  0  0
  2  3  1  0  0  0  0
  3  4  1  0  0  0  0
  3 36  2  0  0  0  0
  4  5  2  0  0  0  0
  4 40  1  0  0  0  0
  5  6  1  0  0  0  0
  5  8  1  0  0  0  0
  6  7  1  0  0  0  0
  7 41  1  0  0  0  0
  7 42  1  0  0  0  0
  7 43  1  0  0  0  0
  8  9  2  0  0  0  0
  8 44  1  0  0  0  0
  9 10  1  0  0  0  0
  9 36  1  0  0  0  0
 10 11  1  0  0  0  0
 10 20  1  0  0  0  0
 11 12  1  0  0  0  0
 11 45  1  0  0  0  0
 11 46  1  0  0  0  0
 12 13  1  0  0  0  0
 12 47  1  0  0  0  0
 12 48  1  0  0  0  0
 13 14  1  0  0  0  0
 13 49  1  0  0  0  0
 14 15  2  0  0  0  0
 14 16  2  0  0  0  0
 14 17  1  0  0  0  0
 17 18  1  0  0  0  0
 17 19  1  0  0  0  0
 18 50  1  0  0  0  0
 18 51  1  0  0  0  0
 18 52  1  0  0  0  0
 19 53  1  0  0  0  0
 19 54  1  0  0  0  0
 19 55  1  0  0  0  0
 20 21  1  0  0  0  0
 20 35  2  0  0  0  0
 21 22  2  0  0  0  0
 21 56  1  0  0  0  0
 22 23  1  0  0  0  0
 22 57  1  0  0  0  0
 23 24  1  0  0  0  0
 23 34  2  0  0  0  0
 24 25  2  0  0  0  0
 25 26  1  0  0  0  0
 25 58  1  0  0  0  0
 26 27  1  0  0  0  0
 26 33  2  0  0  0  0
 27 28  1  0  0  0  0
 27 32  2  0  0  0  0
 28 29  2  0  0  0  0
 28 59  1  0  0  0  0
 29 30  1  0  0  0  0
 30 31  1  0  0  0  0
 30 32  1  0  0  0  0
 31 60  1  0  0  0  0
 31 61  1  0  0  0  0
 31 62  1  0  0  0  0
 32 63  1  0  0  0  0
 33 34  1  0  0  0  0
 34 35  1  0  0  0  0
 35 64  1  0  0  0  0
 36 65  1  0  0  0  0
M  END
$$$$
