CHEMBL3542344
 OpenBabel04072215363D

 50 52  0  0  0  0  0  0  0  0999 V2000
    4.9789    0.4786    2.5353 C   0  0  0  0  0  0  0  0  0  0  0  0
    4.4343   -0.8361    1.9979 C   0  0  0  0  0  0  0  0  0  0  0  0
    4.9787   -1.0933    0.6666 N   0  0  0  0  0  0  0  0  0  0  0  0
    4.4730   -2.3590    0.1192 C   0  0  0  0  0  0  0  0  0  0  0  0
    5.0445   -2.6300   -1.2789 C   0  0  0  0  0  0  0  0  0  0  0  0
    6.4861   -2.7384   -1.2872 N   0  0  0  0  0  0  0  0  0  0  0  0
    7.1302   -3.5139   -2.2170 C   0  0  0  0  0  0  0  0  0  0  0  0
    6.5195   -4.1792   -3.0549 O   0  0  0  0  0  0  0  0  0  0  0  0
    8.5907   -3.4737   -2.1675 C   0  0  0  0  0  0  0  0  0  0  0  0
    9.4065   -3.2379   -1.0648 C   0  0  0  0  0  0  0  0  0  0  0  0
    9.1397   -3.0005    0.3753 C   0  0  0  0  0  0  0  0  0  0  0  0
   10.7119   -3.3150   -1.4884 N   0  0  0  0  0  0  0  0  0  0  0  0
   10.7746   -3.6132   -2.8208 C   0  0  0  0  0  0  0  0  0  0  0  0
   12.0062   -3.7656   -3.5018 C   0  0  0  0  0  0  0  0  0  0  0  0
   13.2624   -3.6657   -3.0450 C   0  0  0  0  0  0  0  0  0  0  0  0
   13.8412   -3.3700   -1.6874 C   0  0  0  0  0  0  0  0  0  0  0  0
   13.2373   -3.1424   -0.6447 O   0  0  0  0  0  0  0  0  0  0  0  0
   15.2169   -3.4052   -1.8554 N   0  0  0  0  0  0  0  0  0  0  0  0
   15.5592   -3.6871   -3.1762 C   0  0  0  0  0  0  0  0  0  0  0  0
   16.8252   -3.7936   -3.7175 C   0  0  0  0  0  0  0  0  0  0  0  0
   16.9170   -4.0810   -5.0844 C   0  0  0  0  0  0  0  0  0  0  0  0
   15.7600   -4.2497   -5.8557 C   0  0  0  0  0  0  0  0  0  0  0  0
   15.8723   -4.5197   -7.1636 F   0  0  0  0  0  0  0  0  0  0  0  0
   14.4916   -4.1406   -5.2996 C   0  0  0  0  0  0  0  0  0  0  0  0
   14.4069   -3.8571   -3.9480 C   0  0  0  0  0  0  0  0  0  0  0  0
    9.4694   -3.7240   -3.2810 C   0  0  0  0  0  0  0  0  0  0  0  0
    9.0254   -4.0381   -4.6749 C   0  0  0  0  0  0  0  0  0  0  0  0
    4.5675    0.6769    3.5303 H   0  0  0  0  0  0  0  0  0  0  0  0
    4.7058    1.3167    1.8851 H   0  0  0  0  0  0  0  0  0  0  0  0
    6.0705    0.4525    2.6218 H   0  0  0  0  0  0  0  0  0  0  0  0
    3.3412   -0.7748    1.9534 H   0  0  0  0  0  0  0  0  0  0  0  0
    4.7044   -1.6446    2.6867 H   0  0  0  0  0  0  0  0  0  0  0  0
    5.9960   -1.1199    0.7139 H   0  0  0  0  0  0  0  0  0  0  0  0
    3.3788   -2.3232    0.0501 H   0  0  0  0  0  0  0  0  0  0  0  0
    4.7393   -3.1911    0.7843 H   0  0  0  0  0  0  0  0  0  0  0  0
    4.7579   -1.8298   -1.9727 H   0  0  0  0  0  0  0  0  0  0  0  0
    4.6362   -3.5672   -1.6699 H   0  0  0  0  0  0  0  0  0  0  0  0
    7.0412   -2.1038   -0.7320 H   0  0  0  0  0  0  0  0  0  0  0  0
    8.0779   -3.0178    0.6212 H   0  0  0  0  0  0  0  0  0  0  0  0
    9.5436   -2.0308    0.6818 H   0  0  0  0  0  0  0  0  0  0  0  0
    9.6138   -3.7803    0.9788 H   0  0  0  0  0  0  0  0  0  0  0  0
   11.5147   -3.1986   -0.8770 H   0  0  0  0  0  0  0  0  0  0  0  0
   11.8865   -3.9993   -4.5548 H   0  0  0  0  0  0  0  0  0  0  0  0
   15.8664   -3.2399   -1.1008 H   0  0  0  0  0  0  0  0  0  0  0  0
   17.7194   -3.6601   -3.1190 H   0  0  0  0  0  0  0  0  0  0  0  0
   17.8860   -4.1759   -5.5676 H   0  0  0  0  0  0  0  0  0  0  0  0
   13.6183   -4.2735   -5.9250 H   0  0  0  0  0  0  0  0  0  0  0  0
    9.8667   -4.1885   -5.3574 H   0  0  0  0  0  0  0  0  0  0  0  0
    8.4237   -3.2161   -5.0758 H   0  0  0  0  0  0  0  0  0  0  0  0
    8.4281   -4.9549   -4.6932 H   0  0  0  0  0  0  0  0  0  0  0  0
  1  2  1  0  0  0  0
  1 28  1  0  0  0  0
  1 29  1  0  0  0  0
  1 30  1  0  0  0  0
  2  3  1  0  0  0  0
  2 31  1  0  0  0  0
  2 32  1  0  0  0  0
  3  4  1  0  0  0  0
  3 33  1  0  0  0  0
  4  5  1  0  0  0  0
  4 34  1  0  0  0  0
  4 35  1  0  0  0  0
  5  6  1  0  0  0  0
  5 36  1  0  0  0  0
  5 37  1  0  0  0  0
  6  7  1  0  0  0  0
  6 38  1  0  0  0  0
  7  8  2  0  0  0  0
  7  9  1  0  0  0  0
  9 10  2  0  0  0  0
  9 26  1  0  0  0  0
 10 11  1  0  0  0  0
 10 12  1  0  0  0  0
 11 39  1  0  0  0  0
 11 40  1  0  0  0  0
 11 41  1  0  0  0  0
 12 13  1  0  0  0  0
 12 42  1  0  0  0  0
 13 14  1  0  0  0  0
 13 26  2  0  0  0  0
 14 15  2  0  0  0  0
 14 43  1  0  0  0  0
 15 16  1  0  0  0  0
 15 25  1  0  0  0  0
 16 17  2  0  0  0  0
 16 18  1  0  0  0  0
 18 19  1  0  0  0  0
 18 44  1  0  0  0  0
 19 20  1  0  0  0  0
 19 25  2  0  0  0  0
 20 21  2  0  0  0  0
 20 45  1  0  0  0  0
 21 22  1  0  0  0  0
 21 46  1  0  0  0  0
 22 23  1  0  0  0  0
 22 24  2  0  0  0  0
 24 25  1  0  0  0  0
 24 47  1  0  0  0  0
 26 27  1  0  0  0  0
 27 48  1  0  0  0  0
 27 49  1  0  0  0  0
 27 50  1  0  0  0  0
M  END
$$$$
