CHEMBL1242109
 OpenBabel04072215363D

 41 43  0  0  1  0  0  0  0  0999 V2000
    2.9142   -0.7775    1.6063 C   0  0  0  0  0  0  0  0  0  0  0  0
    2.5018   -0.2122    0.2526 C   0  0  0  0  0  0  0  0  0  0  0  0
    3.0870   -0.9922   -0.9400 C   0  0  3  0  0  0  0  0  0  0  0  0
    2.5607   -0.4299   -2.2632 C   0  0  0  0  0  0  0  0  0  0  0  0
    4.5449   -1.0160   -0.9391 N   0  0  0  0  0  0  0  0  0  0  0  0
    5.2400    0.1380   -0.9667 N   0  0  0  0  0  0  0  0  0  0  0  0
    6.5301   -0.2421   -0.8953 C   0  0  0  0  0  0  0  0  0  0  0  0
    7.5824    0.7756   -0.8670 C   0  0  0  0  0  0  0  0  0  0  0  0
    7.4390    1.9642   -1.5943 C   0  0  0  0  0  0  0  0  0  0  0  0
    8.4516    2.9313   -1.5946 C   0  0  0  0  0  0  0  0  0  0  0  0
    9.6387    2.7238   -0.8789 C   0  0  0  0  0  0  0  0  0  0  0  0
   10.7129    3.7711   -0.8996 C   0  0  0  0  0  0  0  0  0  0  0  0
    9.7690    1.5395   -0.1490 C   0  0  0  0  0  0  0  0  0  0  0  0
   10.8930    1.2218    0.5598 O   0  0  0  0  0  0  0  0  0  0  0  0
    8.7426    0.5964   -0.1101 C   0  0  0  0  0  0  0  0  0  0  0  0
    6.6479   -1.6733   -0.8852 C   0  0  0  0  0  0  0  0  0  0  0  0
    7.6435   -2.6635   -0.8586 C   0  0  0  0  0  0  0  0  0  0  0  0
    9.0102   -2.4396   -0.8420 N   0  0  0  0  0  0  0  0  0  0  0  0
    7.2711   -3.9612   -0.8573 N   0  0  0  0  0  0  0  0  0  0  0  0
    5.9589   -4.2582   -0.8823 C   0  0  0  0  0  0  0  0  0  0  0  0
    4.9242   -3.4085   -0.9131 N   0  0  0  0  0  0  0  0  0  0  0  0
    5.3370   -2.1308   -0.9140 C   0  0  0  0  0  0  0  0  0  0  0  0
    2.4589   -0.1910    2.4111 H   0  0  0  0  0  0  0  0  0  0  0  0
    3.9988   -0.7426    1.7451 H   0  0  0  0  0  0  0  0  0  0  0  0
    2.5845   -1.8156    1.7153 H   0  0  0  0  0  0  0  0  0  0  0  0
    2.7988    0.8420    0.2030 H   0  0  0  0  0  0  0  0  0  0  0  0
    1.4063   -0.2332    0.1920 H   0  0  0  0  0  0  0  0  0  0  0  0
    2.7500   -2.0351   -0.8635 H   0  0  0  0  0  0  0  0  0  0  0  0
    2.8256    0.6260   -2.3829 H   0  0  0  0  0  0  0  0  0  0  0  0
    1.4700   -0.5110   -2.3139 H   0  0  0  0  0  0  0  0  0  0  0  0
    2.9800   -0.9758   -3.1153 H   0  0  0  0  0  0  0  0  0  0  0  0
    6.5293    2.1489   -2.1646 H   0  0  0  0  0  0  0  0  0  0  0  0
    8.2996    3.8474   -2.1613 H   0  0  0  0  0  0  0  0  0  0  0  0
   10.4132    4.6482   -1.4815 H   0  0  0  0  0  0  0  0  0  0  0  0
   11.6269    3.3680   -1.3477 H   0  0  0  0  0  0  0  0  0  0  0  0
   10.9266    4.1090    0.1200 H   0  0  0  0  0  0  0  0  0  0  0  0
   11.5589    1.9155    0.4403 H   0  0  0  0  0  0  0  0  0  0  0  0
    8.8672   -0.2768    0.5239 H   0  0  0  0  0  0  0  0  0  0  0  0
    9.3347   -1.6054   -1.3121 H   0  0  0  0  0  0  0  0  0  0  0  0
    9.5262   -3.2897   -1.0345 H   0  0  0  0  0  0  0  0  0  0  0  0
    5.7138   -5.3149   -0.8791 H   0  0  0  0  0  0  0  0  0  0  0  0
  1  2  1  0  0  0  0
  1 23  1  0  0  0  0
  1 24  1  0  0  0  0
  1 25  1  0  0  0  0
  2  3  1  0  0  0  0
  2 26  1  0  0  0  0
  2 27  1  0  0  0  0
  3  4  1  0  0  0  0
  3  5  1  0  0  0  0
  3 28  1  0  0  0  0
  4 29  1  0  0  0  0
  4 30  1  0  0  0  0
  4 31  1  0  0  0  0
  5  6  1  0  0  0  0
  5 22  1  0  0  0  0
  6  7  2  0  0  0  0
  7  8  1  0  0  0  0
  7 16  1  0  0  0  0
  8  9  1  0  0  0  0
  8 15  2  0  0  0  0
  9 10  2  0  0  0  0
  9 32  1  0  0  0  0
 10 11  1  0  0  0  0
 10 33  1  0  0  0  0
 11 12  1  0  0  0  0
 11 13  2  0  0  0  0
 12 34  1  0  0  0  0
 12 35  1  0  0  0  0
 12 36  1  0  0  0  0
 13 14  1  0  0  0  0
 13 15  1  0  0  0  0
 14 37  1  0  0  0  0
 15 38  1  0  0  0  0
 16 17  1  0  0  0  0
 16 22  2  0  0  0  0
 17 18  1  0  0  0  0
 17 19  2  0  0  0  0
 18 39  1  0  0  0  0
 18 40  1  0  0  0  0
 19 20  1  0  0  0  0
 20 21  2  0  0  0  0
 20 41  1  0  0  0  0
 21 22  1  0  0  0  0
M  END
$$$$
