CHEMBL1278146
 OpenBabel04072215363D

 57 60  0  0  0  0  0  0  0  0999 V2000
    0.8763    2.5823   -2.6647 C   0  0  0  0  0  0  0  0  0  0  0  0
    2.3907    2.4891   -2.7594 C   0  0  0  0  0  0  0  0  0  0  0  0
    2.9166    1.7601   -3.9297 N   0  0  0  0  0  0  0  0  0  0  0  0
    2.4576    2.3161   -5.2190 C   0  0  0  0  0  0  0  0  0  0  0  0
    2.9195    3.7347   -5.5535 C   0  0  0  0  0  0  0  0  0  0  0  0
    4.3960    1.7459   -3.8726 C   0  0  0  0  0  0  0  0  0  0  0  0
    4.9851    1.0660   -2.6149 C   0  0  0  0  0  0  0  0  0  0  0  0
    6.4392    1.0975   -2.6014 N   0  0  0  0  0  0  0  0  0  0  0  0
    7.1333   -0.1966   -2.5338 C   0  0  0  0  0  0  0  0  0  0  0  0
    8.6703   -0.2110   -2.5482 C   0  0  0  0  0  0  0  0  0  0  0  0
    9.2180    1.1551   -2.5362 C   0  0  0  0  0  0  0  0  0  0  0  0
   10.5463    1.4579   -2.5490 N   0  0  0  0  0  0  0  0  0  0  0  0
   10.6976    2.8213   -2.5402 C   0  0  0  0  0  0  0  0  0  0  0  0
   11.9645    3.4367   -2.5461 C   0  0  0  0  0  0  0  0  0  0  0  0
   13.1855    2.8900   -2.5530 C   0  0  0  0  0  0  0  0  0  0  0  0
   13.6775    1.4645   -2.5674 C   0  0  0  0  0  0  0  0  0  0  0  0
   13.0214    0.4447   -2.5764 O   0  0  0  0  0  0  0  0  0  0  0  0
   15.0683    1.5666   -2.5695 N   0  0  0  0  0  0  0  0  0  0  0  0
   15.4766    2.8991   -2.5548 C   0  0  0  0  0  0  0  0  0  0  0  0
   16.7698    3.3876   -2.5494 C   0  0  0  0  0  0  0  0  0  0  0  0
   16.9301    4.7785   -2.5315 C   0  0  0  0  0  0  0  0  0  0  0  0
   15.8150    5.6271   -2.5174 C   0  0  0  0  0  0  0  0  0  0  0  0
   15.9935    6.9544   -2.4959 F   0  0  0  0  0  0  0  0  0  0  0  0
   14.5227    5.1260   -2.5222 C   0  0  0  0  0  0  0  0  0  0  0  0
   14.3724    3.7503   -2.5434 C   0  0  0  0  0  0  0  0  0  0  0  0
    9.4314    3.3967   -2.5245 C   0  0  0  0  0  0  0  0  0  0  0  0
    9.0820    4.8484   -2.5295 C   0  0  0  0  0  0  0  0  0  0  0  0
    8.4973    2.3232   -2.5095 C   0  0  0  0  0  0  0  0  0  0  0  0
    7.0511    2.3480   -2.4893 C   0  0  0  0  0  0  0  0  0  0  0  0
    6.4270    3.4025   -2.4043 O   0  0  0  0  0  0  0  0  0  0  0  0
    0.6006    2.8720   -1.6444 H   0  0  0  0  0  0  0  0  0  0  0  0
    0.4028    1.6186   -2.8749 H   0  0  0  0  0  0  0  0  0  0  0  0
    0.4758    3.3385   -3.3446 H   0  0  0  0  0  0  0  0  0  0  0  0
    2.6912    1.9574   -1.8522 H   0  0  0  0  0  0  0  0  0  0  0  0
    2.8234    3.4941   -2.6918 H   0  0  0  0  0  0  0  0  0  0  0  0
    1.3631    2.2915   -5.2548 H   0  0  0  0  0  0  0  0  0  0  0  0
    2.7736    1.6460   -6.0309 H   0  0  0  0  0  0  0  0  0  0  0  0
    2.8375    4.4063   -4.6953 H   0  0  0  0  0  0  0  0  0  0  0  0
    2.2948    4.1500   -6.3501 H   0  0  0  0  0  0  0  0  0  0  0  0
    3.9577    3.7488   -5.9031 H   0  0  0  0  0  0  0  0  0  0  0  0
    4.7604    2.7758   -3.9300 H   0  0  0  0  0  0  0  0  0  0  0  0
    4.7999    1.2303   -4.7541 H   0  0  0  0  0  0  0  0  0  0  0  0
    4.6425    0.0264   -2.5532 H   0  0  0  0  0  0  0  0  0  0  0  0
    4.6691    1.5714   -1.6965 H   0  0  0  0  0  0  0  0  0  0  0  0
    6.7668   -0.7957   -3.3760 H   0  0  0  0  0  0  0  0  0  0  0  0
    6.7869   -0.6936   -1.6190 H   0  0  0  0  0  0  0  0  0  0  0  0
    9.0237   -0.7513   -3.4340 H   0  0  0  0  0  0  0  0  0  0  0  0
    9.0344   -0.7652   -1.6748 H   0  0  0  0  0  0  0  0  0  0  0  0
   11.3014    0.7770   -2.5637 H   0  0  0  0  0  0  0  0  0  0  0  0
   11.9103    4.5205   -2.5371 H   0  0  0  0  0  0  0  0  0  0  0  0
   15.6711    0.7649   -2.5772 H   0  0  0  0  0  0  0  0  0  0  0  0
   17.6283    2.7285   -2.5565 H   0  0  0  0  0  0  0  0  0  0  0  0
   17.9210    5.2220   -2.5258 H   0  0  0  0  0  0  0  0  0  0  0  0
   13.6820    5.8077   -2.5088 H   0  0  0  0  0  0  0  0  0  0  0  0
    9.9662    5.4920   -2.5353 H   0  0  0  0  0  0  0  0  0  0  0  0
    8.4978    5.1046   -1.6403 H   0  0  0  0  0  0  0  0  0  0  0  0
    8.4948    5.0960   -3.4200 H   0  0  0  0  0  0  0  0  0  0  0  0
  1  2  1  0  0  0  0
  1 31  1  0  0  0  0
  1 32  1  0  0  0  0
  1 33  1  0  0  0  0
  2  3  1  0  0  0  0
  2 34  1  0  0  0  0
  2 35  1  0  0  0  0
  3  4  1  0  0  0  0
  3  6  1  0  0  0  0
  4  5  1  0  0  0  0
  4 36  1  0  0  0  0
  4 37  1  0  0  0  0
  5 38  1  0  0  0  0
  5 39  1  0  0  0  0
  5 40  1  0  0  0  0
  6  7  1  0  0  0  0
  6 41  1  0  0  0  0
  6 42  1  0  0  0  0
  7  8  1  0  0  0  0
  7 43  1  0  0  0  0
  7 44  1  0  0  0  0
  8  9  1  0  0  0  0
  8 29  1  0  0  0  0
  9 10  1  0  0  0  0
  9 45  1  0  0  0  0
  9 46  1  0  0  0  0
 10 11  1  0  0  0  0
 10 47  1  0  0  0  0
 10 48  1  0  0  0  0
 11 12  1  0  0  0  0
 11 28  2  0  0  0  0
 12 13  1  0  0  0  0
 12 49  1  0  0  0  0
 13 14  1  0  0  0  0
 13 26  2  0  0  0  0
 14 15  2  0  0  0  0
 14 50  1  0  0  0  0
 15 16  1  0  0  0  0
 15 25  1  0  0  0  0
 16 17  2  0  0  0  0
 16 18  1  0  0  0  0
 18 19  1  0  0  0  0
 18 51  1  0  0  0  0
 19 20  1  0  0  0  0
 19 25  2  0  0  0  0
 20 21  2  0  0  0  0
 20 52  1  0  0  0  0
 21 22  1  0  0  0  0
 21 53  1  0  0  0  0
 22 23  1  0  0  0  0
 22 24  2  0  0  0  0
 24 25  1  0  0  0  0
 24 54  1  0  0  0  0
 26 27  1  0  0  0  0
 26 28  1  0  0  0  0
 27 55  1  0  0  0  0
 27 56  1  0  0  0  0
 27 57  1  0  0  0  0
 28 29  1  0  0  0  0
 29 30  2  0  0  0  0
M  END
$$$$
