CHEMBL3897858
 OpenBabel04072215373D

 53 56  0  0  0  0  0  0  0  0999 V2000
   10.5322    1.6205   -6.5876 C   0  0  0  0  0  0  0  0  0  0  0  0
    9.2795    0.9434   -6.4898 O   0  0  0  0  0  0  0  0  0  0  0  0
    8.4288    1.4176   -5.5290 C   0  0  0  0  0  0  0  0  0  0  0  0
    8.3677    2.7402   -5.1098 C   0  0  0  0  0  0  0  0  0  0  0  0
    7.4496    3.0928   -4.1312 C   0  0  0  0  0  0  0  0  0  0  0  0
    7.3943    4.3673   -3.7210 F   0  0  0  0  0  0  0  0  0  0  0  0
    6.5900    2.1556   -3.5576 C   0  0  0  0  0  0  0  0  0  0  0  0
    6.6155    0.8176   -3.9670 C   0  0  0  0  0  0  0  0  0  0  0  0
    5.7905   -0.1756   -3.3807 N   0  0  0  0  0  0  0  0  0  0  0  0
    4.4087    0.2045   -2.9709 C   0  0  0  0  0  0  0  0  0  0  0  0
    4.0695   -0.1628   -1.5095 C   0  0  0  0  0  0  0  0  0  0  0  0
    4.8724    0.5448   -0.5700 O   0  0  0  0  0  0  0  0  0  0  0  0
    6.1701   -1.5211   -3.1483 C   0  0  0  0  0  0  0  0  0  0  0  0
    5.2670   -2.5811   -3.2780 C   0  0  0  0  0  0  0  0  0  0  0  0
    5.6102   -3.8706   -2.8655 C   0  0  0  0  0  0  0  0  0  0  0  0
    6.8610   -4.1402   -2.3442 C   0  0  0  0  0  0  0  0  0  0  0  0
    7.1337   -5.3810   -1.9065 N   0  0  0  0  0  0  0  0  0  0  0  0
    8.3817   -5.5776   -1.4214 C   0  0  0  0  0  0  0  0  0  0  0  0
    9.3432   -4.5794   -1.3805 C   0  0  0  0  0  0  0  0  0  0  0  0
   10.6926   -4.8325   -0.9196 C   0  0  0  0  0  0  0  0  0  0  0  0
   11.3238   -6.0168   -0.4758 C   0  0  0  0  0  0  0  0  0  0  0  0
   12.6108   -5.8340   -0.1679 N   0  0  0  0  0  0  0  0  0  0  0  0
   12.8124   -4.5260   -0.4168 N   0  0  0  0  0  0  0  0  0  0  0  0
   14.1309   -3.9467   -0.2386 C   0  0  0  0  0  0  0  0  0  0  0  0
   15.1804   -4.6013   -1.1270 C   0  0  0  0  0  0  0  0  0  0  0  0
   14.9150   -4.3801   -2.5104 O   0  0  0  0  0  0  0  0  0  0  0  0
   11.6946   -3.8837   -0.8610 C   0  0  0  0  0  0  0  0  0  0  0  0
    9.0586   -3.3235   -1.8004 N   0  0  0  0  0  0  0  0  0  0  0  0
    7.8198   -3.1022   -2.2784 C   0  0  0  0  0  0  0  0  0  0  0  0
    7.4564   -1.8226   -2.6781 C   0  0  0  0  0  0  0  0  0  0  0  0
    7.5418    0.4797   -4.9773 C   0  0  0  0  0  0  0  0  0  0  0  0
   11.1570    1.0733   -7.3007 H   0  0  0  0  0  0  0  0  0  0  0  0
   11.0507    1.6259   -5.6223 H   0  0  0  0  0  0  0  0  0  0  0  0
   10.4125    2.6375   -6.9737 H   0  0  0  0  0  0  0  0  0  0  0  0
    8.9996    3.5152   -5.5249 H   0  0  0  0  0  0  0  0  0  0  0  0
    5.9363    2.4983   -2.7624 H   0  0  0  0  0  0  0  0  0  0  0  0
    3.6888   -0.2803   -3.6415 H   0  0  0  0  0  0  0  0  0  0  0  0
    4.2283    1.2775   -3.0941 H   0  0  0  0  0  0  0  0  0  0  0  0
    4.1610   -1.2324   -1.2978 H   0  0  0  0  0  0  0  0  0  0  0  0
    3.0268    0.1013   -1.3098 H   0  0  0  0  0  0  0  0  0  0  0  0
    5.7033    0.0425   -0.4829 H   0  0  0  0  0  0  0  0  0  0  0  0
    4.2736   -2.4276   -3.6885 H   0  0  0  0  0  0  0  0  0  0  0  0
    4.8795   -4.6694   -2.9334 H   0  0  0  0  0  0  0  0  0  0  0  0
    8.5752   -6.5845   -1.0720 H   0  0  0  0  0  0  0  0  0  0  0  0
   10.9080   -7.0107   -0.3719 H   0  0  0  0  0  0  0  0  0  0  0  0
   14.3877   -4.0620    0.8201 H   0  0  0  0  0  0  0  0  0  0  0  0
   14.0527   -2.8788   -0.4670 H   0  0  0  0  0  0  0  0  0  0  0  0
   15.2637   -5.6799   -0.9540 H   0  0  0  0  0  0  0  0  0  0  0  0
   16.1596   -4.1579   -0.9144 H   0  0  0  0  0  0  0  0  0  0  0  0
   14.1706   -4.9650   -2.7481 H   0  0  0  0  0  0  0  0  0  0  0  0
   11.6977   -2.8307   -1.1095 H   0  0  0  0  0  0  0  0  0  0  0  0
    8.1907   -1.0278   -2.5678 H   0  0  0  0  0  0  0  0  0  0  0  0
    7.5844   -0.5419   -5.3541 H   0  0  0  0  0  0  0  0  0  0  0  0
  1  2  1  0  0  0  0
  1 32  1  0  0  0  0
  1 33  1  0  0  0  0
  1 34  1  0  0  0  0
  2  3  1  0  0  0  0
  3  4  1  0  0  0  0
  3 31  2  0  0  0  0
  4  5  2  0  0  0  0
  4 35  1  0  0  0  0
  5  6  1  0  0  0  0
  5  7  1  0  0  0  0
  7  8  2  0  0  0  0
  7 36  1  0  0  0  0
  8  9  1  0  0  0  0
  8 31  1  0  0  0  0
  9 10  1  0  0  0  0
  9 13  1  0  0  0  0
 10 11  1  0  0  0  0
 10 37  1  0  0  0  0
 10 38  1  0  0  0  0
 11 12  1  0  0  0  0
 11 39  1  0  0  0  0
 11 40  1  0  0  0  0
 12 41  1  0  0  0  0
 13 14  1  0  0  0  0
 13 30  2  0  0  0  0
 14 15  2  0  0  0  0
 14 42  1  0  0  0  0
 15 16  1  0  0  0  0
 15 43  1  0  0  0  0
 16 17  1  0  0  0  0
 16 29  2  0  0  0  0
 17 18  2  0  0  0  0
 18 19  1  0  0  0  0
 18 44  1  0  0  0  0
 19 20  1  0  0  0  0
 19 28  2  0  0  0  0
 20 21  1  0  0  0  0
 20 27  2  0  0  0  0
 21 22  2  0  0  0  0
 21 45  1  0  0  0  0
 22 23  1  0  0  0  0
 23 24  1  0  0  0  0
 23 27  1  0  0  0  0
 24 25  1  0  0  0  0
 24 46  1  0  0  0  0
 24 47  1  0  0  0  0
 25 26  1  0  0  0  0
 25 48  1  0  0  0  0
 25 49  1  0  0  0  0
 26 50  1  0  0  0  0
 27 51  1  0  0  0  0
 28 29  1  0  0  0  0
 29 30  1  0  0  0  0
 30 52  1  0  0  0  0
 31 53  1  0  0  0  0
M  END
$$$$
