CHEMBL3690503
 OpenBabel04072215373D

 52 55  0  0  0  0  0  0  0  0999 V2000
   -2.0674    1.3618    1.0901 C   0  0  0  0  0  0  0  0  0  0  0  0
   -1.0078    0.4947    0.4814 C   0  0  0  0  0  0  0  0  0  0  0  0
    0.0991    1.0484   -0.1657 C   0  0  0  0  0  0  0  0  0  0  0  0
    1.0585    0.2021   -0.7156 C   0  0  0  0  0  0  0  0  0  0  0  0
    2.2595    0.7562   -1.4217 C   0  0  0  0  0  0  0  0  0  0  0  0
    0.9657   -1.1468   -0.6481 N   0  0  0  0  0  0  0  0  0  0  0  0
   -0.1149   -1.6716   -0.0257 C   0  0  0  0  0  0  0  0  0  0  0  0
   -0.1869   -3.1414    0.0117 C   0  0  0  0  0  0  0  0  0  0  0  0
    0.3761   -3.9331    1.1067 C   0  0  0  0  0  0  0  0  0  0  0  0
    0.3006   -5.2753    1.0693 C   0  0  0  0  0  0  0  0  0  0  0  0
   -0.3016   -5.9048   -0.0235 N   0  0  0  0  0  0  0  0  0  0  0  0
   -0.4720   -7.2504   -0.3355 C   0  0  0  0  0  0  0  0  0  0  0  0
   -0.0204   -8.4396    0.4059 C   0  0  0  0  0  0  0  0  0  0  0  0
   -0.8373   -9.5817    0.3639 C   0  0  0  0  0  0  0  0  0  0  0  0
   -0.4401  -10.7714    0.9598 C   0  0  0  0  0  0  0  0  0  0  0  0
    0.7905  -10.8458    1.6018 C   0  0  0  0  0  0  0  0  0  0  0  0
    1.6515   -9.7444    1.6423 C   0  0  0  0  0  0  0  0  0  0  0  0
    2.9498   -9.8173    2.2252 N   0  0  0  0  0  0  0  0  0  0  0  0
    3.5686  -10.9699    2.6472 C   0  0  0  0  0  0  0  0  0  0  0  0
    3.1321  -12.1131    2.5827 O   0  0  0  0  0  0  0  0  0  0  0  0
    4.7958  -10.7485    3.2339 N   0  0  0  0  0  0  0  0  0  0  0  0
    5.5631  -11.9254    3.6714 C   0  0  0  0  0  0  0  0  0  0  0  0
    6.2576  -12.7413    2.5669 C   0  0  0  0  0  0  0  0  0  0  0  0
    6.1797  -12.1409    1.3577 F   0  0  0  0  0  0  0  0  0  0  0  0
    7.5789  -12.8671    2.8546 F   0  0  0  0  0  0  0  0  0  0  0  0
    5.7566  -13.9892    2.4533 F   0  0  0  0  0  0  0  0  0  0  0  0
    1.2256   -8.5341    1.0599 C   0  0  0  0  0  0  0  0  0  0  0  0
   -1.1993   -7.2220   -1.5213 C   0  0  0  0  0  0  0  0  0  0  0  0
   -1.4558   -5.9556   -1.9537 N   0  0  0  0  0  0  0  0  0  0  0  0
   -0.8910   -5.1764   -1.0621 C   0  0  0  0  0  0  0  0  0  0  0  0
   -0.8093   -3.7570   -1.0162 C   0  0  0  0  0  0  0  0  0  0  0  0
   -1.1139   -0.8953    0.5501 C   0  0  0  0  0  0  0  0  0  0  0  0
   -1.8451    2.4249    0.9517 H   0  0  0  0  0  0  0  0  0  0  0  0
   -2.1381    1.1706    2.1657 H   0  0  0  0  0  0  0  0  0  0  0  0
   -3.0362    1.1575    0.6231 H   0  0  0  0  0  0  0  0  0  0  0  0
    0.2124    2.1259   -0.2420 H   0  0  0  0  0  0  0  0  0  0  0  0
    2.2560    1.8508   -1.4330 H   0  0  0  0  0  0  0  0  0  0  0  0
    2.2768    0.4051   -2.4581 H   0  0  0  0  0  0  0  0  0  0  0  0
    3.1724    0.4235   -0.9182 H   0  0  0  0  0  0  0  0  0  0  0  0
    0.8540   -3.4096    1.9291 H   0  0  0  0  0  0  0  0  0  0  0  0
    0.6906   -5.8949    1.8638 H   0  0  0  0  0  0  0  0  0  0  0  0
   -1.7957   -9.5660   -0.1512 H   0  0  0  0  0  0  0  0  0  0  0  0
   -1.0754  -11.6518    0.9087 H   0  0  0  0  0  0  0  0  0  0  0  0
    1.0445  -11.7963    2.0565 H   0  0  0  0  0  0  0  0  0  0  0  0
    3.4848   -8.9638    2.2525 H   0  0  0  0  0  0  0  0  0  0  0  0
    5.3141   -9.9339    2.9415 H   0  0  0  0  0  0  0  0  0  0  0  0
    4.8866  -12.5903    4.2235 H   0  0  0  0  0  0  0  0  0  0  0  0
    6.3062  -11.5621    4.3867 H   0  0  0  0  0  0  0  0  0  0  0  0
    1.8949   -7.6790    1.0662 H   0  0  0  0  0  0  0  0  0  0  0  0
   -1.5446   -8.0737   -2.0947 H   0  0  0  0  0  0  0  0  0  0  0  0
   -1.2467   -3.2040   -1.8421 H   0  0  0  0  0  0  0  0  0  0  0  0
   -1.9626   -1.3647    1.0377 H   0  0  0  0  0  0  0  0  0  0  0  0
  1  2  1  0  0  0  0
  1 33  1  0  0  0  0
  1 34  1  0  0  0  0
  1 35  1  0  0  0  0
  2  3  1  0  0  0  0
  2 32  2  0  0  0  0
  3  4  2  0  0  0  0
  3 36  1  0  0  0  0
  4  5  1  0  0  0  0
  4  6  1  0  0  0  0
  5 37  1  0  0  0  0
  5 38  1  0  0  0  0
  5 39  1  0  0  0  0
  6  7  2  0  0  0  0
  7  8  1  0  0  0  0
  7 32  1  0  0  0  0
  8  9  1  0  0  0  0
  8 31  2  0  0  0  0
  9 10  2  0  0  0  0
  9 40  1  0  0  0  0
 10 11  1  0  0  0  0
 10 41  1  0  0  0  0
 11 12  1  0  0  0  0
 11 30  1  0  0  0  0
 12 13  1  0  0  0  0
 12 28  2  0  0  0  0
 13 14  1  0  0  0  0
 13 27  2  0  0  0  0
 14 15  2  0  0  0  0
 14 42  1  0  0  0  0
 15 16  1  0  0  0  0
 15 43  1  0  0  0  0
 16 17  2  0  0  0  0
 16 44  1  0  0  0  0
 17 18  1  0  0  0  0
 17 27  1  0  0  0  0
 18 19  1  0  0  0  0
 18 45  1  0  0  0  0
 19 20  2  0  0  0  0
 19 21  1  0  0  0  0
 21 22  1  0  0  0  0
 21 46  1  0  0  0  0
 22 23  1  0  0  0  0
 22 47  1  0  0  0  0
 22 48  1  0  0  0  0
 23 24  1  0  0  0  0
 23 25  1  0  0  0  0
 23 26  1  0  0  0  0
 27 49  1  0  0  0  0
 28 29  1  0  0  0  0
 28 50  1  0  0  0  0
 29 30  2  0  0  0  0
 30 31  1  0  0  0  0
 31 51  1  0  0  0  0
 32 52  1  0  0  0  0
M  END
$$$$
