CHEMBL2018774
 OpenBabel04072215363D

 67 69  0  0  0  0  0  0  0  0999 V2000
    8.9344   -2.0189   -9.2148 C   0  0  0  0  0  0  0  0  0  0  0  0
    7.5988   -1.6291   -8.6040 C   0  0  0  0  0  0  0  0  0  0  0  0
    7.8439   -1.0072   -7.3306 O   0  0  0  0  0  0  0  0  0  0  0  0
    7.9214   -1.8989   -6.3083 C   0  0  0  0  0  0  0  0  0  0  0  0
    7.5535   -3.0681   -6.4098 O   0  0  0  0  0  0  0  0  0  0  0  0
    8.4981   -1.3086   -5.2191 N   0  0  0  0  0  0  0  0  0  0  0  0
    8.9985   -1.9797   -4.0838 C   0  0  0  0  0  0  0  0  0  0  0  0
    9.1487   -3.3759   -4.0810 C   0  0  0  0  0  0  0  0  0  0  0  0
    9.6284   -4.0578   -2.9673 C   0  0  0  0  0  0  0  0  0  0  0  0
   10.0239   -3.3555   -1.8397 C   0  0  0  0  0  0  0  0  0  0  0  0
   10.4520   -4.0488   -0.6971 N   0  0  0  0  0  0  0  0  0  0  0  0
   11.3859   -3.5621    0.2364 C   0  0  0  0  0  0  0  0  0  0  0  0
   12.3653   -2.7489   -0.2085 N   0  0  0  0  0  0  0  0  0  0  0  0
   13.2085   -2.2689    0.7018 C   0  0  0  0  0  0  0  0  0  0  0  0
   13.1653   -2.5229    2.0105 N   0  0  0  0  0  0  0  0  0  0  0  0
   12.1979   -3.3390    2.4273 C   0  0  0  0  0  0  0  0  0  0  0  0
   12.1234   -3.6223    3.7769 C   0  0  0  0  0  0  0  0  0  0  0  0
   11.1699   -4.4978    4.3312 C   0  0  0  0  0  0  0  0  0  0  0  0
   11.2324   -4.8492    5.6539 O   0  0  0  0  0  0  0  0  0  0  0  0
   12.5340   -4.7375    6.2528 C   0  0  0  0  0  0  0  0  0  0  0  0
   10.1675   -5.0104    3.4997 C   0  0  0  0  0  0  0  0  0  0  0  0
    9.0854   -5.7912    3.7789 O   0  0  0  0  0  0  0  0  0  0  0  0
    8.5794   -5.9394    5.1030 C   0  0  0  0  0  0  0  0  0  0  0  0
    7.8137   -4.6971    5.6093 C   0  0  0  0  0  0  0  0  0  0  0  0
    7.1436   -4.8712    6.9243 N   0  0  0  0  0  0  0  0  0  0  0  0
    8.0504   -5.3607    7.9734 C   0  0  0  0  0  0  0  0  0  0  0  0
    9.1719   -4.4114    8.3776 C   0  0  0  0  0  0  0  0  0  0  0  0
    6.4159   -3.6423    7.2946 C   0  0  0  0  0  0  0  0  0  0  0  0
    5.6603   -3.7284    8.6213 C   0  0  0  0  0  0  0  0  0  0  0  0
   10.2394   -4.7374    2.1269 C   0  0  0  0  0  0  0  0  0  0  0  0
   11.2577   -3.9170    1.5831 C   0  0  0  0  0  0  0  0  0  0  0  0
    9.8946   -1.9578   -1.8421 C   0  0  0  0  0  0  0  0  0  0  0  0
    9.3791   -1.2546   -2.9436 C   0  0  0  0  0  0  0  0  0  0  0  0
    9.2379    0.2378   -2.8239 C   0  0  0  0  0  0  0  0  0  0  0  0
    8.7958   -2.5361  -10.1669 H   0  0  0  0  0  0  0  0  0  0  0  0
    9.5031   -2.6708   -8.5413 H   0  0  0  0  0  0  0  0  0  0  0  0
    9.5479   -1.1271   -9.3783 H   0  0  0  0  0  0  0  0  0  0  0  0
    6.9401   -2.5021   -8.5196 H   0  0  0  0  0  0  0  0  0  0  0  0
    7.0810   -0.9054   -9.2394 H   0  0  0  0  0  0  0  0  0  0  0  0
    8.5966   -0.3049   -5.2748 H   0  0  0  0  0  0  0  0  0  0  0  0
    8.9122   -3.9807   -4.9494 H   0  0  0  0  0  0  0  0  0  0  0  0
    9.6985   -5.1404   -3.0073 H   0  0  0  0  0  0  0  0  0  0  0  0
   10.5572   -5.0492   -0.8248 H   0  0  0  0  0  0  0  0  0  0  0  0
   13.9955   -1.6127    0.3490 H   0  0  0  0  0  0  0  0  0  0  0  0
   12.8588   -3.1185    4.3949 H   0  0  0  0  0  0  0  0  0  0  0  0
   12.4960   -5.1633    7.2580 H   0  0  0  0  0  0  0  0  0  0  0  0
   12.8343   -3.6896    6.3674 H   0  0  0  0  0  0  0  0  0  0  0  0
   13.2832   -5.2944    5.6760 H   0  0  0  0  0  0  0  0  0  0  0  0
    9.3678   -6.2868    5.7710 H   0  0  0  0  0  0  0  0  0  0  0  0
    7.8543   -6.7627    5.0436 H   0  0  0  0  0  0  0  0  0  0  0  0
    7.0458   -4.4605    4.8585 H   0  0  0  0  0  0  0  0  0  0  0  0
    8.4819   -3.8283    5.6184 H   0  0  0  0  0  0  0  0  0  0  0  0
    8.4830   -6.3191    7.6672 H   0  0  0  0  0  0  0  0  0  0  0  0
    7.4724   -5.6305    8.8644 H   0  0  0  0  0  0  0  0  0  0  0  0
    9.7220   -4.0297    7.5167 H   0  0  0  0  0  0  0  0  0  0  0  0
    9.8874   -4.9363    9.0186 H   0  0  0  0  0  0  0  0  0  0  0  0
    8.7872   -3.5530    8.9369 H   0  0  0  0  0  0  0  0  0  0  0  0
    5.6716   -3.4274    6.5172 H   0  0  0  0  0  0  0  0  0  0  0  0
    7.0935   -2.7804    7.3296 H   0  0  0  0  0  0  0  0  0  0  0  0
    4.9583   -4.5684    8.6251 H   0  0  0  0  0  0  0  0  0  0  0  0
    5.0883   -2.8095    8.7879 H   0  0  0  0  0  0  0  0  0  0  0  0
    6.3372   -3.8379    9.4745 H   0  0  0  0  0  0  0  0  0  0  0  0
    9.4794   -5.1602    1.4740 H   0  0  0  0  0  0  0  0  0  0  0  0
   10.1822   -1.4040   -0.9495 H   0  0  0  0  0  0  0  0  0  0  0  0
    9.3954    0.5722   -1.7910 H   0  0  0  0  0  0  0  0  0  0  0  0
    8.2273    0.5511   -3.1025 H   0  0  0  0  0  0  0  0  0  0  0  0
    9.9722    0.7479   -3.4543 H   0  0  0  0  0  0  0  0  0  0  0  0
  1  2  1  0  0  0  0
  1 35  1  0  0  0  0
  1 36  1  0  0  0  0
  1 37  1  0  0  0  0
  2  3  1  0  0  0  0
  2 38  1  0  0  0  0
  2 39  1  0  0  0  0
  3  4  1  0  0  0  0
  4  5  2  0  0  0  0
  4  6  1  0  0  0  0
  6  7  1  0  0  0  0
  6 40  1  0  0  0  0
  7  8  1  0  0  0  0
  7 33  2  0  0  0  0
  8  9  2  0  0  0  0
  8 41  1  0  0  0  0
  9 10  1  0  0  0  0
  9 42  1  0  0  0  0
 10 11  1  0  0  0  0
 10 32  2  0  0  0  0
 11 12  1  0  0  0  0
 11 43  1  0  0  0  0
 12 13  1  0  0  0  0
 12 31  2  0  0  0  0
 13 14  2  0  0  0  0
 14 15  1  0  0  0  0
 14 44  1  0  0  0  0
 15 16  2  0  0  0  0
 16 17  1  0  0  0  0
 16 31  1  0  0  0  0
 17 18  2  0  0  0  0
 17 45  1  0  0  0  0
 18 19  1  0  0  0  0
 18 21  1  0  0  0  0
 19 20  1  0  0  0  0
 20 46  1  0  0  0  0
 20 47  1  0  0  0  0
 20 48  1  0  0  0  0
 21 22  1  0  0  0  0
 21 30  2  0  0  0  0
 22 23  1  0  0  0  0
 23 24  1  0  0  0  0
 23 49  1  0  0  0  0
 23 50  1  0  0  0  0
 24 25  1  0  0  0  0
 24 51  1  0  0  0  0
 24 52  1  0  0  0  0
 25 26  1  0  0  0  0
 25 28  1  0  0  0  0
 26 27  1  0  0  0  0
 26 53  1  0  0  0  0
 26 54  1  0  0  0  0
 27 55  1  0  0  0  0
 27 56  1  0  0  0  0
 27 57  1  0  0  0  0
 28 29  1  0  0  0  0
 28 58  1  0  0  0  0
 28 59  1  0  0  0  0
 29 60  1  0  0  0  0
 29 61  1  0  0  0  0
 29 62  1  0  0  0  0
 30 31  1  0  0  0  0
 30 63  1  0  0  0  0
 32 33  1  0  0  0  0
 32 64  1  0  0  0  0
 33 34  1  0  0  0  0
 34 65  1  0  0  0  0
 34 66  1  0  0  0  0
 34 67  1  0  0  0  0
M  END
$$$$
