CHEMBL245966
 OpenBabel04072215363D

 49 52  0  0  0  0  0  0  0  0999 V2000
    4.5139    4.6564    3.8330 C   0  0  0  0  0  0  0  0  0  0  0  0
    3.5426    3.5207    3.5665 C   0  0  0  0  0  0  0  0  0  0  0  0
    4.1120    2.2310    3.9030 N   0  0  0  0  0  0  0  0  0  0  0  0
    4.8564    1.5125    2.9894 C   0  0  0  0  0  0  0  0  0  0  0  0
    5.0935    1.9016    1.8521 O   0  0  0  0  0  0  0  0  0  0  0  0
    5.4028    0.2167    3.4528 C   0  0  0  0  0  0  0  0  0  0  0  0
    6.5740   -0.2551    2.8783 C   0  0  0  0  0  0  0  0  0  0  0  0
    7.1631   -1.4254    3.2266 N   0  0  0  0  0  0  0  0  0  0  0  0
    6.5291   -2.1680    4.1678 C   0  0  0  0  0  0  0  0  0  0  0  0
    5.3328   -1.8069    4.7894 C   0  0  0  0  0  0  0  0  0  0  0  0
    4.7423   -2.6782    5.8192 C   0  0  0  0  0  0  0  0  0  0  0  0
    3.4219   -2.7850    6.0427 C   0  0  0  0  0  0  0  0  0  0  0  0
    2.8254   -3.6280    7.0215 C   0  0  0  0  0  0  0  0  0  0  0  0
    2.5554   -3.2613    8.3185 C   0  0  0  0  0  0  0  0  0  0  0  0
    1.8761   -4.3104    8.8660 N   0  0  0  0  0  0  0  0  0  0  0  0
    1.6920   -5.3415    8.0197 N   0  0  0  0  0  0  0  0  0  0  0  0
    2.2892   -4.9331    6.8874 C   0  0  0  0  0  0  0  0  0  0  0  0
    2.3367   -5.7989    5.6733 C   0  0  0  0  0  0  0  0  0  0  0  0
    2.9760   -5.5179    4.5581 N   0  0  0  0  0  0  0  0  0  0  0  0
    2.7670   -6.5946    3.7366 C   0  0  0  0  0  0  0  0  0  0  0  0
    3.2397   -6.8262    2.4408 C   0  0  0  0  0  0  0  0  0  0  0  0
    2.8682   -8.0104    1.7878 C   0  0  0  0  0  0  0  0  0  0  0  0
    2.0356   -8.9455    2.4117 C   0  0  0  0  0  0  0  0  0  0  0  0
    1.6032  -10.1195    1.8503 O   0  0  0  0  0  0  0  0  0  0  0  0
    2.0329  -10.3910    0.5212 C   0  0  0  0  0  0  0  0  0  0  0  0
    1.5678   -8.7275    3.7180 C   0  0  0  0  0  0  0  0  0  0  0  0
    1.9591   -7.5443    4.3496 C   0  0  0  0  0  0  0  0  0  0  0  0
    1.7133   -7.0196    5.5938 N   0  0  0  0  0  0  0  0  0  0  0  0
    4.7745   -0.5762    4.4206 C   0  0  0  0  0  0  0  0  0  0  0  0
    4.0532    5.6168    3.5816 H   0  0  0  0  0  0  0  0  0  0  0  0
    5.4260    4.5473    3.2374 H   0  0  0  0  0  0  0  0  0  0  0  0
    4.8050    4.6821    4.8883 H   0  0  0  0  0  0  0  0  0  0  0  0
    3.2458    3.5223    2.5123 H   0  0  0  0  0  0  0  0  0  0  0  0
    2.6419    3.6448    4.1755 H   0  0  0  0  0  0  0  0  0  0  0  0
    4.1141    1.9572    4.8761 H   0  0  0  0  0  0  0  0  0  0  0  0
    7.0938    0.3114    2.1089 H   0  0  0  0  0  0  0  0  0  0  0  0
    7.0281   -3.1048    4.4062 H   0  0  0  0  0  0  0  0  0  0  0  0
    5.4389   -3.2869    6.3927 H   0  0  0  0  0  0  0  0  0  0  0  0
    2.7199   -2.2339    5.4224 H   0  0  0  0  0  0  0  0  0  0  0  0
    2.7557   -2.3609    8.8813 H   0  0  0  0  0  0  0  0  0  0  0  0
    1.4944   -4.3836    9.8037 H   0  0  0  0  0  0  0  0  0  0  0  0
    3.8822   -6.0971    1.9589 H   0  0  0  0  0  0  0  0  0  0  0  0
    3.2505   -8.1647    0.7838 H   0  0  0  0  0  0  0  0  0  0  0  0
    1.5881  -11.3413    0.2118 H   0  0  0  0  0  0  0  0  0  0  0  0
    3.1215  -10.5019    0.4758 H   0  0  0  0  0  0  0  0  0  0  0  0
    1.6844   -9.6199   -0.1746 H   0  0  0  0  0  0  0  0  0  0  0  0
    0.9269   -9.4525    4.2079 H   0  0  0  0  0  0  0  0  0  0  0  0
    1.1661   -7.4279    6.3379 H   0  0  0  0  0  0  0  0  0  0  0  0
    3.8410   -0.2478    4.8659 H   0  0  0  0  0  0  0  0  0  0  0  0
  1  2  1  0  0  0  0
  1 30  1  0  0  0  0
  1 31  1  0  0  0  0
  1 32  1  0  0  0  0
  2  3  1  0  0  0  0
  2 33  1  0  0  0  0
  2 34  1  0  0  0  0
  3  4  1  0  0  0  0
  3 35  1  0  0  0  0
  4  5  2  0  0  0  0
  4  6  1  0  0  0  0
  6  7  1  0  0  0  0
  6 29  2  0  0  0  0
  7  8  2  0  0  0  0
  7 36  1  0  0  0  0
  8  9  1  0  0  0  0
  9 10  2  0  0  0  0
  9 37  1  0  0  0  0
 10 11  1  0  0  0  0
 10 29  1  0  0  0  0
 11 12  2  0  0  0  0
 11 38  1  0  0  0  0
 12 13  1  0  0  0  0
 12 39  1  0  0  0  0
 13 14  2  0  0  0  0
 13 17  1  0  0  0  0
 14 15  1  0  0  0  0
 14 40  1  0  0  0  0
 15 16  1  0  0  0  0
 15 41  1  0  0  0  0
 16 17  2  0  0  0  0
 17 18  1  0  0  0  0
 18 19  2  0  0  0  0
 18 28  1  0  0  0  0
 19 20  1  0  0  0  0
 20 21  1  0  0  0  0
 20 27  2  0  0  0  0
 21 22  2  0  0  0  0
 21 42  1  0  0  0  0
 22 23  1  0  0  0  0
 22 43  1  0  0  0  0
 23 24  1  0  0  0  0
 23 26  2  0  0  0  0
 24 25  1  0  0  0  0
 25 44  1  0  0  0  0
 25 45  1  0  0  0  0
 25 46  1  0  0  0  0
 26 27  1  0  0  0  0
 26 47  1  0  0  0  0
 27 28  1  0  0  0  0
 28 48  1  0  0  0  0
 29 49  1  0  0  0  0
M  END
$$$$
