CHEMBL3702616
 OpenBabel04072215373D

 47 49  0  0  0  0  0  0  0  0999 V2000
    3.5889   -3.3324   -1.3093 C   0  0  0  0  0  0  0  0  0  0  0  0
    3.6671   -2.6756    0.0595 C   0  0  0  0  0  0  0  0  0  0  0  0
    4.5515   -1.4270    0.0389 C   0  0  0  0  0  0  0  0  0  0  0  0
    4.6091   -0.7333    1.4006 C   0  0  0  0  0  0  0  0  0  0  0  0
    5.2125   -1.5701    2.4194 N   0  0  0  0  0  0  0  0  0  0  0  0
    6.5768   -1.5946    2.6132 C   0  0  0  0  0  0  0  0  0  0  0  0
    7.3519   -0.8640    2.0039 O   0  0  0  0  0  0  0  0  0  0  0  0
    7.1050   -2.5550    3.6221 C   0  0  0  0  0  0  0  0  0  0  0  0
    6.4571   -3.7466    3.9503 C   0  0  0  0  0  0  0  0  0  0  0  0
    7.0528   -4.6203    4.8590 C   0  0  0  0  0  0  0  0  0  0  0  0
    8.2930   -4.3077    5.4306 C   0  0  0  0  0  0  0  0  0  0  0  0
    8.9767   -3.1257    5.1096 C   0  0  0  0  0  0  0  0  0  0  0  0
   10.2344   -2.8629    5.6283 N   0  0  0  0  0  0  0  0  0  0  0  0
   11.2041   -2.0396    4.8974 C   0  0  0  0  0  0  0  0  0  0  0  0
   11.2516   -0.6350    5.4865 C   0  0  0  0  0  0  0  0  0  0  0  0
   11.4415   -0.6931    6.9763 C   0  0  0  0  0  0  0  0  0  0  0  0
   11.9682    0.4077    7.5596 N   0  0  0  0  0  0  0  0  0  0  0  0
   12.1353    0.3760    8.8842 C   0  0  0  0  0  0  0  0  0  0  0  0
   12.6715    1.4945    9.4824 N   0  0  0  0  0  0  0  0  0  0  0  0
   11.7792   -0.6442    9.6700 N   0  0  0  0  0  0  0  0  0  0  0  0
   11.2522   -1.7192    9.0572 C   0  0  0  0  0  0  0  0  0  0  0  0
   11.0522   -1.8101    7.6950 C   0  0  0  0  0  0  0  0  0  0  0  0
   10.5065   -3.0572    7.0573 C   0  0  0  0  0  0  0  0  0  0  0  0
    8.3495   -2.2609    4.2021 C   0  0  0  0  0  0  0  0  0  0  0  0
    2.9591   -4.2264   -1.2631 H   0  0  0  0  0  0  0  0  0  0  0  0
    4.5819   -3.6346   -1.6571 H   0  0  0  0  0  0  0  0  0  0  0  0
    3.1571   -2.6507   -2.0489 H   0  0  0  0  0  0  0  0  0  0  0  0
    4.0596   -3.4048    0.7773 H   0  0  0  0  0  0  0  0  0  0  0  0
    2.6559   -2.4081    0.3883 H   0  0  0  0  0  0  0  0  0  0  0  0
    4.1580   -0.7169   -0.6992 H   0  0  0  0  0  0  0  0  0  0  0  0
    5.5635   -1.6989   -0.2856 H   0  0  0  0  0  0  0  0  0  0  0  0
    3.6039   -0.4693    1.7440 H   0  0  0  0  0  0  0  0  0  0  0  0
    5.1868    0.1942    1.3112 H   0  0  0  0  0  0  0  0  0  0  0  0
    4.6044   -2.1365    2.9930 H   0  0  0  0  0  0  0  0  0  0  0  0
    5.5215   -4.0330    3.4815 H   0  0  0  0  0  0  0  0  0  0  0  0
    6.5729   -5.5659    5.1001 H   0  0  0  0  0  0  0  0  0  0  0  0
    8.7525   -5.0381    6.0928 H   0  0  0  0  0  0  0  0  0  0  0  0
   10.9969   -2.0047    3.8213 H   0  0  0  0  0  0  0  0  0  0  0  0
   12.1909   -2.5121    4.9899 H   0  0  0  0  0  0  0  0  0  0  0  0
   10.3197   -0.0960    5.2829 H   0  0  0  0  0  0  0  0  0  0  0  0
   12.0711   -0.0723    5.0250 H   0  0  0  0  0  0  0  0  0  0  0  0
   12.4957    2.3013    8.8996 H   0  0  0  0  0  0  0  0  0  0  0  0
   12.3673    1.5413   10.4448 H   0  0  0  0  0  0  0  0  0  0  0  0
   10.9902   -2.5363    9.7231 H   0  0  0  0  0  0  0  0  0  0  0  0
    9.6062   -3.3611    7.6056 H   0  0  0  0  0  0  0  0  0  0  0  0
   11.2494   -3.8574    7.1608 H   0  0  0  0  0  0  0  0  0  0  0  0
    8.8212   -1.3205    3.9292 H   0  0  0  0  0  0  0  0  0  0  0  0
  1  2  1  0  0  0  0
  1 25  1  0  0  0  0
  1 26  1  0  0  0  0
  1 27  1  0  0  0  0
  2  3  1  0  0  0  0
  2 28  1  0  0  0  0
  2 29  1  0  0  0  0
  3  4  1  0  0  0  0
  3 30  1  0  0  0  0
  3 31  1  0  0  0  0
  4  5  1  0  0  0  0
  4 32  1  0  0  0  0
  4 33  1  0  0  0  0
  5  6  1  0  0  0  0
  5 34  1  0  0  0  0
  6  7  2  0  0  0  0
  6  8  1  0  0  0  0
  8  9  1  0  0  0  0
  8 24  2  0  0  0  0
  9 10  2  0  0  0  0
  9 35  1  0  0  0  0
 10 11  1  0  0  0  0
 10 36  1  0  0  0  0
 11 12  2  0  0  0  0
 11 37  1  0  0  0  0
 12 13  1  0  0  0  0
 12 24  1  0  0  0  0
 13 14  1  0  0  0  0
 13 23  1  0  0  0  0
 14 15  1  0  0  0  0
 14 38  1  0  0  0  0
 14 39  1  0  0  0  0
 15 16  1  0  0  0  0
 15 40  1  0  0  0  0
 15 41  1  0  0  0  0
 16 17  1  0  0  0  0
 16 22  2  0  0  0  0
 17 18  2  0  0  0  0
 18 19  1  0  0  0  0
 18 20  1  0  0  0  0
 19 42  1  0  0  0  0
 19 43  1  0  0  0  0
 20 21  2  0  0  0  0
 21 22  1  0  0  0  0
 21 44  1  0  0  0  0
 22 23  1  0  0  0  0
 23 45  1  0  0  0  0
 23 46  1  0  0  0  0
 24 47  1  0  0  0  0
M  END
$$$$
