CHEMBL3099465
 OpenBabel04072215363D

 76 78  0  0  0  0  0  0  0  0999 V2000
    2.1143   -1.1331    1.6182 C   0  0  0  0  0  0  0  0  0  0  0  0
    2.6032   -0.4420    0.4720 O   0  0  0  0  0  0  0  0  0  0  0  0
    2.9485    0.8769    0.6070 C   0  0  0  0  0  0  0  0  0  0  0  0
    2.6921    1.6384    1.7562 C   0  0  0  0  0  0  0  0  0  0  0  0
    3.2137    2.9464    1.9551 C   0  0  0  0  0  0  0  0  0  0  0  0
    3.0577    3.6392    3.2763 C   0  0  0  0  0  0  0  0  0  0  0  0
    3.0172    2.8187    4.4206 C   0  0  0  0  0  0  0  0  0  0  0  0
    2.8772    3.2781    5.7281 C   0  0  0  0  0  0  0  0  0  0  0  0
    2.7714    2.3905    6.8305 N   0  0  0  0  0  0  0  0  0  0  0  0
    2.7972    1.0060    6.7453 C   0  0  0  0  0  0  0  0  0  0  0  0
    2.9588    0.3567    5.7168 O   0  0  0  0  0  0  0  0  0  0  0  0
    2.5734    0.3883    7.9683 N   0  0  0  0  0  0  0  0  0  0  0  0
    2.6087   -1.0321    8.0161 C   0  0  0  0  0  0  0  0  0  0  0  0
    3.7135   -1.7119    7.4801 C   0  0  0  0  0  0  0  0  0  0  0  0
    3.7401   -3.1044    7.4127 C   0  0  0  0  0  0  0  0  0  0  0  0
    2.6630   -3.8402    7.8951 C   0  0  0  0  0  0  0  0  0  0  0  0
    2.5451   -5.2020    7.8229 O   0  0  0  0  0  0  0  0  0  0  0  0
    3.7798   -5.9279    7.8058 C   0  0  0  0  0  0  0  0  0  0  0  0
    3.4535   -7.4183    7.7703 C   0  0  0  0  0  0  0  0  0  0  0  0
    4.7086   -8.2958    7.8116 C   0  0  0  0  0  0  0  0  0  0  0  0
    5.5520   -8.0979    9.0034 N   0  0  0  0  0  0  0  0  0  0  0  0
    4.8528   -8.4554   10.2399 C   0  0  0  0  0  0  0  0  0  0  0  0
    6.7817   -8.8871    8.8877 C   0  0  0  0  0  0  0  0  0  0  0  0
    1.5620   -3.1692    8.4401 C   0  0  0  0  0  0  0  0  0  0  0  0
    1.5242   -1.7637    8.5160 C   0  0  0  0  0  0  0  0  0  0  0  0
    0.2686   -1.0895    8.9978 C   0  0  0  0  0  0  0  0  0  0  0  0
    2.8288    4.6525    5.9255 C   0  0  0  0  0  0  0  0  0  0  0  0
    2.9032    5.5286    4.8236 C   0  0  0  0  0  0  0  0  0  0  0  0
    2.7744    6.8823    5.0293 O   0  0  0  0  0  0  0  0  0  0  0  0
    3.6580    7.4078    6.0191 C   0  0  0  0  0  0  0  0  0  0  0  0
    2.9954    5.0330    3.4969 C   0  0  0  0  0  0  0  0  0  0  0  0
    2.9671    5.8198    2.3701 O   0  0  0  0  0  0  0  0  0  0  0  0
    3.5516    7.1137    2.4546 C   0  0  0  0  0  0  0  0  0  0  0  0
    3.9740    3.4786    0.9085 C   0  0  0  0  0  0  0  0  0  0  0  0
    4.1637    2.7692   -0.2844 C   0  0  0  0  0  0  0  0  0  0  0  0
    3.6322    1.4815   -0.4485 C   0  0  0  0  0  0  0  0  0  0  0  0
    3.8453    0.8204   -1.7643 C   0  0  0  0  0  0  0  0  0  0  0  0
    2.7884   -0.0928   -2.3330 C   0  0  0  0  0  0  0  0  0  0  0  0
    4.8605    1.0847   -2.4130 O   0  0  0  0  0  0  0  0  0  0  0  0
    1.9955   -2.1864    1.3433 H   0  0  0  0  0  0  0  0  0  0  0  0
    1.1296   -0.7537    1.9066 H   0  0  0  0  0  0  0  0  0  0  0  0
    2.8212   -1.0865    2.4536 H   0  0  0  0  0  0  0  0  0  0  0  0
    2.0870    1.1969    2.5435 H   0  0  0  0  0  0  0  0  0  0  0  0
    3.1247    1.7586    4.2477 H   0  0  0  0  0  0  0  0  0  0  0  0
    2.7370    2.7948    7.7545 H   0  0  0  0  0  0  0  0  0  0  0  0
    1.8627    0.8404    8.5223 H   0  0  0  0  0  0  0  0  0  0  0  0
    4.5555   -1.1557    7.0673 H   0  0  0  0  0  0  0  0  0  0  0  0
    4.5937   -3.5737    6.9364 H   0  0  0  0  0  0  0  0  0  0  0  0
    4.3539   -5.6767    8.7049 H   0  0  0  0  0  0  0  0  0  0  0  0
    4.3612   -5.6847    6.9097 H   0  0  0  0  0  0  0  0  0  0  0  0
    2.9000   -7.6349    6.8470 H   0  0  0  0  0  0  0  0  0  0  0  0
    2.7603   -7.6747    8.5798 H   0  0  0  0  0  0  0  0  0  0  0  0
    5.3027   -8.0603    6.9176 H   0  0  0  0  0  0  0  0  0  0  0  0
    4.4119   -9.3488    7.7209 H   0  0  0  0  0  0  0  0  0  0  0  0
    4.0059   -7.7870   10.4239 H   0  0  0  0  0  0  0  0  0  0  0  0
    5.5160   -8.3400   11.1049 H   0  0  0  0  0  0  0  0  0  0  0  0
    4.4861   -9.4882   10.2232 H   0  0  0  0  0  0  0  0  0  0  0  0
    7.3465   -8.5957    7.9954 H   0  0  0  0  0  0  0  0  0  0  0  0
    6.5782   -9.9627    8.8335 H   0  0  0  0  0  0  0  0  0  0  0  0
    7.4387   -8.7033    9.7456 H   0  0  0  0  0  0  0  0  0  0  0  0
    0.7141   -3.7558    8.7822 H   0  0  0  0  0  0  0  0  0  0  0  0
   -0.4608   -1.8154    9.3727 H   0  0  0  0  0  0  0  0  0  0  0  0
   -0.1994   -0.5447    8.1725 H   0  0  0  0  0  0  0  0  0  0  0  0
    0.4915   -0.3938    9.8123 H   0  0  0  0  0  0  0  0  0  0  0  0
    2.7027    5.0550    6.9251 H   0  0  0  0  0  0  0  0  0  0  0  0
    3.9022    8.4367    5.7354 H   0  0  0  0  0  0  0  0  0  0  0  0
    4.5998    6.8503    6.0878 H   0  0  0  0  0  0  0  0  0  0  0  0
    3.1546    7.4343    6.9898 H   0  0  0  0  0  0  0  0  0  0  0  0
    3.8480    7.4108    1.4436 H   0  0  0  0  0  0  0  0  0  0  0  0
    4.4557    7.1263    3.0728 H   0  0  0  0  0  0  0  0  0  0  0  0
    2.8140    7.8433    2.8013 H   0  0  0  0  0  0  0  0  0  0  0  0
    4.4485    4.4515    1.0053 H   0  0  0  0  0  0  0  0  0  0  0  0
    4.7442    3.2265   -1.0842 H   0  0  0  0  0  0  0  0  0  0  0  0
    1.8792   -0.1234   -1.7338 H   0  0  0  0  0  0  0  0  0  0  0  0
    3.1964   -1.1033   -2.4297 H   0  0  0  0  0  0  0  0  0  0  0  0
    2.4959    0.2829   -3.3197 H   0  0  0  0  0  0  0  0  0  0  0  0
  1  2  1  0  0  0  0
  1 40  1  0  0  0  0
  1 41  1  0  0  0  0
  1 42  1  0  0  0  0
  2  3  1  0  0  0  0
  3  4  1  0  0  0  0
  3 36  2  0  0  0  0
  4  5  2  0  0  0  0
  4 43  1  0  0  0  0
  5  6  1  0  0  0  0
  5 34  1  0  0  0  0
  6  7  1  0  0  0  0
  6 31  2  0  0  0  0
  7  8  2  0  0  0  0
  7 44  1  0  0  0  0
  8  9  1  0  0  0  0
  8 27  1  0  0  0  0
  9 10  1  0  0  0  0
  9 45  1  0  0  0  0
 10 11  2  0  0  0  0
 10 12  1  0  0  0  0
 12 13  1  0  0  0  0
 12 46  1  0  0  0  0
 13 14  1  0  0  0  0
 13 25  2  0  0  0  0
 14 15  2  0  0  0  0
 14 47  1  0  0  0  0
 15 16  1  0  0  0  0
 15 48  1  0  0  0  0
 16 17  1  0  0  0  0
 16 24  2  0  0  0  0
 17 18  1  0  0  0  0
 18 19  1  0  0  0  0
 18 49  1  0  0  0  0
 18 50  1  0  0  0  0
 19 20  1  0  0  0  0
 19 51  1  0  0  0  0
 19 52  1  0  0  0  0
 20 21  1  0  0  0  0
 20 53  1  0  0  0  0
 20 54  1  0  0  0  0
 21 22  1  0  0  0  0
 21 23  1  0  0  0  0
 22 55  1  0  0  0  0
 22 56  1  0  0  0  0
 22 57  1  0  0  0  0
 23 58  1  0  0  0  0
 23 59  1  0  0  0  0
 23 60  1  0  0  0  0
 24 25  1  0  0  0  0
 24 61  1  0  0  0  0
 25 26  1  0  0  0  0
 26 62  1  0  0  0  0
 26 63  1  0  0  0  0
 26 64  1  0  0  0  0
 27 28  2  0  0  0  0
 27 65  1  0  0  0  0
 28 29  1  0  0  0  0
 28 31  1  0  0  0  0
 29 30  1  0  0  0  0
 30 66  1  0  0  0  0
 30 67  1  0  0  0  0
 30 68  1  0  0  0  0
 31 32  1  0  0  0  0
 32 33  1  0  0  0  0
 33 69  1  0  0  0  0
 33 70  1  0  0  0  0
 33 71  1  0  0  0  0
 34 35  2  0  0  0  0
 34 72  1  0  0  0  0
 35 36  1  0  0  0  0
 35 73  1  0  0  0  0
 36 37  1  0  0  0  0
 37 38  1  0  0  0  0
 37 39  2  0  0  0  0
 38 74  1  0  0  0  0
 38 75  1  0  0  0  0
 38 76  1  0  0  0  0
M  END
$$$$
