CHEMBL3690408
 OpenBabel04072215373D

 64 67  0  0  1  0  0  0  0  0999 V2000
   10.8332    1.5777   -5.6018 C   0  0  0  0  0  0  0  0  0  0  0  0
    9.8241    0.8938   -4.6858 C   0  0  0  0  0  0  0  0  0  0  0  0
    9.6551    1.5691   -3.3895 N   0  0  0  0  0  0  0  0  0  0  0  0
    8.7486    0.7963   -2.5188 C   0  0  0  0  0  0  0  0  0  0  0  0
    7.3520    1.2529   -2.9039 C   0  0  0  0  0  0  0  0  0  0  0  0
    7.5313    2.7513   -3.0979 C   0  0  3  0  0  0  0  0  0  0  0  0
    7.2587    3.3823   -1.8007 N   0  0  0  0  0  0  0  0  0  0  0  0
    6.9427    4.6283   -1.8305 C   0  0  0  0  0  0  0  0  0  0  0  0
    6.6534    5.3834   -0.5483 C   0  0  3  0  0  0  0  0  0  0  0  0
    5.6720    4.6472    0.3419 C   0  0  0  0  0  0  0  0  0  0  0  0
    4.5317    5.1319    0.7189 N   0  0  0  0  0  0  0  0  0  0  0  0
    7.9339    5.6844    0.2142 C   0  0  0  0  0  0  0  0  0  0  0  0
    8.8101    4.5842    0.6389 C   0  0  0  0  0  0  0  0  0  0  0  0
    9.9433    4.8432    1.3151 C   0  0  0  0  0  0  0  0  0  0  0  0
   10.2710    6.1601    1.6400 N   0  0  0  0  0  0  0  0  0  0  0  0
   11.3382    6.6958    2.3616 C   0  0  0  0  0  0  0  0  0  0  0  0
   12.4508    5.9952    3.0242 C   0  0  0  0  0  0  0  0  0  0  0  0
   13.7064    6.6247    3.0535 C   0  0  0  0  0  0  0  0  0  0  0  0
   14.7834    6.0525    3.7215 C   0  0  0  0  0  0  0  0  0  0  0  0
   14.6275    4.8359    4.3775 C   0  0  0  0  0  0  0  0  0  0  0  0
   13.3948    4.1819    4.3849 C   0  0  0  0  0  0  0  0  0  0  0  0
   13.1853    2.9513    5.0572 N   0  0  0  0  0  0  0  0  0  0  0  0
   14.0925    2.2896    5.8571 C   0  0  0  0  0  0  0  0  0  0  0  0
   15.2259    2.6540    6.1497 O   0  0  0  0  0  0  0  0  0  0  0  0
   13.6163    1.0802    6.3059 N   0  0  0  0  0  0  0  0  0  0  0  0
   14.4698    0.2924    7.2101 C   0  0  0  0  0  0  0  0  0  0  0  0
   14.5246    0.7720    8.6693 C   0  0  0  0  0  0  0  0  0  0  0  0
   13.5954    1.7221    8.9252 F   0  0  0  0  0  0  0  0  0  0  0  0
   14.2593   -0.2656    9.5035 F   0  0  0  0  0  0  0  0  0  0  0  0
   15.7345    1.2597    9.0097 F   0  0  0  0  0  0  0  0  0  0  0  0
   12.3112    4.7687    3.7042 C   0  0  0  0  0  0  0  0  0  0  0  0
   11.1208    8.0686    2.2870 C   0  0  0  0  0  0  0  0  0  0  0  0
    9.9892    8.3885    1.5948 N   0  0  0  0  0  0  0  0  0  0  0  0
    9.4821    7.2341    1.2298 C   0  0  0  0  0  0  0  0  0  0  0  0
    8.2921    6.9561    0.4983 C   0  0  0  0  0  0  0  0  0  0  0  0
    9.0151    2.8997   -3.4930 C   0  0  0  0  0  0  0  0  0  0  0  0
   10.9895    0.9657   -6.4968 H   0  0  0  0  0  0  0  0  0  0  0  0
   11.8009    1.7020   -5.1062 H   0  0  0  0  0  0  0  0  0  0  0  0
   10.4870    2.5588   -5.9386 H   0  0  0  0  0  0  0  0  0  0  0  0
   10.2038   -0.1194   -4.4998 H   0  0  0  0  0  0  0  0  0  0  0  0
    8.8723    0.7851   -5.2183 H   0  0  0  0  0  0  0  0  0  0  0  0
    8.9565    1.0578   -1.4730 H   0  0  0  0  0  0  0  0  0  0  0  0
    8.8743   -0.2879   -2.6068 H   0  0  0  0  0  0  0  0  0  0  0  0
    6.6105    1.0002   -2.1391 H   0  0  0  0  0  0  0  0  0  0  0  0
    7.0389    0.7860   -3.8446 H   0  0  0  0  0  0  0  0  0  0  0  0
    6.8565    3.1233   -3.8778 H   0  0  0  0  0  0  0  0  0  0  0  0
    6.8772    5.2048   -2.7708 H   0  0  0  0  0  0  0  0  0  0  0  0
    6.1755    6.3231   -0.8569 H   0  0  0  0  0  0  0  0  0  0  0  0
    5.9475    3.6317    0.6760 H   0  0  0  0  0  0  0  0  0  0  0  0
    4.3754    6.0764    0.3523 H   0  0  0  0  0  0  0  0  0  0  0  0
    8.5520    3.5588    0.3834 H   0  0  0  0  0  0  0  0  0  0  0  0
   10.6238    4.0574    1.6071 H   0  0  0  0  0  0  0  0  0  0  0  0
   13.8634    7.5815    2.5593 H   0  0  0  0  0  0  0  0  0  0  0  0
   15.7464    6.5566    3.7443 H   0  0  0  0  0  0  0  0  0  0  0  0
   15.5018    4.4275    4.8743 H   0  0  0  0  0  0  0  0  0  0  0  0
   12.2816    2.5182    4.9468 H   0  0  0  0  0  0  0  0  0  0  0  0
   12.6206    1.0119    6.4516 H   0  0  0  0  0  0  0  0  0  0  0  0
   15.4876    0.2752    6.8009 H   0  0  0  0  0  0  0  0  0  0  0  0
   14.0907   -0.7326    7.1726 H   0  0  0  0  0  0  0  0  0  0  0  0
   11.3397    4.2854    3.7427 H   0  0  0  0  0  0  0  0  0  0  0  0
   11.7363    8.8478    2.7180 H   0  0  0  0  0  0  0  0  0  0  0  0
    7.6926    7.8085    0.1958 H   0  0  0  0  0  0  0  0  0  0  0  0
    9.5363    3.5904   -2.8188 H   0  0  0  0  0  0  0  0  0  0  0  0
    9.0900    3.3329   -4.4950 H   0  0  0  0  0  0  0  0  0  0  0  0
  1  2  1  0  0  0  0
  1 37  1  0  0  0  0
  1 38  1  0  0  0  0
  1 39  1  0  0  0  0
  2  3  1  0  0  0  0
  2 40  1  0  0  0  0
  2 41  1  0  0  0  0
  3  4  1  0  0  0  0
  3 36  1  0  0  0  0
  4  5  1  0  0  0  0
  4 42  1  0  0  0  0
  4 43  1  0  0  0  0
  5  6  1  0  0  0  0
  5 44  1  0  0  0  0
  5 45  1  0  0  0  0
  6  7  1  0  0  0  0
  6 36  1  0  0  0  0
  6 46  1  0  0  0  0
  7  8  2  0  0  0  0
  8  9  1  0  0  0  0
  8 47  1  0  0  0  0
  9 10  1  0  0  0  0
  9 12  1  0  0  0  0
  9 48  1  0  0  0  0
 10 11  2  0  0  0  0
 10 49  1  0  0  0  0
 11 50  1  0  0  0  0
 12 13  1  0  0  0  0
 12 35  2  0  0  0  0
 13 14  2  0  0  0  0
 13 51  1  0  0  0  0
 14 15  1  0  0  0  0
 14 52  1  0  0  0  0
 15 16  1  0  0  0  0
 15 34  1  0  0  0  0
 16 17  1  0  0  0  0
 16 32  2  0  0  0  0
 17 18  1  0  0  0  0
 17 31  2  0  0  0  0
 18 19  2  0  0  0  0
 18 53  1  0  0  0  0
 19 20  1  0  0  0  0
 19 54  1  0  0  0  0
 20 21  2  0  0  0  0
 20 55  1  0  0  0  0
 21 22  1  0  0  0  0
 21 31  1  0  0  0  0
 22 23  1  0  0  0  0
 22 56  1  0  0  0  0
 23 24  2  0  0  0  0
 23 25  1  0  0  0  0
 25 26  1  0  0  0  0
 25 57  1  0  0  0  0
 26 27  1  0  0  0  0
 26 58  1  0  0  0  0
 26 59  1  0  0  0  0
 27 28  1  0  0  0  0
 27 29  1  0  0  0  0
 27 30  1  0  0  0  0
 31 60  1  0  0  0  0
 32 33  1  0  0  0  0
 32 61  1  0  0  0  0
 33 34  2  0  0  0  0
 34 35  1  0  0  0  0
 35 62  1  0  0  0  0
 36 63  1  0  0  0  0
 36 64  1  0  0  0  0
M  END
$$$$
