CHEMBL3948321
 OpenBabel04072215373D

 74 79  0  0  0  0  0  0  0  0999 V2000
    3.8628   -2.8754    0.9137 C   0  0  0  0  0  0  0  0  0  0  0  0
    4.9431   -3.7988    0.6031 O   0  0  0  0  0  0  0  0  0  0  0  0
    5.6573   -3.6302   -0.5664 C   0  0  0  0  0  0  0  0  0  0  0  0
    6.6737   -4.4493   -0.9202 C   0  0  0  0  0  0  0  0  0  0  0  0
    7.4186   -4.1734   -2.0616 C   0  0  0  0  0  0  0  0  0  0  0  0
    8.1698   -5.1153   -2.6999 O   0  0  0  0  0  0  0  0  0  0  0  0
    8.1250   -6.4042   -2.0965 C   0  0  0  0  0  0  0  0  0  0  0  0
    7.3719   -2.9161   -2.6628 C   0  0  0  0  0  0  0  0  0  0  0  0
    6.3453   -2.0443   -2.3613 C   0  0  0  0  0  0  0  0  0  0  0  0
    6.3416   -0.6997   -2.9065 N   0  0  0  0  0  0  0  0  0  0  0  0
    5.0243   -0.0722   -3.1449 C   0  0  0  0  0  0  0  0  0  0  0  0
    4.4463    0.7284   -1.9753 C   0  0  0  0  0  0  0  0  0  0  0  0
    3.1333    1.4718   -1.9260 C   0  0  0  0  0  0  0  0  0  0  0  0
    4.2848    2.3502   -1.8635 C   0  0  0  0  0  0  0  0  0  0  0  0
    7.3985   -0.2272   -3.7769 C   0  0  0  0  0  0  0  0  0  0  0  0
    7.6511    1.0869   -3.7142 C   0  0  0  0  0  0  0  0  0  0  0  0
    8.2848    1.6559   -4.7194 C   0  0  0  0  0  0  0  0  0  0  0  0
    8.7694    1.0305   -5.8719 C   0  0  0  0  0  0  0  0  0  0  0  0
    8.7122    1.9664   -6.7306 N   0  0  0  0  0  0  0  0  0  0  0  0
    9.7834    2.6739   -6.6699 C   0  0  0  0  0  0  0  0  0  0  0  0
   10.9018    2.2416   -7.0474 C   0  0  0  0  0  0  0  0  0  0  0  0
   11.4912    3.9516   -7.5438 C   0  0  0  0  0  0  0  0  0  0  0  0
   12.4766    4.4948   -8.6249 C   0  0  0  0  0  0  0  0  0  0  0  0
   13.1208    5.7474   -8.6355 N   0  0  0  0  0  0  0  0  0  0  0  0
   12.8643    6.2447   -7.4364 N   0  0  0  0  0  0  0  0  0  0  0  0
   13.2736    7.6579   -6.8110 C   0  0  0  0  0  0  0  0  0  0  0  0
   12.3332    8.9703   -6.9470 C   0  0  0  0  0  0  0  0  0  0  0  0
   12.0930    9.3571   -8.4181 C   0  0  0  0  0  0  0  0  0  0  0  0
   13.3748    9.7562   -9.0928 C   0  0  0  0  0  0  0  0  0  0  0  0
   14.0567   10.9047   -8.2277 N   0  0  0  0  0  0  0  0  0  0  0  0
   15.3909   11.2308   -8.8180 C   0  0  0  0  0  0  0  0  0  0  0  0
   14.2243   10.5910   -6.6803 C   0  0  0  0  0  0  0  0  0  0  0  0
   12.8964   10.1472   -6.1308 C   0  0  0  0  0  0  0  0  0  0  0  0
   12.1075    5.0890   -6.9182 C   0  0  0  0  0  0  0  0  0  0  0  0
   10.4867    0.6369   -7.0451 N   0  0  0  0  0  0  0  0  0  0  0  0
    9.2969   -0.1258   -6.0073 C   0  0  0  0  0  0  0  0  0  0  0  0
    8.0791   -0.8756   -4.9316 C   0  0  0  0  0  0  0  0  0  0  0  0
    5.3629   -2.6135   -1.5101 C   0  0  0  0  0  0  0  0  0  0  0  0
    3.4958   -3.0923    1.9282 H   0  0  0  0  0  0  0  0  0  0  0  0
    2.9906   -2.9594    0.2446 H   0  0  0  0  0  0  0  0  0  0  0  0
    4.2108   -1.8402    0.9363 H   0  0  0  0  0  0  0  0  0  0  0  0
    6.7597   -5.3756   -0.3895 H   0  0  0  0  0  0  0  0  0  0  0  0
    8.7382   -7.0712   -2.6977 H   0  0  0  0  0  0  0  0  0  0  0  0
    7.1063   -6.8179   -2.0612 H   0  0  0  0  0  0  0  0  0  0  0  0
    8.5544   -6.3599   -1.0892 H   0  0  0  0  0  0  0  0  0  0  0  0
    8.0528   -2.6613   -3.4622 H   0  0  0  0  0  0  0  0  0  0  0  0
    4.2945   -0.8651   -3.4346 H   0  0  0  0  0  0  0  0  0  0  0  0
    5.0754    0.5917   -4.0092 H   0  0  0  0  0  0  0  0  0  0  0  0
    4.7313    0.1579   -1.0835 H   0  0  0  0  0  0  0  0  0  0  0  0
    2.6269    1.5334   -0.9751 H   0  0  0  0  0  0  0  0  0  0  0  0
    2.5460    1.5823   -2.8154 H   0  0  0  0  0  0  0  0  0  0  0  0
    4.6125    2.7452   -0.8996 H   0  0  0  0  0  0  0  0  0  0  0  0
    4.5290    3.0757   -2.6593 H   0  0  0  0  0  0  0  0  0  0  0  0
    7.1251    1.8139   -3.0643 H   0  0  0  0  0  0  0  0  0  0  0  0
    8.5527    2.7079   -4.6378 H   0  0  0  0  0  0  0  0  0  0  0  0
    9.6140    3.6723   -6.3030 H   0  0  0  0  0  0  0  0  0  0  0  0
   12.7665    3.9489   -9.4787 H   0  0  0  0  0  0  0  0  0  0  0  0
   14.2443    7.9651   -7.2539 H   0  0  0  0  0  0  0  0  0  0  0  0
   13.4798    7.5651   -5.7223 H   0  0  0  0  0  0  0  0  0  0  0  0
   11.3163    8.7807   -6.5297 H   0  0  0  0  0  0  0  0  0  0  0  0
   11.4314   10.2174   -8.5011 H   0  0  0  0  0  0  0  0  0  0  0  0
   11.6387    8.4980   -8.9342 H   0  0  0  0  0  0  0  0  0  0  0  0
   13.3423   10.0100  -10.1573 H   0  0  0  0  0  0  0  0  0  0  0  0
   13.8471    8.7528   -9.2420 H   0  0  0  0  0  0  0  0  0  0  0  0
   15.4380   11.2694   -9.9071 H   0  0  0  0  0  0  0  0  0  0  0  0
   16.0611   10.4215   -8.7759 H   0  0  0  0  0  0  0  0  0  0  0  0
   16.0321   11.8858   -8.2243 H   0  0  0  0  0  0  0  0  0  0  0  0
   14.7622   11.3856   -6.1524 H   0  0  0  0  0  0  0  0  0  0  0  0
   14.8732    9.7745   -6.2936 H   0  0  0  0  0  0  0  0  0  0  0  0
   12.2468   11.0181   -6.1758 H   0  0  0  0  0  0  0  0  0  0  0  0
   12.9978    9.8258   -5.0822 H   0  0  0  0  0  0  0  0  0  0  0  0
   12.0806    5.4840   -6.0084 H   0  0  0  0  0  0  0  0  0  0  0  0
    7.6003   -1.8994   -5.0884 H   0  0  0  0  0  0  0  0  0  0  0  0
    4.4300   -2.0775   -1.4329 H   0  0  0  0  0  0  0  0  0  0  0  0
  1  2  1  0  0  0  0
  1 39  1  0  0  0  0
  1 40  1  0  0  0  0
  1 41  1  0  0  0  0
  2  3  1  0  0  0  0
  3  4  1  0  0  0  0
  3 38  2  0  0  0  0
  4  5  2  0  0  0  0
  4 42  1  0  0  0  0
  5  6  1  0  0  0  0
  5  8  1  0  0  0  0
  6  7  1  0  0  0  0
  7 43  1  0  0  0  0
  7 44  1  0  0  0  0
  7 45  1  0  0  0  0
  8  9  2  0  0  0  0
  8 46  1  0  0  0  0
  9 10  1  0  0  0  0
  9 38  1  0  0  0  0
 10 11  1  0  0  0  0
 10 15  1  0  0  0  0
 11 12  1  0  0  0  0
 11 47  1  0  0  0  0
 11 48  1  0  0  0  0
 12 13  1  0  0  0  0
 12 14  1  0  0  0  0
 12 49  1  0  0  0  0
 13 14  1  0  0  0  0
 13 50  1  0  0  0  0
 13 51  1  0  0  0  0
 14 52  1  0  0  0  0
 14 53  1  0  0  0  0
 15 16  1  0  0  0  0
 15 37  2  0  0  0  0
 16 17  2  0  0  0  0
 16 54  1  0  0  0  0
 17 18  1  0  0  0  0
 17 55  1  0  0  0  0
 18 19  1  0  0  0  0
 18 36  2  0  0  0  0
 19 20  2  0  0  0  0
 20 21  1  0  0  0  0
 20 56  1  0  0  0  0
 21 22  1  0  0  0  0
 21 35  2  0  0  0  0
 22 23  1  0  0  0  0
 22 34  2  0  0  0  0
 23 24  2  0  0  0  0
 23 57  1  0  0  0  0
 24 25  1  0  0  0  0
 25 26  1  0  0  0  0
 25 34  1  0  0  0  0
 26 27  1  0  0  0  0
 26 58  1  0  0  0  0
 26 59  1  0  0  0  0
 27 28  1  0  0  0  0
 27 33  1  0  0  0  0
 27 60  1  0  0  0  0
 28 29  1  0  0  0  0
 28 61  1  0  0  0  0
 28 62  1  0  0  0  0
 29 30  1  0  0  0  0
 29 63  1  0  0  0  0
 29 64  1  0  0  0  0
 30 31  1  0  0  0  0
 30 32  1  0  0  0  0
 31 65  1  0  0  0  0
 31 66  1  0  0  0  0
 31 67  1  0  0  0  0
 32 33  1  0  0  0  0
 32 68  1  0  0  0  0
 32 69  1  0  0  0  0
 33 70  1  0  0  0  0
 33 71  1  0  0  0  0
 34 72  1  0  0  0  0
 35 36  1  0  0  0  0
 36 37  1  0  0  0  0
 37 73  1  0  0  0  0
 38 74  1  0  0  0  0
M  END
$$$$
