CHEMBL4166187
 OpenBabel04072215383D

 77 82  0  0  1  0  0  0  0  0999 V2000
    1.2356    1.2790   -0.0352 C   0  0  0  0  0  0  0  0  0  0  0  0
    2.6501    1.0639   -0.0221 O   0  0  0  0  0  0  0  0  0  0  0  0
    3.1152    0.6061    1.1658 C   0  0  0  0  0  0  0  0  0  0  0  0
    2.4371    0.3825    2.1574 O   0  0  0  0  0  0  0  0  0  0  0  0
    4.5946    0.4371    1.1438 C   0  0  0  0  0  0  0  0  0  0  0  0
    5.3956    0.7304    0.0176 C   0  0  0  0  0  0  0  0  0  0  0  0
    6.8017    0.6308    0.0750 C   0  0  0  0  0  0  0  0  0  0  0  0
    7.3989    0.2551    1.2680 C   0  0  0  0  0  0  0  0  0  0  0  0
    6.5783   -0.0538    2.3613 C   0  0  0  0  0  0  0  0  0  0  0  0
    5.1990    0.0120    2.3304 C   0  0  0  0  0  0  0  0  0  0  0  0
    7.3372   -0.3541    3.4841 N   0  0  0  0  0  0  0  0  0  0  0  0
    8.6840   -0.1973    3.2318 C   0  0  0  0  0  0  0  0  0  0  0  0
    9.5519   -0.1303    4.0849 O   0  0  0  0  0  0  0  0  0  0  0  0
    8.7904    0.0688    1.7436 C   0  0  0  0  0  0  0  0  0  0  0  0
    9.9922    0.1206    1.1208 C   0  0  0  0  0  0  0  0  0  0  0  0
   11.2340   -0.2960    1.6094 N   0  0  0  0  0  0  0  0  0  0  0  0
   11.4509   -1.5676    2.1889 C   0  0  0  0  0  0  0  0  0  0  0  0
   10.8653   -2.7125    1.6500 C   0  0  0  0  0  0  0  0  0  0  0  0
   10.9854   -3.9570    2.2796 C   0  0  0  0  0  0  0  0  0  0  0  0
   11.6786   -4.1014    3.4877 C   0  0  0  0  0  0  0  0  0  0  0  0
   11.6750   -5.3382    4.2046 N   0  0  0  0  0  0  0  0  0  0  0  0
   12.0998   -5.4259    5.5786 C   0  0  0  0  0  0  0  0  0  0  0  0
   11.9629   -6.8864    5.9837 C   0  0  0  0  0  0  0  0  0  0  0  0
   11.1689   -7.5599    4.8748 C   0  0  3  0  0  0  0  0  0  0  0  0
   11.8116   -8.8299    4.2922 C   0  0  0  0  0  0  0  0  0  0  0  0
   11.9915   -9.9512    5.2369 N   0  0  0  0  0  0  0  0  0  0  0  0
   10.7036  -10.4406    5.7689 C   0  0  0  0  0  0  0  0  0  0  0  0
   10.8647  -11.7032    6.6461 C   0  0  0  0  0  0  0  0  0  0  0  0
   11.5530  -12.8329    5.9939 N   0  0  0  0  0  0  0  0  0  0  0  0
   10.7101  -13.4667    4.9809 C   0  0  0  0  0  0  0  0  0  0  0  0
   12.8215  -12.3393    5.4207 C   0  0  0  0  0  0  0  0  0  0  0  0
   12.6902  -11.0672    4.5483 C   0  0  0  0  0  0  0  0  0  0  0  0
   11.0902   -6.5267    3.7722 C   0  0  0  0  0  0  0  0  0  0  0  0
   10.5663   -6.7795    2.6921 O   0  0  0  0  0  0  0  0  0  0  0  0
   12.3382   -2.9661    3.9801 C   0  0  0  0  0  0  0  0  0  0  0  0
   12.2426   -1.7214    3.3308 C   0  0  0  0  0  0  0  0  0  0  0  0
   10.1094    0.6999   -0.2317 C   0  0  0  0  0  0  0  0  0  0  0  0
   10.3614    2.0740   -0.3627 C   0  0  0  0  0  0  0  0  0  0  0  0
   10.5381    2.6412   -1.6246 C   0  0  0  0  0  0  0  0  0  0  0  0
   10.4641    1.8406   -2.7626 C   0  0  0  0  0  0  0  0  0  0  0  0
   10.2181    0.4724   -2.6412 C   0  0  0  0  0  0  0  0  0  0  0  0
   10.0462   -0.0999   -1.3786 C   0  0  0  0  0  0  0  0  0  0  0  0
    0.9283    1.4682   -1.0669 H   0  0  0  0  0  0  0  0  0  0  0  0
    0.9838    2.1552    0.5708 H   0  0  0  0  0  0  0  0  0  0  0  0
    0.6976    0.3956    0.3254 H   0  0  0  0  0  0  0  0  0  0  0  0
    4.9333    1.0573   -0.9126 H   0  0  0  0  0  0  0  0  0  0  0  0
    7.3856    0.8729   -0.8070 H   0  0  0  0  0  0  0  0  0  0  0  0
    4.6072   -0.2261    3.2088 H   0  0  0  0  0  0  0  0  0  0  0  0
    6.9739   -0.4965    4.4144 H   0  0  0  0  0  0  0  0  0  0  0  0
   11.7404    0.4528    2.0714 H   0  0  0  0  0  0  0  0  0  0  0  0
   10.2870   -2.6530    0.7334 H   0  0  0  0  0  0  0  0  0  0  0  0
   10.4801   -4.7860    1.8020 H   0  0  0  0  0  0  0  0  0  0  0  0
   11.4445   -4.7942    6.1922 H   0  0  0  0  0  0  0  0  0  0  0  0
   13.1355   -5.0975    5.6915 H   0  0  0  0  0  0  0  0  0  0  0  0
   11.4388   -6.9711    6.9453 H   0  0  0  0  0  0  0  0  0  0  0  0
   12.9491   -7.3414    6.1264 H   0  0  0  0  0  0  0  0  0  0  0  0
   10.1417   -7.7497    5.2060 H   0  0  0  0  0  0  0  0  0  0  0  0
   12.7971   -8.5542    3.8943 H   0  0  0  0  0  0  0  0  0  0  0  0
   11.2238   -9.1685    3.4278 H   0  0  0  0  0  0  0  0  0  0  0  0
   10.0018  -10.6502    4.9497 H   0  0  0  0  0  0  0  0  0  0  0  0
   10.2483   -9.6665    6.3965 H   0  0  0  0  0  0  0  0  0  0  0  0
    9.8813  -12.0225    7.0143 H   0  0  0  0  0  0  0  0  0  0  0  0
   11.4383  -11.4316    7.5430 H   0  0  0  0  0  0  0  0  0  0  0  0
    9.7675  -13.8039    5.4268 H   0  0  0  0  0  0  0  0  0  0  0  0
   11.2022  -14.3614    4.5830 H   0  0  0  0  0  0  0  0  0  0  0  0
   10.4665  -12.8095    4.1403 H   0  0  0  0  0  0  0  0  0  0  0  0
   13.3075  -13.1357    4.8440 H   0  0  0  0  0  0  0  0  0  0  0  0
   13.5043  -12.1203    6.2527 H   0  0  0  0  0  0  0  0  0  0  0  0
   12.1703  -11.3278    3.6165 H   0  0  0  0  0  0  0  0  0  0  0  0
   13.7002  -10.7430    4.2686 H   0  0  0  0  0  0  0  0  0  0  0  0
   12.9370   -3.0092    4.8873 H   0  0  0  0  0  0  0  0  0  0  0  0
   12.7425   -0.8616    3.7683 H   0  0  0  0  0  0  0  0  0  0  0  0
   10.4425    2.7026    0.5210 H   0  0  0  0  0  0  0  0  0  0  0  0
   10.7478    3.7038   -1.7171 H   0  0  0  0  0  0  0  0  0  0  0  0
   10.6127    2.2806   -3.7454 H   0  0  0  0  0  0  0  0  0  0  0  0
   10.1760   -0.1524   -3.5294 H   0  0  0  0  0  0  0  0  0  0  0  0
    9.8777   -1.1697   -1.2931 H   0  0  0  0  0  0  0  0  0  0  0  0
  1  2  1  0  0  0  0
  1 43  1  0  0  0  0
  1 44  1  0  0  0  0
  1 45  1  0  0  0  0
  2  3  1  0  0  0  0
  3  4  2  0  0  0  0
  3  5  1  0  0  0  0
  5  6  1  0  0  0  0
  5 10  2  0  0  0  0
  6  7  2  0  0  0  0
  6 46  1  0  0  0  0
  7  8  1  0  0  0  0
  7 47  1  0  0  0  0
  8  9  2  0  0  0  0
  8 14  1  0  0  0  0
  9 10  1  0  0  0  0
  9 11  1  0  0  0  0
 10 48  1  0  0  0  0
 11 12  1  0  0  0  0
 11 49  1  0  0  0  0
 12 13  2  0  0  0  0
 12 14  1  0  0  0  0
 14 15  2  0  0  0  0
 15 16  1  0  0  0  0
 15 37  1  0  0  0  0
 16 17  1  0  0  0  0
 16 50  1  0  0  0  0
 17 18  1  0  0  0  0
 17 36  2  0  0  0  0
 18 19  2  0  0  0  0
 18 51  1  0  0  0  0
 19 20  1  0  0  0  0
 19 52  1  0  0  0  0
 20 21  1  0  0  0  0
 20 35  2  0  0  0  0
 21 22  1  0  0  0  0
 21 33  1  0  0  0  0
 22 23  1  0  0  0  0
 22 53  1  0  0  0  0
 22 54  1  0  0  0  0
 23 24  1  0  0  0  0
 23 55  1  0  0  0  0
 23 56  1  0  0  0  0
 24 25  1  0  0  0  0
 24 33  1  0  0  0  0
 24 57  1  0  0  0  0
 25 26  1  0  0  0  0
 25 58  1  0  0  0  0
 25 59  1  0  0  0  0
 26 27  1  0  0  0  0
 26 32  1  0  0  0  0
 27 28  1  0  0  0  0
 27 60  1  0  0  0  0
 27 61  1  0  0  0  0
 28 29  1  0  0  0  0
 28 62  1  0  0  0  0
 28 63  1  0  0  0  0
 29 30  1  0  0  0  0
 29 31  1  0  0  0  0
 30 64  1  0  0  0  0
 30 65  1  0  0  0  0
 30 66  1  0  0  0  0
 31 32  1  0  0  0  0
 31 67  1  0  0  0  0
 31 68  1  0  0  0  0
 32 69  1  0  0  0  0
 32 70  1  0  0  0  0
 33 34  2  0  0  0  0
 35 36  1  0  0  0  0
 35 71  1  0  0  0  0
 36 72  1  0  0  0  0
 37 38  1  0  0  0  0
 37 42  2  0  0  0  0
 38 39  2  0  0  0  0
 38 73  1  0  0  0  0
 39 40  1  0  0  0  0
 39 74  1  0  0  0  0
 40 41  2  0  0  0  0
 40 75  1  0  0  0  0
 41 42  1  0  0  0  0
 41 76  1  0  0  0  0
 42 77  1  0  0  0  0
M  END
$$$$
