CHEMBL585205
 OpenBabel04072215383D

 65 69  0  0  0  0  0  0  0  0999 V2000
    3.1344   -1.6879    5.3482 C   0  0  0  0  0  0  0  0  0  0  0  0
    2.4746   -3.0399    5.5254 C   0  0  0  0  0  0  0  0  0  0  0  0
    1.9404   -3.5078    4.2685 N   0  0  0  0  0  0  0  0  0  0  0  0
    0.6826   -3.2973    3.7901 C   0  0  0  0  0  0  0  0  0  0  0  0
    0.5160   -3.8697    2.6250 N   0  0  0  0  0  0  0  0  0  0  0  0
    1.7123   -4.4905    2.3626 C   0  0  0  0  0  0  0  0  0  0  0  0
    1.9143   -5.3890    1.2125 C   0  0  0  0  0  0  0  0  0  0  0  0
    0.9105   -5.6524    0.3177 C   0  0  0  0  0  0  0  0  0  0  0  0
    1.2712   -6.6907   -0.5695 C   0  0  0  0  0  0  0  0  0  0  0  0
    0.4443   -7.1828   -1.5228 N   0  0  0  0  0  0  0  0  0  0  0  0
    0.9762   -8.1449   -2.2869 C   0  0  0  0  0  0  0  0  0  0  0  0
    2.2661   -8.6658   -2.1584 C   0  0  0  0  0  0  0  0  0  0  0  0
    3.1275   -8.1872   -1.1596 C   0  0  0  0  0  0  0  0  0  0  0  0
    4.4965   -8.3671   -1.1434 O   0  0  0  0  0  0  0  0  0  0  0  0
    5.1291   -9.5715   -0.8940 C   0  0  0  0  0  0  0  0  0  0  0  0
    6.0672   -9.6017    0.1494 C   0  0  0  0  0  0  0  0  0  0  0  0
    6.9836  -10.6767    0.3027 C   0  0  0  0  0  0  0  0  0  0  0  0
    6.9993  -11.7500   -0.5936 C   0  0  0  0  0  0  0  0  0  0  0  0
    7.8712  -12.8792   -0.4945 N   0  0  0  0  0  0  0  0  0  0  0  0
    8.7695  -13.1716    0.5167 C   0  0  0  0  0  0  0  0  0  0  0  0
    8.9787  -12.4483    1.4953 O   0  0  0  0  0  0  0  0  0  0  0  0
    9.5711  -14.4897    0.4323 C   0  0  0  0  0  0  0  0  0  0  0  0
    9.3366  -15.4286   -0.7194 C   0  0  0  0  0  0  0  0  0  0  0  0
    8.5096  -15.1836   -1.6039 O   0  0  0  0  0  0  0  0  0  0  0  0
   10.0943  -16.5937   -0.7088 N   0  0  0  0  0  0  0  0  0  0  0  0
   10.0241  -17.5423   -1.8142 C   0  0  0  0  0  0  0  0  0  0  0  0
   10.3369  -18.9842   -1.3832 C   0  0  0  0  0  0  0  0  0  0  0  0
   10.2456  -19.9500   -2.5704 C   0  0  0  0  0  0  0  0  0  0  0  0
   11.1575  -19.5192   -3.7159 C   0  0  0  0  0  0  0  0  0  0  0  0
   10.8701  -18.0834   -4.1442 C   0  0  0  0  0  0  0  0  0  0  0  0
   10.9461  -17.1133   -2.9661 C   0  0  0  0  0  0  0  0  0  0  0  0
    6.0996  -11.6852   -1.6688 C   0  0  0  0  0  0  0  0  0  0  0  0
    5.1846  -10.6175   -1.8100 C   0  0  0  0  0  0  0  0  0  0  0  0
    4.4323  -10.5881   -2.9169 F   0  0  0  0  0  0  0  0  0  0  0  0
    2.5797   -7.1539   -0.3692 C   0  0  0  0  0  0  0  0  0  0  0  0
    3.3341   -6.2594    0.8884 S   0  0  0  0  0  0  0  0  0  0  0  0
    2.6306   -4.2456    3.3532 C   0  0  0  0  0  0  0  0  0  0  0  0
    3.5713   -1.3508    6.2900 H   0  0  0  0  0  0  0  0  0  0  0  0
    2.4065   -0.9422    5.0105 H   0  0  0  0  0  0  0  0  0  0  0  0
    3.9284   -1.7364    4.5940 H   0  0  0  0  0  0  0  0  0  0  0  0
    1.6527   -2.9989    6.2473 H   0  0  0  0  0  0  0  0  0  0  0  0
    3.1969   -3.7851    5.8750 H   0  0  0  0  0  0  0  0  0  0  0  0
   -0.0728   -2.7343    4.3264 H   0  0  0  0  0  0  0  0  0  0  0  0
   -0.0579   -5.1641    0.3434 H   0  0  0  0  0  0  0  0  0  0  0  0
    0.3149   -8.4842   -3.0816 H   0  0  0  0  0  0  0  0  0  0  0  0
    2.5878   -9.3882   -2.8908 H   0  0  0  0  0  0  0  0  0  0  0  0
    6.1505   -8.7594    0.8323 H   0  0  0  0  0  0  0  0  0  0  0  0
    7.7069  -10.6129    1.1096 H   0  0  0  0  0  0  0  0  0  0  0  0
    7.7811  -13.5835   -1.2272 H   0  0  0  0  0  0  0  0  0  0  0  0
    9.3595  -15.0336    1.3563 H   0  0  0  0  0  0  0  0  0  0  0  0
   10.6275  -14.2123    0.4319 H   0  0  0  0  0  0  0  0  0  0  0  0
   10.8750  -16.6571   -0.0590 H   0  0  0  0  0  0  0  0  0  0  0  0
    8.9898  -17.5267   -2.1842 H   0  0  0  0  0  0  0  0  0  0  0  0
    9.6343  -19.3053   -0.6042 H   0  0  0  0  0  0  0  0  0  0  0  0
   11.3408  -19.0441   -0.9433 H   0  0  0  0  0  0  0  0  0  0  0  0
    9.2097  -19.9912   -2.9299 H   0  0  0  0  0  0  0  0  0  0  0  0
   10.5098  -20.9645   -2.2519 H   0  0  0  0  0  0  0  0  0  0  0  0
   11.0245  -20.1929   -4.5708 H   0  0  0  0  0  0  0  0  0  0  0  0
   12.2049  -19.6064   -3.4025 H   0  0  0  0  0  0  0  0  0  0  0  0
    9.8702  -18.0319   -4.5928 H   0  0  0  0  0  0  0  0  0  0  0  0
   11.5827  -17.7803   -4.9189 H   0  0  0  0  0  0  0  0  0  0  0  0
   10.6761  -16.1075   -3.3102 H   0  0  0  0  0  0  0  0  0  0  0  0
   11.9834  -17.0525   -2.6112 H   0  0  0  0  0  0  0  0  0  0  0  0
    6.1144  -12.4417   -2.4492 H   0  0  0  0  0  0  0  0  0  0  0  0
    3.6526   -4.5619    3.5003 H   0  0  0  0  0  0  0  0  0  0  0  0
  1  2  1  0  0  0  0
  1 38  1  0  0  0  0
  1 39  1  0  0  0  0
  1 40  1  0  0  0  0
  2  3  1  0  0  0  0
  2 41  1  0  0  0  0
  2 42  1  0  0  0  0
  3  4  1  0  0  0  0
  3 37  1  0  0  0  0
  4  5  2  0  0  0  0
  4 43  1  0  0  0  0
  5  6  1  0  0  0  0
  6  7  1  0  0  0  0
  6 37  2  0  0  0  0
  7  8  2  0  0  0  0
  7 36  1  0  0  0  0
  8  9  1  0  0  0  0
  8 44  1  0  0  0  0
  9 10  1  0  0  0  0
  9 35  2  0  0  0  0
 10 11  2  0  0  0  0
 11 12  1  0  0  0  0
 11 45  1  0  0  0  0
 12 13  2  0  0  0  0
 12 46  1  0  0  0  0
 13 14  1  0  0  0  0
 13 35  1  0  0  0  0
 14 15  1  0  0  0  0
 15 16  1  0  0  0  0
 15 33  2  0  0  0  0
 16 17  2  0  0  0  0
 16 47  1  0  0  0  0
 17 18  1  0  0  0  0
 17 48  1  0  0  0  0
 18 19  1  0  0  0  0
 18 32  2  0  0  0  0
 19 20  1  0  0  0  0
 19 49  1  0  0  0  0
 20 21  2  0  0  0  0
 20 22  1  0  0  0  0
 22 23  1  0  0  0  0
 22 50  1  0  0  0  0
 22 51  1  0  0  0  0
 23 24  2  0  0  0  0
 23 25  1  0  0  0  0
 25 26  1  0  0  0  0
 25 52  1  0  0  0  0
 26 27  1  0  0  0  0
 26 31  1  0  0  0  0
 26 53  1  0  0  0  0
 27 28  1  0  0  0  0
 27 54  1  0  0  0  0
 27 55  1  0  0  0  0
 28 29  1  0  0  0  0
 28 56  1  0  0  0  0
 28 57  1  0  0  0  0
 29 30  1  0  0  0  0
 29 58  1  0  0  0  0
 29 59  1  0  0  0  0
 30 31  1  0  0  0  0
 30 60  1  0  0  0  0
 30 61  1  0  0  0  0
 31 62  1  0  0  0  0
 31 63  1  0  0  0  0
 32 33  1  0  0  0  0
 32 64  1  0  0  0  0
 33 34  1  0  0  0  0
 35 36  1  0  0  0  0
 37 65  1  0  0  0  0
M  END
$$$$
