CHEMBL150894
 OpenBabel04072215363D

 61 66  0  0  0  0  0  0  0  0999 V2000
    7.0691   -1.7901    0.8695 C   0  0  0  0  0  0  0  0  0  0  0  0
    5.6868   -1.1744    0.7131 C   0  0  0  0  0  0  0  0  0  0  0  0
    5.1076   -0.7932    2.0713 C   0  0  0  0  0  0  0  0  0  0  0  0
    5.8518   -0.0279   -0.1166 O   0  0  0  0  0  0  0  0  0  0  0  0
    4.6212    0.5578   -0.4987 C   0  0  0  0  0  0  0  0  0  0  0  0
    4.8861    1.6698   -1.4630 C   0  0  0  0  0  0  0  0  0  0  0  0
    5.4149    1.4063   -2.7289 C   0  0  0  0  0  0  0  0  0  0  0  0
    5.4832    2.3994   -3.7061 C   0  0  0  0  0  0  0  0  0  0  0  0
    4.9745    3.6695   -3.3996 C   0  0  0  0  0  0  0  0  0  0  0  0
    4.5551    3.9685   -2.0907 C   0  0  0  0  0  0  0  0  0  0  0  0
    4.5437    2.9770   -1.1047 C   0  0  0  0  0  0  0  0  0  0  0  0
    4.3354    5.3215   -2.1570 C   0  0  0  0  0  0  0  0  0  0  0  0
    4.4652    6.2343   -1.0912 C   0  0  0  0  0  0  0  0  0  0  0  0
    4.8607    7.5641   -1.4814 C   0  0  0  0  0  0  0  0  0  0  0  0
    4.8570    7.9416   -2.8230 C   0  0  0  0  0  0  0  0  0  0  0  0
    3.9523    7.1578   -3.5651 C   0  0  0  0  0  0  0  0  0  0  0  0
    4.1971    5.8136   -3.4178 C   0  0  0  0  0  0  0  0  0  0  0  0
    4.9026    4.8597   -4.1687 N   0  0  0  0  0  0  0  0  0  0  0  0
    5.9474    5.2436   -5.1223 C   0  0  0  0  0  0  0  0  0  0  0  0
    6.4295    4.3167   -6.2343 C   0  0  0  0  0  0  0  0  0  0  0  0
    5.3285    3.9891   -7.2219 C   0  0  0  0  0  0  0  0  0  0  0  0
    5.8324    3.1270   -8.2339 O   0  0  0  0  0  0  0  0  0  0  0  0
    3.4681    7.9903   -4.6759 C   0  0  0  0  0  0  0  0  0  0  0  0
    4.7785    8.6051   -5.0623 C   0  0  0  0  0  0  0  0  0  0  0  0
    5.1507    8.6403   -6.4004 C   0  0  0  0  0  0  0  0  0  0  0  0
    6.4898    8.4575   -6.6715 C   0  0  0  0  0  0  0  0  0  0  0  0
    7.4100    8.3521   -5.6080 C   0  0  0  0  0  0  0  0  0  0  0  0
    7.0086    8.4180   -4.2350 C   0  0  0  0  0  0  0  0  0  0  0  0
    5.6583    8.5298   -3.9245 C   0  0  0  0  0  0  0  0  0  0  0  0
    4.4086    8.4197   -0.3979 C   0  0  0  0  0  0  0  0  0  0  0  0
    4.3063    9.6336   -0.2875 O   0  0  0  0  0  0  0  0  0  0  0  0
    3.8363    7.5577    0.5574 N   0  0  0  0  0  0  0  0  0  0  0  0
    3.8468    6.1433    0.2279 C   0  0  0  0  0  0  0  0  0  0  0  0
    7.0501   -2.6716    1.4748 H   0  0  0  0  0  0  0  0  0  0  0  0
    7.7754   -1.0754    1.2979 H   0  0  0  0  0  0  0  0  0  0  0  0
    7.4806   -2.0542   -0.1077 H   0  0  0  0  0  0  0  0  0  0  0  0
    5.0283   -1.8994    0.2127 H   0  0  0  0  0  0  0  0  0  0  0  0
    5.6341    0.0717    2.4905 H   0  0  0  0  0  0  0  0  0  0  0  0
    5.1517   -1.6232    2.7807 H   0  0  0  0  0  0  0  0  0  0  0  0
    4.0544   -0.5014    1.9778 H   0  0  0  0  0  0  0  0  0  0  0  0
    4.1005    0.9577    0.3767 H   0  0  0  0  0  0  0  0  0  0  0  0
    3.9649   -0.1783   -0.9791 H   0  0  0  0  0  0  0  0  0  0  0  0
    5.7682    0.4059   -2.9696 H   0  0  0  0  0  0  0  0  0  0  0  0
    5.8857    2.1459   -4.6775 H   0  0  0  0  0  0  0  0  0  0  0  0
    4.2051    3.2062   -0.0998 H   0  0  0  0  0  0  0  0  0  0  0  0
    6.8169    5.5273   -4.5097 H   0  0  0  0  0  0  0  0  0  0  0  0
    5.5717    6.1263   -5.6219 H   0  0  0  0  0  0  0  0  0  0  0  0
    6.9121    3.4118   -5.8550 H   0  0  0  0  0  0  0  0  0  0  0  0
    7.2410    4.8235   -6.7782 H   0  0  0  0  0  0  0  0  0  0  0  0
    4.9519    4.8999   -7.6996 H   0  0  0  0  0  0  0  0  0  0  0  0
    4.4947    3.4843   -6.7294 H   0  0  0  0  0  0  0  0  0  0  0  0
    6.5092    3.6162   -8.7327 H   0  0  0  0  0  0  0  0  0  0  0  0
    2.8224    8.7890   -4.2514 H   0  0  0  0  0  0  0  0  0  0  0  0
    2.9167    7.4443   -5.4328 H   0  0  0  0  0  0  0  0  0  0  0  0
    4.3948    8.5541   -7.1771 H   0  0  0  0  0  0  0  0  0  0  0  0
    6.7914    8.2630   -7.7002 H   0  0  0  0  0  0  0  0  0  0  0  0
    8.4372    8.0917   -5.8654 H   0  0  0  0  0  0  0  0  0  0  0  0
    7.7558    8.1663   -3.4822 H   0  0  0  0  0  0  0  0  0  0  0  0
    3.1381    7.9502    1.1785 H   0  0  0  0  0  0  0  0  0  0  0  0
    2.8160    5.7741    0.1579 H   0  0  0  0  0  0  0  0  0  0  0  0
    4.4240    5.5949    0.9716 H   0  0  0  0  0  0  0  0  0  0  0  0
  1  2  1  0  0  0  0
  1 34  1  0  0  0  0
  1 35  1  0  0  0  0
  1 36  1  0  0  0  0
  2  3  1  0  0  0  0
  2  4  1  0  0  0  0
  2 37  1  0  0  0  0
  3 38  1  0  0  0  0
  3 39  1  0  0  0  0
  3 40  1  0  0  0  0
  4  5  1  0  0  0  0
  5  6  1  0  0  0  0
  5 41  1  0  0  0  0
  5 42  1  0  0  0  0
  6  7  1  0  0  0  0
  6 11  2  0  0  0  0
  7  8  2  0  0  0  0
  7 43  1  0  0  0  0
  8  9  1  0  0  0  0
  8 44  1  0  0  0  0
  9 10  2  0  0  0  0
  9 18  1  0  0  0  0
 10 11  1  0  0  0  0
 10 12  1  0  0  0  0
 11 45  1  0  0  0  0
 12 13  1  0  0  0  0
 12 17  2  0  0  0  0
 13 14  2  0  0  0  0
 13 33  1  0  0  0  0
 14 15  1  0  0  0  0
 14 30  1  0  0  0  0
 15 16  2  0  0  0  0
 15 29  1  0  0  0  0
 16 17  1  0  0  0  0
 16 23  1  0  0  0  0
 17 18  1  0  0  0  0
 18 19  1  0  0  0  0
 19 20  1  0  0  0  0
 19 46  1  0  0  0  0
 19 47  1  0  0  0  0
 20 21  1  0  0  0  0
 20 48  1  0  0  0  0
 20 49  1  0  0  0  0
 21 22  1  0  0  0  0
 21 50  1  0  0  0  0
 21 51  1  0  0  0  0
 22 52  1  0  0  0  0
 23 24  1  0  0  0  0
 23 53  1  0  0  0  0
 23 54  1  0  0  0  0
 24 25  1  0  0  0  0
 24 29  2  0  0  0  0
 25 26  2  0  0  0  0
 25 55  1  0  0  0  0
 26 27  1  0  0  0  0
 26 56  1  0  0  0  0
 27 28  2  0  0  0  0
 27 57  1  0  0  0  0
 28 29  1  0  0  0  0
 28 58  1  0  0  0  0
 30 31  2  0  0  0  0
 30 32  1  0  0  0  0
 32 33  1  0  0  0  0
 32 59  1  0  0  0  0
 33 60  1  0  0  0  0
 33 61  1  0  0  0  0
M  END
$$$$
