CHEMBL262721
 OpenBabel04072215363D

 57 61  0  0  0  0  0  0  0  0999 V2000
    1.9359    0.1521    1.0309 C   0  0  0  0  0  0  0  0  0  0  0  0
    3.0749   -0.6738    1.2206 O   0  0  0  0  0  0  0  0  0  0  0  0
    3.4259   -1.5332    0.2249 C   0  0  0  0  0  0  0  0  0  0  0  0
    2.6862   -1.8747   -0.9023 C   0  0  0  0  0  0  0  0  0  0  0  0
    3.1975   -2.8058   -1.8297 C   0  0  0  0  0  0  0  0  0  0  0  0
    2.4620   -3.2421   -2.9114 O   0  0  0  0  0  0  0  0  0  0  0  0
    1.4906   -2.3545   -3.4991 C   0  0  0  0  0  0  0  0  0  0  0  0
    0.0713   -2.6660   -3.0173 C   0  0  0  0  0  0  0  0  0  0  0  0
   -0.3645   -4.0723   -3.4220 C   0  0  0  0  0  0  0  0  0  0  0  0
   -0.2572   -4.3179   -4.8660 N   0  0  0  0  0  0  0  0  0  0  0  0
   -0.5258   -5.7375   -5.1374 C   0  0  0  0  0  0  0  0  0  0  0  0
    1.0496   -3.9446   -5.4258 C   0  0  0  0  0  0  0  0  0  0  0  0
    1.5225   -2.5489   -5.0155 C   0  0  0  0  0  0  0  0  0  0  0  0
    4.4857   -3.4100   -1.6258 C   0  0  0  0  0  0  0  0  0  0  0  0
    5.2195   -4.3028   -2.4610 C   0  0  0  0  0  0  0  0  0  0  0  0
    4.7390   -4.6884   -3.7417 N   0  0  0  0  0  0  0  0  0  0  0  0
    5.5696   -5.1358   -4.8073 C   0  0  0  0  0  0  0  0  0  0  0  0
    6.7819   -4.4697   -5.0738 C   0  0  0  0  0  0  0  0  0  0  0  0
    7.6401   -4.8895   -6.0908 C   0  0  0  0  0  0  0  0  0  0  0  0
    7.3036   -5.9957   -6.8610 C   0  0  0  0  0  0  0  0  0  0  0  0
    6.1113   -6.6774   -6.6171 C   0  0  0  0  0  0  0  0  0  0  0  0
    5.2331   -6.2415   -5.6112 C   0  0  0  0  0  0  0  0  0  0  0  0
    4.0363   -6.8778   -5.3761 O   0  0  0  0  0  0  0  0  0  0  0  0
    4.1277   -8.2560   -5.7470 C   0  0  0  0  0  0  0  0  0  0  0  0
    4.6748   -8.4537   -7.1537 C   0  0  0  0  0  0  0  0  0  0  0  0
    5.9107   -7.7861   -7.3934 O   0  0  0  0  0  0  0  0  0  0  0  0
    6.4314   -4.7936   -2.1128 N   0  0  0  0  0  0  0  0  0  0  0  0
    6.9515   -4.3925   -0.9590 C   0  0  0  0  0  0  0  0  0  0  0  0
    6.3878   -3.5339   -0.1207 N   0  0  0  0  0  0  0  0  0  0  0  0
    5.1908   -3.0585   -0.4590 C   0  0  0  0  0  0  0  0  0  0  0  0
    4.6596   -2.1414    0.4255 C   0  0  0  0  0  0  0  0  0  0  0  0
    1.8156    0.7580    1.9367 H   0  0  0  0  0  0  0  0  0  0  0  0
    1.0271   -0.4422    0.9102 H   0  0  0  0  0  0  0  0  0  0  0  0
    2.0835    0.8356    0.1896 H   0  0  0  0  0  0  0  0  0  0  0  0
    1.7092   -1.4376   -1.0429 H   0  0  0  0  0  0  0  0  0  0  0  0
    1.7469   -1.3074   -3.2966 H   0  0  0  0  0  0  0  0  0  0  0  0
   -0.6260   -1.9301   -3.4394 H   0  0  0  0  0  0  0  0  0  0  0  0
   -0.0008   -2.5864   -1.9281 H   0  0  0  0  0  0  0  0  0  0  0  0
   -1.4130   -4.2011   -3.1218 H   0  0  0  0  0  0  0  0  0  0  0  0
    0.2237   -4.8013   -2.8501 H   0  0  0  0  0  0  0  0  0  0  0  0
   -1.5957   -5.9479   -5.0368 H   0  0  0  0  0  0  0  0  0  0  0  0
    0.0203   -6.3982   -4.4517 H   0  0  0  0  0  0  0  0  0  0  0  0
   -0.2384   -6.0159   -6.1576 H   0  0  0  0  0  0  0  0  0  0  0  0
    0.9629   -3.9502   -6.5207 H   0  0  0  0  0  0  0  0  0  0  0  0
    1.8158   -4.6819   -5.1606 H   0  0  0  0  0  0  0  0  0  0  0  0
    0.8876   -1.7908   -5.4922 H   0  0  0  0  0  0  0  0  0  0  0  0
    2.5430   -2.4022   -5.3889 H   0  0  0  0  0  0  0  0  0  0  0  0
    3.8816   -5.2278   -3.6602 H   0  0  0  0  0  0  0  0  0  0  0  0
    7.0714   -3.6132   -4.4693 H   0  0  0  0  0  0  0  0  0  0  0  0
    8.5726   -4.3608   -6.2672 H   0  0  0  0  0  0  0  0  0  0  0  0
    7.9732   -6.3337   -7.6475 H   0  0  0  0  0  0  0  0  0  0  0  0
    3.1207   -8.6832   -5.6908 H   0  0  0  0  0  0  0  0  0  0  0  0
    4.7471   -8.7745   -5.0054 H   0  0  0  0  0  0  0  0  0  0  0  0
    3.9572   -8.1247   -7.9126 H   0  0  0  0  0  0  0  0  0  0  0  0
    4.8566   -9.5226   -7.3167 H   0  0  0  0  0  0  0  0  0  0  0  0
    7.9224   -4.7906   -0.6884 H   0  0  0  0  0  0  0  0  0  0  0  0
    5.2354   -1.8782    1.3153 H   0  0  0  0  0  0  0  0  0  0  0  0
  1  2  1  0  0  0  0
  1 32  1  0  0  0  0
  1 33  1  0  0  0  0
  1 34  1  0  0  0  0
  2  3  1  0  0  0  0
  3  4  1  0  0  0  0
  3 31  2  0  0  0  0
  4  5  2  0  0  0  0
  4 35  1  0  0  0  0
  5  6  1  0  0  0  0
  5 14  1  0  0  0  0
  6  7  1  0  0  0  0
  7  8  1  0  0  0  0
  7 13  1  0  0  0  0
  7 36  1  0  0  0  0
  8  9  1  0  0  0  0
  8 37  1  0  0  0  0
  8 38  1  0  0  0  0
  9 10  1  0  0  0  0
  9 39  1  0  0  0  0
  9 40  1  0  0  0  0
 10 11  1  0  0  0  0
 10 12  1  0  0  0  0
 11 41  1  0  0  0  0
 11 42  1  0  0  0  0
 11 43  1  0  0  0  0
 12 13  1  0  0  0  0
 12 44  1  0  0  0  0
 12 45  1  0  0  0  0
 13 46  1  0  0  0  0
 13 47  1  0  0  0  0
 14 15  1  0  0  0  0
 14 30  2  0  0  0  0
 15 16  1  0  0  0  0
 15 27  2  0  0  0  0
 16 17  1  0  0  0  0
 16 48  1  0  0  0  0
 17 18  1  0  0  0  0
 17 22  2  0  0  0  0
 18 19  2  0  0  0  0
 18 49  1  0  0  0  0
 19 20  1  0  0  0  0
 19 50  1  0  0  0  0
 20 21  2  0  0  0  0
 20 51  1  0  0  0  0
 21 22  1  0  0  0  0
 21 26  1  0  0  0  0
 22 23  1  0  0  0  0
 23 24  1  0  0  0  0
 24 25  1  0  0  0  0
 24 52  1  0  0  0  0
 24 53  1  0  0  0  0
 25 26  1  0  0  0  0
 25 54  1  0  0  0  0
 25 55  1  0  0  0  0
 27 28  1  0  0  0  0
 28 29  2  0  0  0  0
 28 56  1  0  0  0  0
 29 30  1  0  0  0  0
 30 31  1  0  0  0  0
 31 57  1  0  0  0  0
M  END
$$$$
