CHEMBL1242032
 OpenBabel04072215363D

 39 41  0  0  0  0  0  0  0  0999 V2000
    3.2835    0.5964    1.0838 C   0  0  0  0  0  0  0  0  0  0  0  0
    2.4534   -0.2122    0.0857 C   0  0  0  0  0  0  0  0  0  0  0  0
    2.3876    0.4993   -1.2662 C   0  0  0  0  0  0  0  0  0  0  0  0
    2.9404   -1.5812   -0.0626 N   0  0  0  0  0  0  0  0  0  0  0  0
    4.1943   -1.8123   -0.5136 N   0  0  0  0  0  0  0  0  0  0  0  0
    4.2687   -3.1522   -0.6261 C   0  0  0  0  0  0  0  0  0  0  0  0
    5.4898   -3.7930   -1.1282 C   0  0  0  0  0  0  0  0  0  0  0  0
    6.7553   -3.2453   -0.8646 C   0  0  0  0  0  0  0  0  0  0  0  0
    7.9185   -3.9457   -1.2068 C   0  0  0  0  0  0  0  0  0  0  0  0
    7.8097   -5.2124   -1.7870 C   0  0  0  0  0  0  0  0  0  0  0  0
    9.2494   -6.1820   -2.1093 S   0  0  0  0  0  0  0  0  0  0  0  0
    9.3949   -7.0284   -0.6642 N   0  0  0  0  0  0  0  0  0  0  0  0
    8.9475   -7.1711   -3.1153 O   0  0  0  0  0  0  0  0  0  0  0  0
   10.4055   -5.3167   -2.1862 O   0  0  0  0  0  0  0  0  0  0  0  0
    6.5637   -5.7316   -2.1285 C   0  0  0  0  0  0  0  0  0  0  0  0
    5.4167   -4.9967   -1.8410 C   0  0  0  0  0  0  0  0  0  0  0  0
    3.0621   -3.7800   -0.1680 C   0  0  0  0  0  0  0  0  0  0  0  0
    2.5358   -5.0720    0.0126 C   0  0  0  0  0  0  0  0  0  0  0  0
    3.2070   -6.2651   -0.2234 N   0  0  0  0  0  0  0  0  0  0  0  0
    1.2741   -5.2044    0.4615 N   0  0  0  0  0  0  0  0  0  0  0  0
    0.5711   -4.0916    0.7388 C   0  0  0  0  0  0  0  0  0  0  0  0
    0.9672   -2.8148    0.6323 N   0  0  0  0  0  0  0  0  0  0  0  0
    2.2277   -2.7265    0.1710 C   0  0  0  0  0  0  0  0  0  0  0  0
    2.8250    1.5769    1.2571 H   0  0  0  0  0  0  0  0  0  0  0  0
    4.3024    0.7661    0.7193 H   0  0  0  0  0  0  0  0  0  0  0  0
    3.3520    0.0831    2.0487 H   0  0  0  0  0  0  0  0  0  0  0  0
    1.4329   -0.2786    0.4821 H   0  0  0  0  0  0  0  0  0  0  0  0
    3.3740    0.5575   -1.7399 H   0  0  0  0  0  0  0  0  0  0  0  0
    2.0103    1.5209   -1.1507 H   0  0  0  0  0  0  0  0  0  0  0  0
    1.7201   -0.0321   -1.9529 H   0  0  0  0  0  0  0  0  0  0  0  0
    6.8404   -2.2784   -0.3704 H   0  0  0  0  0  0  0  0  0  0  0  0
    8.8931   -3.5138   -0.9899 H   0  0  0  0  0  0  0  0  0  0  0  0
    9.2762   -8.0281   -0.8319 H   0  0  0  0  0  0  0  0  0  0  0  0
   10.2722   -6.7832   -0.2045 H   0  0  0  0  0  0  0  0  0  0  0  0
    6.4700   -6.7089   -2.5967 H   0  0  0  0  0  0  0  0  0  0  0  0
    4.4573   -5.4011   -2.1557 H   0  0  0  0  0  0  0  0  0  0  0  0
    4.1938   -6.2497    0.0011 H   0  0  0  0  0  0  0  0  0  0  0  0
    2.6884   -7.0481    0.1584 H   0  0  0  0  0  0  0  0  0  0  0  0
   -0.4416   -4.2529    1.0992 H   0  0  0  0  0  0  0  0  0  0  0  0
  1  2  1  0  0  0  0
  1 24  1  0  0  0  0
  1 25  1  0  0  0  0
  1 26  1  0  0  0  0
  2  3  1  0  0  0  0
  2  4  1  0  0  0  0
  2 27  1  0  0  0  0
  3 28  1  0  0  0  0
  3 29  1  0  0  0  0
  3 30  1  0  0  0  0
  4  5  1  0  0  0  0
  4 23  1  0  0  0  0
  5  6  2  0  0  0  0
  6  7  1  0  0  0  0
  6 17  1  0  0  0  0
  7  8  1  0  0  0  0
  7 16  2  0  0  0  0
  8  9  2  0  0  0  0
  8 31  1  0  0  0  0
  9 10  1  0  0  0  0
  9 32  1  0  0  0  0
 10 11  1  0  0  0  0
 10 15  2  0  0  0  0
 11 12  1  0  0  0  0
 11 13  2  0  0  0  0
 11 14  2  0  0  0  0
 12 33  1  0  0  0  0
 12 34  1  0  0  0  0
 15 16  1  0  0  0  0
 15 35  1  0  0  0  0
 16 36  1  0  0  0  0
 17 18  1  0  0  0  0
 17 23  2  0  0  0  0
 18 19  1  0  0  0  0
 18 20  2  0  0  0  0
 19 37  1  0  0  0  0
 19 38  1  0  0  0  0
 20 21  1  0  0  0  0
 21 22  2  0  0  0  0
 21 39  1  0  0  0  0
 22 23  1  0  0  0  0
M  END
$$$$
