CHEMBL215658
 OpenBabel04072215363D

 46 50  0  0  0  0  0  0  0  0999 V2000
    1.9964    0.0404   -0.9618 C   0  0  0  0  0  0  0  0  0  0  0  0
    0.5493    0.2219   -1.0353 N   0  0  0  0  0  0  0  0  0  0  0  0
   -0.1544   -1.0273   -0.7030 C   0  0  0  0  0  0  0  0  0  0  0  0
   -1.6882   -0.8355   -0.7111 C   0  0  0  0  0  0  0  0  0  0  0  0
   -2.1794    0.2018    0.2231 N   0  0  0  0  0  0  0  0  0  0  0  0
   -2.0199   -0.1480    1.6465 C   0  0  0  0  0  0  0  0  0  0  0  0
   -2.7472   -1.4133    2.0744 C   0  0  0  0  0  0  0  0  0  0  0  0
   -2.0742   -2.6622    2.0005 C   0  0  0  0  0  0  0  0  0  0  0  0
   -2.7042   -3.8623    2.3283 C   0  0  0  0  0  0  0  0  0  0  0  0
   -3.9973   -3.7795    2.7766 C   0  0  0  0  0  0  0  0  0  0  0  0
   -4.6897   -2.5464    2.9159 C   0  0  0  0  0  0  0  0  0  0  0  0
   -4.0739   -1.3603    2.5406 C   0  0  0  0  0  0  0  0  0  0  0  0
   -6.0991   -2.7172    3.5268 C   0  0  0  0  0  0  0  0  0  0  0  0
   -6.0693   -4.2033    3.6735 C   0  0  0  0  0  0  0  0  0  0  0  0
   -6.8158   -5.2826    4.1708 C   0  0  0  0  0  0  0  0  0  0  0  0
   -8.1432   -5.2402    4.8481 C   0  0  0  0  0  0  0  0  0  0  0  0
   -8.7923   -6.3445    5.3630 C   0  0  0  0  0  0  0  0  0  0  0  0
  -10.0121   -6.0975    5.9710 N   0  0  0  0  0  0  0  0  0  0  0  0
  -10.2645   -4.8092    5.9052 C   0  0  0  0  0  0  0  0  0  0  0  0
   -9.0808   -3.8391    5.1307 S   0  0  0  0  0  0  0  0  0  0  0  0
   -6.1559   -6.4488    3.9868 N   0  0  0  0  0  0  0  0  0  0  0  0
   -4.9851   -6.0947    3.4020 N   0  0  0  0  0  0  0  0  0  0  0  0
   -4.9051   -4.7661    3.2320 C   0  0  0  0  0  0  0  0  0  0  0  0
   -1.4466    1.4534   -0.0922 C   0  0  0  0  0  0  0  0  0  0  0  0
    0.1002    1.3166   -0.1545 C   0  0  0  0  0  0  0  0  0  0  0  0
    2.3172   -0.7714   -1.6246 H   0  0  0  0  0  0  0  0  0  0  0  0
    2.3348   -0.1951    0.0539 H   0  0  0  0  0  0  0  0  0  0  0  0
    2.5135    0.9452   -1.2981 H   0  0  0  0  0  0  0  0  0  0  0  0
    0.1761   -1.3995    0.2737 H   0  0  0  0  0  0  0  0  0  0  0  0
    0.0983   -1.7989   -1.4400 H   0  0  0  0  0  0  0  0  0  0  0  0
   -2.1900   -1.7933   -0.5422 H   0  0  0  0  0  0  0  0  0  0  0  0
   -1.9947   -0.5480   -1.7267 H   0  0  0  0  0  0  0  0  0  0  0  0
   -2.4191    0.6762    2.2542 H   0  0  0  0  0  0  0  0  0  0  0  0
   -0.9670   -0.2375    1.9389 H   0  0  0  0  0  0  0  0  0  0  0  0
   -1.0414   -2.6999    1.6658 H   0  0  0  0  0  0  0  0  0  0  0  0
   -2.1822   -4.8065    2.2445 H   0  0  0  0  0  0  0  0  0  0  0  0
   -4.6003   -0.4119    2.6136 H   0  0  0  0  0  0  0  0  0  0  0  0
   -6.8715   -2.3824    2.8306 H   0  0  0  0  0  0  0  0  0  0  0  0
   -6.1614   -2.2128    4.4946 H   0  0  0  0  0  0  0  0  0  0  0  0
   -8.4150   -7.3605    5.3277 H   0  0  0  0  0  0  0  0  0  0  0  0
  -11.1671   -4.3772    6.3161 H   0  0  0  0  0  0  0  0  0  0  0  0
   -4.3139   -6.8185    3.1683 H   0  0  0  0  0  0  0  0  0  0  0  0
   -1.7164    2.2406    0.6226 H   0  0  0  0  0  0  0  0  0  0  0  0
   -1.8001    1.8122   -1.0687 H   0  0  0  0  0  0  0  0  0  0  0  0
    0.4880    1.1740    0.8622 H   0  0  0  0  0  0  0  0  0  0  0  0
    0.5115    2.2635   -0.5246 H   0  0  0  0  0  0  0  0  0  0  0  0
  1  2  1  0  0  0  0
  1 26  1  0  0  0  0
  1 27  1  0  0  0  0
  1 28  1  0  0  0  0
  2  3  1  0  0  0  0
  2 25  1  0  0  0  0
  3  4  1  0  0  0  0
  3 29  1  0  0  0  0
  3 30  1  0  0  0  0
  4  5  1  0  0  0  0
  4 31  1  0  0  0  0
  4 32  1  0  0  0  0
  5  6  1  0  0  0  0
  5 24  1  0  0  0  0
  6  7  1  0  0  0  0
  6 33  1  0  0  0  0
  6 34  1  0  0  0  0
  7  8  1  0  0  0  0
  7 12  2  0  0  0  0
  8  9  2  0  0  0  0
  8 35  1  0  0  0  0
  9 10  1  0  0  0  0
  9 36  1  0  0  0  0
 10 11  2  0  0  0  0
 10 23  1  0  0  0  0
 11 12  1  0  0  0  0
 11 13  1  0  0  0  0
 12 37  1  0  0  0  0
 13 14  1  0  0  0  0
 13 38  1  0  0  0  0
 13 39  1  0  0  0  0
 14 15  1  0  0  0  0
 14 23  2  0  0  0  0
 15 16  1  0  0  0  0
 15 21  2  0  0  0  0
 16 17  2  0  0  0  0
 16 20  1  0  0  0  0
 17 18  1  0  0  0  0
 17 40  1  0  0  0  0
 18 19  2  0  0  0  0
 19 20  1  0  0  0  0
 19 41  1  0  0  0  0
 21 22  1  0  0  0  0
 22 23  1  0  0  0  0
 22 42  1  0  0  0  0
 24 25  1  0  0  0  0
 24 43  1  0  0  0  0
 24 44  1  0  0  0  0
 25 45  1  0  0  0  0
 25 46  1  0  0  0  0
M  END
$$$$
