CHEMBL4215703
 OpenBabel04072215383D

 50 54  0  0  0  0  0  0  0  0999 V2000
    5.6677    2.0485   -0.5569 C   0  0  0  0  0  0  0  0  0  0  0  0
    4.7490    0.9895   -0.0352 C   0  0  0  0  0  0  0  0  0  0  0  0
    5.2186   -0.2144    0.2937 C   0  0  0  0  0  0  0  0  0  0  0  0
    4.3518   -1.2984    0.7757 C   0  0  0  0  0  0  0  0  0  0  0  0
    4.9036   -2.3730    1.0211 O   0  0  0  0  0  0  0  0  0  0  0  0
    2.9889   -1.0045    0.8508 N   0  0  0  0  0  0  0  0  0  0  0  0
    2.0291   -1.9677    1.3064 C   0  0  0  0  0  0  0  0  0  0  0  0
    2.3910   -3.0165    2.1718 C   0  0  0  0  0  0  0  0  0  0  0  0
    1.4597   -3.9733    2.5809 C   0  0  0  0  0  0  0  0  0  0  0  0
    0.1546   -3.8962    2.1165 C   0  0  0  0  0  0  0  0  0  0  0  0
   -0.7367   -4.8234    2.4910 F   0  0  0  0  0  0  0  0  0  0  0  0
   -0.2388   -2.8681    1.2680 C   0  0  0  0  0  0  0  0  0  0  0  0
    0.6917   -1.8981    0.8775 C   0  0  0  0  0  0  0  0  0  0  0  0
    2.4563    0.2417    0.5246 N   0  0  0  0  0  0  0  0  0  0  0  0
    3.2760    1.1760    0.1348 C   0  0  0  0  0  0  0  0  0  0  0  0
    2.6698    2.5713   -0.1519 C   0  0  0  0  0  0  0  0  0  0  0  0
    3.3633    3.4237   -0.6877 O   0  0  0  0  0  0  0  0  0  0  0  0
    1.3590    2.7372    0.2799 N   0  0  0  0  0  0  0  0  0  0  0  0
    0.5999    3.9329    0.1890 C   0  0  0  0  0  0  0  0  0  0  0  0
    1.0266    5.0511   -0.5374 C   0  0  0  0  0  0  0  0  0  0  0  0
    0.2740    6.2305   -0.5757 C   0  0  0  0  0  0  0  0  0  0  0  0
   -0.9146    6.3287    0.1396 C   0  0  0  0  0  0  0  0  0  0  0  0
   -1.7009    7.4567    0.0819 O   0  0  0  0  0  0  0  0  0  0  0  0
   -1.0864    8.6876    0.3093 C   0  0  0  0  0  0  0  0  0  0  0  0
    0.0532    8.7546    1.0376 N   0  0  0  0  0  0  0  0  0  0  0  0
    0.5600    9.9665    1.3019 C   0  0  0  0  0  0  0  0  0  0  0  0
    0.0226   11.1526    1.0064 N   0  0  0  0  0  0  0  0  0  0  0  0
   -1.0830   11.0783    0.2282 C   0  0  0  0  0  0  0  0  0  0  0  0
   -1.7967   12.2023   -0.2791 C   0  0  0  0  0  0  0  0  0  0  0  0
   -2.6962   11.8355   -1.2537 C   0  0  0  0  0  0  0  0  0  0  0  0
   -2.9177   10.1382   -1.3006 S   0  0  0  0  0  0  0  0  0  0  0  0
   -1.6365    9.8692   -0.1855 C   0  0  0  0  0  0  0  0  0  0  0  0
   -1.3664    5.2082    0.8358 C   0  0  0  0  0  0  0  0  0  0  0  0
   -2.5341    5.2551    1.4960 F   0  0  0  0  0  0  0  0  0  0  0  0
   -0.6236    4.0163    0.8634 C   0  0  0  0  0  0  0  0  0  0  0  0
    6.7068    1.6985   -0.5940 H   0  0  0  0  0  0  0  0  0  0  0  0
    5.6597    2.9341    0.0854 H   0  0  0  0  0  0  0  0  0  0  0  0
    5.3990    2.3339   -1.5790 H   0  0  0  0  0  0  0  0  0  0  0  0
    6.2688   -0.4710    0.2070 H   0  0  0  0  0  0  0  0  0  0  0  0
    3.3975   -3.1037    2.5701 H   0  0  0  0  0  0  0  0  0  0  0  0
    1.7486   -4.7771    3.2511 H   0  0  0  0  0  0  0  0  0  0  0  0
   -1.2617   -2.8350    0.9056 H   0  0  0  0  0  0  0  0  0  0  0  0
    0.3738   -1.1197    0.1891 H   0  0  0  0  0  0  0  0  0  0  0  0
    0.9490    1.9390    0.7590 H   0  0  0  0  0  0  0  0  0  0  0  0
    1.9468    5.0507   -1.1096 H   0  0  0  0  0  0  0  0  0  0  0  0
    0.6365    7.0700   -1.1624 H   0  0  0  0  0  0  0  0  0  0  0  0
    1.5264    9.9898    1.7960 H   0  0  0  0  0  0  0  0  0  0  0  0
   -1.5752   13.2291   -0.0167 H   0  0  0  0  0  0  0  0  0  0  0  0
   -3.2541   12.4857   -1.9147 H   0  0  0  0  0  0  0  0  0  0  0  0
   -1.0135    3.1795    1.4357 H   0  0  0  0  0  0  0  0  0  0  0  0
  1  2  1  0  0  0  0
  1 36  1  0  0  0  0
  1 37  1  0  0  0  0
  1 38  1  0  0  0  0
  2  3  2  0  0  0  0
  2 15  1  0  0  0  0
  3  4  1  0  0  0  0
  3 39  1  0  0  0  0
  4  5  2  0  0  0  0
  4  6  1  0  0  0  0
  6  7  1  0  0  0  0
  6 14  1  0  0  0  0
  7  8  1  0  0  0  0
  7 13  2  0  0  0  0
  8  9  2  0  0  0  0
  8 40  1  0  0  0  0
  9 10  1  0  0  0  0
  9 41  1  0  0  0  0
 10 11  1  0  0  0  0
 10 12  2  0  0  0  0
 12 13  1  0  0  0  0
 12 42  1  0  0  0  0
 13 43  1  0  0  0  0
 14 15  2  0  0  0  0
 15 16  1  0  0  0  0
 16 17  2  0  0  0  0
 16 18  1  0  0  0  0
 18 19  1  0  0  0  0
 18 44  1  0  0  0  0
 19 20  1  0  0  0  0
 19 35  2  0  0  0  0
 20 21  2  0  0  0  0
 20 45  1  0  0  0  0
 21 22  1  0  0  0  0
 21 46  1  0  0  0  0
 22 23  1  0  0  0  0
 22 33  2  0  0  0  0
 23 24  1  0  0  0  0
 24 25  1  0  0  0  0
 24 32  2  0  0  0  0
 25 26  2  0  0  0  0
 26 27  1  0  0  0  0
 26 47  1  0  0  0  0
 27 28  2  0  0  0  0
 28 29  1  0  0  0  0
 28 32  1  0  0  0  0
 29 30  2  0  0  0  0
 29 48  1  0  0  0  0
 30 31  1  0  0  0  0
 30 49  1  0  0  0  0
 31 32  1  0  0  0  0
 33 34  1  0  0  0  0
 33 35  1  0  0  0  0
 35 50  1  0  0  0  0
M  END
$$$$
