CHEMBL2016915
 OpenBabel04072215363D

 56 60  0  0  0  0  0  0  0  0999 V2000
   -2.5483    1.8316   -2.9876 C   0  0  0  0  0  0  0  0  0  0  0  0
   -3.4870    1.1373   -2.1164 N   0  0  0  0  0  0  0  0  0  0  0  0
   -2.9507   -0.1644   -1.6799 C   0  0  0  0  0  0  0  0  0  0  0  0
   -3.9674   -0.8973   -0.7759 C   0  0  0  0  0  0  0  0  0  0  0  0
   -4.3525   -0.1417    0.4407 N   0  0  0  0  0  0  0  0  0  0  0  0
   -3.2298   -0.0068    1.3985 C   0  0  0  0  0  0  0  0  0  0  0  0
   -2.8572   -1.3592    2.0571 C   0  0  0  0  0  0  0  0  0  0  0  0
   -2.3158   -2.2563    1.4029 O   0  0  0  0  0  0  0  0  0  0  0  0
   -3.1474   -1.5319    3.4148 N   0  0  0  0  0  0  0  0  0  0  0  0
   -3.7222   -0.4313    4.2133 C   0  0  0  0  0  0  0  0  0  0  0  0
   -4.1039   -0.6155    5.6833 C   0  0  0  0  0  0  0  0  0  0  0  0
   -3.8994   -1.9888    6.1294 C   0  0  0  0  0  0  0  0  0  0  0  0
   -4.2069   -2.4422    7.3764 N   0  0  0  0  0  0  0  0  0  0  0  0
   -3.9349   -3.7371    7.3540 C   0  0  0  0  0  0  0  0  0  0  0  0
   -4.1012   -4.7321    8.3658 C   0  0  0  0  0  0  0  0  0  0  0  0
   -4.5781   -4.3484    9.5628 C   0  0  0  0  0  0  0  0  0  0  0  0
   -4.7626   -5.3198   10.6396 C   0  0  0  0  0  0  0  0  0  0  0  0
   -5.2280   -4.9328   11.8972 C   0  0  0  0  0  0  0  0  0  0  0  0
   -5.3729   -5.8974   12.9016 C   0  0  0  0  0  0  0  0  0  0  0  0
   -5.9335   -5.4299   14.4597 Cl  0  0  0  0  0  0  0  0  0  0  0  0
   -5.0616   -7.2364   12.6556 C   0  0  0  0  0  0  0  0  0  0  0  0
   -4.6024   -7.6226   11.3968 C   0  0  0  0  0  0  0  0  0  0  0  0
   -4.4511   -6.6648   10.4013 C   0  0  0  0  0  0  0  0  0  0  0  0
   -3.9694   -7.0438    9.1445 N   0  0  0  0  0  0  0  0  0  0  0  0
   -3.7595   -6.1661    8.1154 C   0  0  0  0  0  0  0  0  0  0  0  0
   -3.3125   -6.5659    7.0401 O   0  0  0  0  0  0  0  0  0  0  0  0
   -3.4311   -4.0959    6.1156 N   0  0  0  0  0  0  0  0  0  0  0  0
   -3.4200   -2.9860    5.3284 C   0  0  0  0  0  0  0  0  0  0  0  0
   -3.0308   -2.9089    3.9181 C   0  0  0  0  0  0  0  0  0  0  0  0
   -4.8193    1.1991    0.0060 C   0  0  0  0  0  0  0  0  0  0  0  0
   -3.8544    1.9524   -0.9461 C   0  0  0  0  0  0  0  0  0  0  0  0
   -2.3193    1.2175   -3.8657 H   0  0  0  0  0  0  0  0  0  0  0  0
   -1.6080    2.0742   -2.4809 H   0  0  0  0  0  0  0  0  0  0  0  0
   -2.9920    2.7603   -3.3624 H   0  0  0  0  0  0  0  0  0  0  0  0
   -1.9964   -0.0366   -1.1525 H   0  0  0  0  0  0  0  0  0  0  0  0
   -2.7484   -0.7948   -2.5531 H   0  0  0  0  0  0  0  0  0  0  0  0
   -3.5966   -1.8957   -0.5305 H   0  0  0  0  0  0  0  0  0  0  0  0
   -4.8795   -1.0834   -1.3605 H   0  0  0  0  0  0  0  0  0  0  0  0
   -3.5414    0.7161    2.1513 H   0  0  0  0  0  0  0  0  0  0  0  0
   -2.3208    0.4191    0.9657 H   0  0  0  0  0  0  0  0  0  0  0  0
   -4.6262   -0.1065    3.6869 H   0  0  0  0  0  0  0  0  0  0  0  0
   -2.9998    0.3948    4.1587 H   0  0  0  0  0  0  0  0  0  0  0  0
   -5.1589   -0.3448    5.8045 H   0  0  0  0  0  0  0  0  0  0  0  0
   -3.5316    0.0785    6.3085 H   0  0  0  0  0  0  0  0  0  0  0  0
   -4.8399   -3.3129    9.7621 H   0  0  0  0  0  0  0  0  0  0  0  0
   -5.4765   -3.8976   12.1063 H   0  0  0  0  0  0  0  0  0  0  0  0
   -5.1750   -7.9765   13.4425 H   0  0  0  0  0  0  0  0  0  0  0  0
   -4.3597   -8.6654   11.2144 H   0  0  0  0  0  0  0  0  0  0  0  0
   -3.7346   -8.0096    8.9566 H   0  0  0  0  0  0  0  0  0  0  0  0
   -3.1562   -5.0422    5.8606 H   0  0  0  0  0  0  0  0  0  0  0  0
   -3.6892   -3.5418    3.3102 H   0  0  0  0  0  0  0  0  0  0  0  0
   -2.0025   -3.2573    3.7712 H   0  0  0  0  0  0  0  0  0  0  0  0
   -5.0323    1.8260    0.8814 H   0  0  0  0  0  0  0  0  0  0  0  0
   -5.7858    1.0751   -0.5012 H   0  0  0  0  0  0  0  0  0  0  0  0
   -2.9584    2.2572   -0.3895 H   0  0  0  0  0  0  0  0  0  0  0  0
   -4.3523    2.8705   -1.2804 H   0  0  0  0  0  0  0  0  0  0  0  0
  1  2  1  0  0  0  0
  1 32  1  0  0  0  0
  1 33  1  0  0  0  0
  1 34  1  0  0  0  0
  2  3  1  0  0  0  0
  2 31  1  0  0  0  0
  3  4  1  0  0  0  0
  3 35  1  0  0  0  0
  3 36  1  0  0  0  0
  4  5  1  0  0  0  0
  4 37  1  0  0  0  0
  4 38  1  0  0  0  0
  5  6  1  0  0  0  0
  5 30  1  0  0  0  0
  6  7  1  0  0  0  0
  6 39  1  0  0  0  0
  6 40  1  0  0  0  0
  7  8  2  0  0  0  0
  7  9  1  0  0  0  0
  9 10  1  0  0  0  0
  9 29  1  0  0  0  0
 10 11  1  0  0  0  0
 10 41  1  0  0  0  0
 10 42  1  0  0  0  0
 11 12  1  0  0  0  0
 11 43  1  0  0  0  0
 11 44  1  0  0  0  0
 12 13  1  0  0  0  0
 12 28  2  0  0  0  0
 13 14  2  0  0  0  0
 14 15  1  0  0  0  0
 14 27  1  0  0  0  0
 15 16  2  0  0  0  0
 15 25  1  0  0  0  0
 16 17  1  0  0  0  0
 16 45  1  0  0  0  0
 17 18  1  0  0  0  0
 17 23  2  0  0  0  0
 18 19  2  0  0  0  0
 18 46  1  0  0  0  0
 19 20  1  0  0  0  0
 19 21  1  0  0  0  0
 21 22  2  0  0  0  0
 21 47  1  0  0  0  0
 22 23  1  0  0  0  0
 22 48  1  0  0  0  0
 23 24  1  0  0  0  0
 24 25  1  0  0  0  0
 24 49  1  0  0  0  0
 25 26  2  0  0  0  0
 27 28  1  0  0  0  0
 27 50  1  0  0  0  0
 28 29  1  0  0  0  0
 29 51  1  0  0  0  0
 29 52  1  0  0  0  0
 30 31  1  0  0  0  0
 30 53  1  0  0  0  0
 30 54  1  0  0  0  0
 31 55  1  0  0  0  0
 31 56  1  0  0  0  0
M  END
$$$$
