CHEMBL383435
 OpenBabel04072215373D

 40 43  0  0  0  0  0  0  0  0999 V2000
    2.4005    1.2564    0.0032 C   0  0  0  0  0  0  0  0  0  0  0  0
    2.4219   -0.1678   -0.0809 O   0  0  0  0  0  0  0  0  0  0  0  0
    3.0609   -0.8168    0.9533 C   0  0  0  0  0  0  0  0  0  0  0  0
    4.0697   -0.2043    1.7240 C   0  0  0  0  0  0  0  0  0  0  0  0
    4.7037   -0.8773    2.7642 C   0  0  0  0  0  0  0  0  0  0  0  0
    4.3586   -2.1873    3.0738 C   0  0  0  0  0  0  0  0  0  0  0  0
    3.3719   -2.8135    2.2970 C   0  0  0  0  0  0  0  0  0  0  0  0
    2.7182   -2.1725    1.2307 C   0  0  0  0  0  0  0  0  0  0  0  0
    1.8092   -3.1455    0.6691 C   0  0  0  0  0  0  0  0  0  0  0  0
    0.8933   -2.9796   -0.4196 C   0  0  0  0  0  0  0  0  0  0  0  0
    0.4936   -3.8743   -1.3416 C   0  0  0  0  0  0  0  0  0  0  0  0
    0.9570   -5.2602   -1.6077 C   0  0  0  0  0  0  0  0  0  0  0  0
    1.6156   -6.0215   -0.9301 O   0  0  0  0  0  0  0  0  0  0  0  0
    0.4331   -5.5273   -2.8683 N   0  0  0  0  0  0  0  0  0  0  0  0
   -0.4245   -4.5732   -3.3618 N   0  0  0  0  0  0  0  0  0  0  0  0
   -0.4499   -3.6158   -2.4645 C   0  0  0  0  0  0  0  0  0  0  0  0
   -1.3795   -2.4855   -2.5269 C   0  0  0  0  0  0  0  0  0  0  0  0
   -1.8583   -2.0413   -3.7512 C   0  0  0  0  0  0  0  0  0  0  0  0
   -2.8087   -1.0760   -3.8514 N   0  0  0  0  0  0  0  0  0  0  0  0
   -3.2808   -0.6044   -2.6743 C   0  0  0  0  0  0  0  0  0  0  0  0
   -2.8161   -1.0618   -1.4523 C   0  0  0  0  0  0  0  0  0  0  0  0
   -1.8531   -2.0052   -1.3486 N   0  0  0  0  0  0  0  0  0  0  0  0
    1.9047   -4.2870    1.4338 C   0  0  0  0  0  0  0  0  0  0  0  0
    2.8547   -4.0864    2.3917 N   0  0  0  0  0  0  0  0  0  0  0  0
    3.2446   -5.0682    3.3780 C   0  0  0  0  0  0  0  0  0  0  0  0
    1.7768    1.6362   -0.8112 H   0  0  0  0  0  0  0  0  0  0  0  0
    3.3995    1.6831   -0.1363 H   0  0  0  0  0  0  0  0  0  0  0  0
    1.9599    1.5909    0.9494 H   0  0  0  0  0  0  0  0  0  0  0  0
    4.3983    0.8098    1.5252 H   0  0  0  0  0  0  0  0  0  0  0  0
    5.4778   -0.3752    3.3397 H   0  0  0  0  0  0  0  0  0  0  0  0
    4.8559   -2.7080    3.8858 H   0  0  0  0  0  0  0  0  0  0  0  0
    0.5033   -1.9676   -0.5005 H   0  0  0  0  0  0  0  0  0  0  0  0
    0.5421   -6.4213   -3.3322 H   0  0  0  0  0  0  0  0  0  0  0  0
   -1.5047   -2.4528   -4.6908 H   0  0  0  0  0  0  0  0  0  0  0  0
   -4.0552    0.1518   -2.7387 H   0  0  0  0  0  0  0  0  0  0  0  0
   -3.2161   -0.6878   -0.5163 H   0  0  0  0  0  0  0  0  0  0  0  0
    1.3728   -5.2277    1.3767 H   0  0  0  0  0  0  0  0  0  0  0  0
    2.6392   -5.9700    3.2606 H   0  0  0  0  0  0  0  0  0  0  0  0
    3.0808   -4.6430    4.3719 H   0  0  0  0  0  0  0  0  0  0  0  0
    4.3009   -5.3061    3.2281 H   0  0  0  0  0  0  0  0  0  0  0  0
  1  2  1  0  0  0  0
  1 26  1  0  0  0  0
  1 27  1  0  0  0  0
  1 28  1  0  0  0  0
  2  3  1  0  0  0  0
  3  4  1  0  0  0  0
  3  8  2  0  0  0  0
  4  5  2  0  0  0  0
  4 29  1  0  0  0  0
  5  6  1  0  0  0  0
  5 30  1  0  0  0  0
  6  7  2  0  0  0  0
  6 31  1  0  0  0  0
  7  8  1  0  0  0  0
  7 24  1  0  0  0  0
  8  9  1  0  0  0  0
  9 10  1  0  0  0  0
  9 23  2  0  0  0  0
 10 11  2  0  0  0  0
 10 32  1  0  0  0  0
 11 12  1  0  0  0  0
 11 16  1  0  0  0  0
 12 13  2  0  0  0  0
 12 14  1  0  0  0  0
 14 15  1  0  0  0  0
 14 33  1  0  0  0  0
 15 16  2  0  0  0  0
 16 17  1  0  0  0  0
 17 18  1  0  0  0  0
 17 22  2  0  0  0  0
 18 19  2  0  0  0  0
 18 34  1  0  0  0  0
 19 20  1  0  0  0  0
 20 21  2  0  0  0  0
 20 35  1  0  0  0  0
 21 22  1  0  0  0  0
 21 36  1  0  0  0  0
 23 24  1  0  0  0  0
 23 37  1  0  0  0  0
 24 25  1  0  0  0  0
 25 38  1  0  0  0  0
 25 39  1  0  0  0  0
 25 40  1  0  0  0  0
M  END
$$$$
