CHEMBL188522
 OpenBabel04072215363D

 33 35  0  0  0  0  0  0  0  0999 V2000
   -1.8346   -1.5282    0.0648 C   0  0  0  0  0  0  0  0  0  0  0  0
   -0.5603   -0.7399    0.0189 C   0  0  0  0  0  0  0  0  0  0  0  0
    0.6053   -1.3252   -0.4722 C   0  0  0  0  0  0  0  0  0  0  0  0
    1.7977   -0.5991   -0.5142 C   0  0  0  0  0  0  0  0  0  0  0  0
    1.8777    0.7180   -0.0425 C   0  0  0  0  0  0  0  0  0  0  0  0
    3.0924    1.4370    0.0128 N   0  0  0  0  0  0  0  0  0  0  0  0
    4.3726    0.9148    0.0577 C   0  0  0  0  0  0  0  0  0  0  0  0
    4.5621   -0.3668    0.1847 N   0  0  0  0  0  0  0  0  0  0  0  0
    5.8199   -0.8945    0.2463 C   0  0  0  0  0  0  0  0  0  0  0  0
    6.9317   -0.2386    0.2039 N   0  0  0  0  0  0  0  0  0  0  0  0
    6.7647    1.0855    0.0831 N   0  0  0  0  0  0  0  0  0  0  0  0
    7.7823    1.9933    0.0230 C   0  0  0  0  0  0  0  0  0  0  0  0
    7.2316    3.2439   -0.1141 C   0  0  0  0  0  0  0  0  0  0  0  0
    5.8121    3.0949   -0.1385 C   0  0  0  0  0  0  0  0  0  0  0  0
    4.8496    4.2163   -0.2921 C   0  0  0  0  0  0  0  0  0  0  0  0
    5.5591    1.7330    0.0032 C   0  0  0  0  0  0  0  0  0  0  0  0
    0.6960    1.3130    0.4213 C   0  0  0  0  0  0  0  0  0  0  0  0
   -0.5023    0.5876    0.4490 C   0  0  0  0  0  0  0  0  0  0  0  0
   -1.6517    1.1681    0.9113 O   0  0  0  0  0  0  0  0  0  0  0  0
   -1.6813   -2.5538   -0.2901 H   0  0  0  0  0  0  0  0  0  0  0  0
   -2.5897   -1.0641   -0.5757 H   0  0  0  0  0  0  0  0  0  0  0  0
   -2.2085   -1.5886    1.0920 H   0  0  0  0  0  0  0  0  0  0  0  0
    0.6053   -2.3556   -0.8233 H   0  0  0  0  0  0  0  0  0  0  0  0
    2.6664   -1.1000   -0.9325 H   0  0  0  0  0  0  0  0  0  0  0  0
    2.9989    2.4138    0.2527 H   0  0  0  0  0  0  0  0  0  0  0  0
    5.8690   -1.9919    0.3421 H   0  0  0  0  0  0  0  0  0  0  0  0
    8.8094    1.6595    0.0797 H   0  0  0  0  0  0  0  0  0  0  0  0
    7.7935    4.1670   -0.1941 H   0  0  0  0  0  0  0  0  0  0  0  0
    5.3732    5.1754   -0.3631 H   0  0  0  0  0  0  0  0  0  0  0  0
    4.1781    4.2707    0.5702 H   0  0  0  0  0  0  0  0  0  0  0  0
    4.2536    4.0918   -1.2014 H   0  0  0  0  0  0  0  0  0  0  0  0
    0.7128    2.3372    0.7783 H   0  0  0  0  0  0  0  0  0  0  0  0
   -1.4635    2.0847    1.1674 H   0  0  0  0  0  0  0  0  0  0  0  0
  1  2  1  0  0  0  0
  1 20  1  0  0  0  0
  1 21  1  0  0  0  0
  1 22  1  0  0  0  0
  2  3  1  0  0  0  0
  2 18  2  0  0  0  0
  3  4  2  0  0  0  0
  3 23  1  0  0  0  0
  4  5  1  0  0  0  0
  4 24  1  0  0  0  0
  5  6  1  0  0  0  0
  5 17  2  0  0  0  0
  6  7  1  0  0  0  0
  6 25  1  0  0  0  0
  7  8  2  0  0  0  0
  7 16  1  0  0  0  0
  8  9  1  0  0  0  0
  9 10  2  0  0  0  0
  9 26  1  0  0  0  0
 10 11  1  0  0  0  0
 11 12  1  0  0  0  0
 11 16  1  0  0  0  0
 12 13  2  0  0  0  0
 12 27  1  0  0  0  0
 13 14  1  0  0  0  0
 13 28  1  0  0  0  0
 14 15  1  0  0  0  0
 14 16  2  0  0  0  0
 15 29  1  0  0  0  0
 15 30  1  0  0  0  0
 15 31  1  0  0  0  0
 17 18  1  0  0  0  0
 17 32  1  0  0  0  0
 18 19  1  0  0  0  0
 19 33  1  0  0  0  0
M  END
$$$$
