CHEMBL3590223
 OpenBabel04072215363D

 61 65  0  0  0  0  0  0  0  0999 V2000
   11.2789   -8.0241    2.3892 C   0  0  0  0  0  0  0  0  0  0  0  0
   11.5475   -6.6355    1.9940 N   0  0  0  0  0  0  0  0  0  0  0  0
   12.9890   -6.4363    1.8457 C   0  0  0  0  0  0  0  0  0  0  0  0
   10.8507   -6.3042    0.7267 C   0  0  0  0  0  0  0  0  0  0  0  0
    9.3215   -6.3893    0.8857 C   0  0  0  0  0  0  0  0  0  0  0  0
    8.6929   -7.2473    0.2558 O   0  0  0  0  0  0  0  0  0  0  0  0
    8.6845   -5.4940    1.7429 N   0  0  0  0  0  0  0  0  0  0  0  0
    7.3317   -5.8034    2.1989 C   0  0  0  0  0  0  0  0  0  0  0  0
    6.4500   -4.5563    2.2350 C   0  0  0  0  0  0  0  0  0  0  0  0
    7.0814   -3.4043    3.0336 C   0  0  0  0  0  0  0  0  0  0  0  0
    7.0617   -3.6585    4.5148 C   0  0  0  0  0  0  0  0  0  0  0  0
    7.9442   -4.3710    5.1851 N   0  0  0  0  0  0  0  0  0  0  0  0
    7.4940   -4.3612    6.4852 C   0  0  0  0  0  0  0  0  0  0  0  0
    8.1593   -5.1047    7.5476 C   0  0  0  0  0  0  0  0  0  0  0  0
    9.3313   -5.7991    7.3088 C   0  0  0  0  0  0  0  0  0  0  0  0
    9.9255   -6.5793    8.2466 N   0  0  0  0  0  0  0  0  0  0  0  0
    9.3178   -6.6551    9.4530 C   0  0  0  0  0  0  0  0  0  0  0  0
    9.8617   -7.6178   10.2873 N   0  0  0  0  0  0  0  0  0  0  0  0
    8.1511   -5.9151    9.7207 C   0  0  0  0  0  0  0  0  0  0  0  0
    7.5590   -5.9216   11.0162 N   0  0  0  0  0  0  0  0  0  0  0  0
    8.1745   -6.4868   12.0957 N   0  0  0  0  0  0  0  0  0  0  0  0
    7.4224   -6.2912   13.1677 N   0  0  0  0  0  0  0  0  0  0  0  0
    6.3169   -5.5881   12.7864 C   0  0  0  0  0  0  0  0  0  0  0  0
    5.2337   -5.1348   13.5496 C   0  0  0  0  0  0  0  0  0  0  0  0
    4.2113   -4.4234   12.9133 C   0  0  0  0  0  0  0  0  0  0  0  0
    4.2702   -4.1699   11.5429 C   0  0  0  0  0  0  0  0  0  0  0  0
    5.3481   -4.6142   10.7684 C   0  0  0  0  0  0  0  0  0  0  0  0
    6.3671   -5.3261   11.4204 C   0  0  0  0  0  0  0  0  0  0  0  0
    7.5638   -5.1383    8.7679 N   0  0  0  0  0  0  0  0  0  0  0  0
    6.3754   -3.6501    6.6491 N   0  0  0  0  0  0  0  0  0  0  0  0
    6.1230   -3.2039    5.4059 N   0  0  0  0  0  0  0  0  0  0  0  0
    4.9465   -2.3991    5.2027 C   0  0  0  0  0  0  0  0  0  0  0  0
    8.5113   -3.1606    2.5119 C   0  0  0  0  0  0  0  0  0  0  0  0
    9.3711   -4.4259    2.4656 C   0  0  0  0  0  0  0  0  0  0  0  0
   11.7740   -8.2516    3.3380 H   0  0  0  0  0  0  0  0  0  0  0  0
   11.6262   -8.7407    1.6360 H   0  0  0  0  0  0  0  0  0  0  0  0
   10.2092   -8.1908    2.5573 H   0  0  0  0  0  0  0  0  0  0  0  0
   13.5054   -6.6563    2.7880 H   0  0  0  0  0  0  0  0  0  0  0  0
   13.2117   -5.3910    1.6058 H   0  0  0  0  0  0  0  0  0  0  0  0
   13.4196   -7.0713    1.0628 H   0  0  0  0  0  0  0  0  0  0  0  0
   11.1523   -6.9912   -0.0749 H   0  0  0  0  0  0  0  0  0  0  0  0
   11.1053   -5.2950    0.3809 H   0  0  0  0  0  0  0  0  0  0  0  0
    7.4104   -6.2550    3.1964 H   0  0  0  0  0  0  0  0  0  0  0  0
    6.8652   -6.5566    1.5549 H   0  0  0  0  0  0  0  0  0  0  0  0
    5.4579   -4.8091    2.6258 H   0  0  0  0  0  0  0  0  0  0  0  0
    6.3061   -4.2194    1.1987 H   0  0  0  0  0  0  0  0  0  0  0  0
    6.5035   -2.4940    2.8292 H   0  0  0  0  0  0  0  0  0  0  0  0
    9.8270   -5.7714    6.3424 H   0  0  0  0  0  0  0  0  0  0  0  0
   10.7455   -7.9417    9.9057 H   0  0  0  0  0  0  0  0  0  0  0  0
    9.8934   -7.3496   11.2668 H   0  0  0  0  0  0  0  0  0  0  0  0
    5.1955   -5.3330   14.6166 H   0  0  0  0  0  0  0  0  0  0  0  0
    3.3634   -4.0660   13.4931 H   0  0  0  0  0  0  0  0  0  0  0  0
    3.4641   -3.6168   11.0643 H   0  0  0  0  0  0  0  0  0  0  0  0
    5.3816   -4.4076    9.7003 H   0  0  0  0  0  0  0  0  0  0  0  0
    4.6959   -1.9026    6.1465 H   0  0  0  0  0  0  0  0  0  0  0  0
    4.1246   -3.0566    4.9072 H   0  0  0  0  0  0  0  0  0  0  0  0
    5.1409   -1.6417    4.4429 H   0  0  0  0  0  0  0  0  0  0  0  0
    9.0177   -2.3865    3.1013 H   0  0  0  0  0  0  0  0  0  0  0  0
    8.4352   -2.7764    1.4853 H   0  0  0  0  0  0  0  0  0  0  0  0
    9.6253   -4.7965    3.4646 H   0  0  0  0  0  0  0  0  0  0  0  0
   10.3140   -4.1686    1.9792 H   0  0  0  0  0  0  0  0  0  0  0  0
  1  2  1  0  0  0  0
  1 35  1  0  0  0  0
  1 36  1  0  0  0  0
  1 37  1  0  0  0  0
  2  3  1  0  0  0  0
  2  4  1  0  0  0  0
  3 38  1  0  0  0  0
  3 39  1  0  0  0  0
  3 40  1  0  0  0  0
  4  5  1  0  0  0  0
  4 41  1  0  0  0  0
  4 42  1  0  0  0  0
  5  6  2  0  0  0  0
  5  7  1  0  0  0  0
  7  8  1  0  0  0  0
  7 34  1  0  0  0  0
  8  9  1  0  0  0  0
  8 43  1  0  0  0  0
  8 44  1  0  0  0  0
  9 10  1  0  0  0  0
  9 45  1  0  0  0  0
  9 46  1  0  0  0  0
 10 11  1  0  0  0  0
 10 33  1  0  0  0  0
 10 47  1  0  0  0  0
 11 12  2  0  0  0  0
 11 31  1  0  0  0  0
 12 13  1  0  0  0  0
 13 14  1  0  0  0  0
 13 30  2  0  0  0  0
 14 15  1  0  0  0  0
 14 29  2  0  0  0  0
 15 16  2  0  0  0  0
 15 48  1  0  0  0  0
 16 17  1  0  0  0  0
 17 18  1  0  0  0  0
 17 19  2  0  0  0  0
 18 49  1  0  0  0  0
 18 50  1  0  0  0  0
 19 20  1  0  0  0  0
 19 29  1  0  0  0  0
 20 21  1  0  0  0  0
 20 28  1  0  0  0  0
 21 22  2  0  0  0  0
 22 23  1  0  0  0  0
 23 24  1  0  0  0  0
 23 28  2  0  0  0  0
 24 25  2  0  0  0  0
 24 51  1  0  0  0  0
 25 26  1  0  0  0  0
 25 52  1  0  0  0  0
 26 27  2  0  0  0  0
 26 53  1  0  0  0  0
 27 28  1  0  0  0  0
 27 54  1  0  0  0  0
 30 31  1  0  0  0  0
 31 32  1  0  0  0  0
 32 55  1  0  0  0  0
 32 56  1  0  0  0  0
 32 57  1  0  0  0  0
 33 34  1  0  0  0  0
 33 58  1  0  0  0  0
 33 59  1  0  0  0  0
 34 60  1  0  0  0  0
 34 61  1  0  0  0  0
M  END
$$$$
