CHEMBL411632
 OpenBabel04072215383D

 46 48  0  0  0  0  0  0  0  0999 V2000
    2.5845    0.1111   -0.0453 C   0  0  0  0  0  0  0  0  0  0  0  0
    1.0900    0.0272    0.0885 C   0  0  0  0  0  0  0  0  0  0  0  0
    0.3949    1.2355    0.2581 C   0  0  0  0  0  0  0  0  0  0  0  0
   -1.0023    1.2797    0.2912 C   0  0  0  0  0  0  0  0  0  0  0  0
   -1.7583    0.1180    0.1640 C   0  0  0  0  0  0  0  0  0  0  0  0
   -3.1762    0.0996    0.1397 N   0  0  0  0  0  0  0  0  0  0  0  0
   -4.0137    1.2034    0.2188 C   0  0  0  0  0  0  0  0  0  0  0  0
   -3.6627    2.3687    0.3551 O   0  0  0  0  0  0  0  0  0  0  0  0
   -5.4825    0.9450    0.1641 C   0  0  0  0  0  0  0  0  0  0  0  0
   -6.0487   -0.0937   -0.5821 C   0  0  0  0  0  0  0  0  0  0  0  0
   -7.4395   -0.2421   -0.6244 C   0  0  0  0  0  0  0  0  0  0  0  0
   -8.2690    0.6382    0.0762 C   0  0  0  0  0  0  0  0  0  0  0  0
   -7.7212    1.6855    0.8286 C   0  0  0  0  0  0  0  0  0  0  0  0
   -8.5946    2.6402    1.6068 C   0  0  0  0  0  0  0  0  0  0  0  0
   -9.9251    2.3641    1.5059 F   0  0  0  0  0  0  0  0  0  0  0  0
   -8.3140    2.6268    2.9395 F   0  0  0  0  0  0  0  0  0  0  0  0
   -8.4503    3.9324    1.2053 F   0  0  0  0  0  0  0  0  0  0  0  0
   -6.3248    1.8348    0.8543 C   0  0  0  0  0  0  0  0  0  0  0  0
   -1.0752   -1.0993    0.0451 C   0  0  0  0  0  0  0  0  0  0  0  0
    0.3409   -1.1639    0.0215 C   0  0  0  0  0  0  0  0  0  0  0  0
    0.9230   -2.5368   -0.1476 C   0  0  0  0  0  0  0  0  0  0  0  0
    0.3078   -3.3396   -0.8414 O   0  0  0  0  0  0  0  0  0  0  0  0
    2.0912   -2.8153    0.5393 N   0  0  0  0  0  0  0  0  0  0  0  0
    2.7857   -4.0493    0.5390 C   0  0  0  0  0  0  0  0  0  0  0  0
    2.3892   -5.2139   -0.0851 C   0  0  0  0  0  0  0  0  0  0  0  0
    3.0808   -6.3794   -0.0278 N   0  0  0  0  0  0  0  0  0  0  0  0
    4.2234   -6.3696    0.6612 C   0  0  0  0  0  0  0  0  0  0  0  0
    4.9228   -7.5536    0.7559 N   0  0  0  0  0  0  0  0  0  0  0  0
    4.7067   -5.3077    1.3108 N   0  0  0  0  0  0  0  0  0  0  0  0
    3.9794   -4.1711    1.2269 C   0  0  0  0  0  0  0  0  0  0  0  0
    2.9007    1.1314   -0.2937 H   0  0  0  0  0  0  0  0  0  0  0  0
    2.9429   -0.5304   -0.8555 H   0  0  0  0  0  0  0  0  0  0  0  0
    3.0739   -0.1545    0.8959 H   0  0  0  0  0  0  0  0  0  0  0  0
    0.9349    2.1789    0.3351 H   0  0  0  0  0  0  0  0  0  0  0  0
   -1.4638    2.2556    0.4014 H   0  0  0  0  0  0  0  0  0  0  0  0
   -3.6070   -0.8138    0.0776 H   0  0  0  0  0  0  0  0  0  0  0  0
   -5.4342   -0.7704   -1.1681 H   0  0  0  0  0  0  0  0  0  0  0  0
   -7.8833   -1.0406   -1.2161 H   0  0  0  0  0  0  0  0  0  0  0  0
   -9.3499    0.5071    0.0255 H   0  0  0  0  0  0  0  0  0  0  0  0
   -5.8860    2.6593    1.4188 H   0  0  0  0  0  0  0  0  0  0  0  0
   -1.6389   -2.0272   -0.0502 H   0  0  0  0  0  0  0  0  0  0  0  0
    2.4697   -2.0940    1.1366 H   0  0  0  0  0  0  0  0  0  0  0  0
    1.4733   -5.2871   -0.6610 H   0  0  0  0  0  0  0  0  0  0  0  0
    4.2921   -8.3302    0.6117 H   0  0  0  0  0  0  0  0  0  0  0  0
    5.4793   -7.5581    1.5984 H   0  0  0  0  0  0  0  0  0  0  0  0
    4.4203   -3.3298    1.7533 H   0  0  0  0  0  0  0  0  0  0  0  0
  1  2  1  0  0  0  0
  1 31  1  0  0  0  0
  1 32  1  0  0  0  0
  1 33  1  0  0  0  0
  2  3  1  0  0  0  0
  2 20  2  0  0  0  0
  3  4  2  0  0  0  0
  3 34  1  0  0  0  0
  4  5  1  0  0  0  0
  4 35  1  0  0  0  0
  5  6  1  0  0  0  0
  5 19  2  0  0  0  0
  6  7  1  0  0  0  0
  6 36  1  0  0  0  0
  7  8  2  0  0  0  0
  7  9  1  0  0  0  0
  9 10  1  0  0  0  0
  9 18  2  0  0  0  0
 10 11  2  0  0  0  0
 10 37  1  0  0  0  0
 11 12  1  0  0  0  0
 11 38  1  0  0  0  0
 12 13  2  0  0  0  0
 12 39  1  0  0  0  0
 13 14  1  0  0  0  0
 13 18  1  0  0  0  0
 14 15  1  0  0  0  0
 14 16  1  0  0  0  0
 14 17  1  0  0  0  0
 18 40  1  0  0  0  0
 19 20  1  0  0  0  0
 19 41  1  0  0  0  0
 20 21  1  0  0  0  0
 21 22  2  0  0  0  0
 21 23  1  0  0  0  0
 23 24  1  0  0  0  0
 23 42  1  0  0  0  0
 24 25  1  0  0  0  0
 24 30  2  0  0  0  0
 25 26  2  0  0  0  0
 25 43  1  0  0  0  0
 26 27  1  0  0  0  0
 27 28  1  0  0  0  0
 27 29  2  0  0  0  0
 28 44  1  0  0  0  0
 28 45  1  0  0  0  0
 29 30  1  0  0  0  0
 30 46  1  0  0  0  0
M  END
$$$$
