CHEMBL1085296
 OpenBabel04072215363D

 62 68  0  0  1  0  0  0  0  0999 V2000
    0.6892    0.9912    0.0096 C   0  0  0  0  0  0  0  0  0  0  0  0
    1.6337   -0.0457   -0.3568 N   0  0  0  0  0  0  0  0  0  0  0  0
    2.0649   -0.1464   -1.6340 N   0  0  0  0  0  0  0  0  0  0  0  0
    1.8961   -1.4578   -1.8913 C   0  0  0  0  0  0  0  0  0  0  0  0
    1.2392   -2.1344   -0.8221 C   0  0  0  0  0  0  0  0  0  0  0  0
    1.6153   -1.2794    0.2143 C   0  0  0  0  0  0  0  0  0  0  0  0
    2.0685   -1.6452    1.5917 C   0  0  0  0  0  0  0  0  0  0  0  0
    1.4956   -3.0173    1.8948 C   0  0  0  0  0  0  0  0  0  0  0  0
    1.8210   -3.8689    0.6835 C   0  0  0  0  0  0  0  0  0  0  0  0
    1.1435   -3.5383   -0.4952 C   0  0  0  0  0  0  0  0  0  0  0  0
    0.1929   -4.5320   -0.7786 C   0  0  0  0  0  0  0  0  0  0  0  0
    0.4243   -5.9086   -0.4094 C   0  0  0  0  0  0  0  0  0  0  0  0
    1.7284   -6.1621    0.0943 C   0  0  0  0  0  0  0  0  0  0  0  0
    2.4846   -7.3186    0.1366 C   0  0  0  0  0  0  0  0  0  0  0  0
    2.3107   -8.6975    0.0374 C   0  0  0  0  0  0  0  0  0  0  0  0
    3.4293   -9.5653    0.1116 C   0  0  0  0  0  0  0  0  0  0  0  0
    3.1300  -11.0449    0.2760 C   0  0  3  0  0  0  0  0  0  0  0  0
    4.2534  -12.0724    0.5288 C   0  0  0  0  0  0  0  0  0  0  0  0
    4.7704  -12.8274   -0.6994 C   0  0  0  0  0  0  0  0  0  0  0  0
    3.7248  -12.9957   -1.7964 C   0  0  0  0  0  0  0  0  0  0  0  0
    2.9692  -11.7004   -1.9897 C   0  0  0  0  0  0  0  0  0  0  0  0
    2.2572  -11.4379   -0.7850 O   0  0  0  0  0  0  0  0  0  0  0  0
    4.7211   -9.0319    0.0776 C   0  0  0  0  0  0  0  0  0  0  0  0
    4.9295   -7.6486    0.1282 C   0  0  0  0  0  0  0  0  0  0  0  0
    3.7969   -6.8145    0.2616 C   0  0  0  0  0  0  0  0  0  0  0  0
    3.7178   -5.4500    0.4477 N   0  0  0  0  0  0  0  0  0  0  0  0
    4.7773   -4.4638    0.2670 C   0  0  0  0  0  0  0  0  0  0  0  0
    5.4786   -4.1101    1.5582 C   0  0  0  0  0  0  0  0  0  0  0  0
    6.2483   -5.1976    2.0580 O   0  0  0  0  0  0  0  0  0  0  0  0
    2.3909   -5.0999    0.6129 C   0  0  0  0  0  0  0  0  0  0  0  0
   -0.7567   -6.7426   -0.5980 C   0  0  0  0  0  0  0  0  0  0  0  0
   -1.6917   -5.7076   -1.0407 N   0  0  0  0  0  0  0  0  0  0  0  0
   -1.1799   -4.4174   -1.1986 C   0  0  0  0  0  0  0  0  0  0  0  0
   -1.8789   -3.4626   -1.5084 O   0  0  0  0  0  0  0  0  0  0  0  0
    1.2107    1.9461    0.0499 H   0  0  0  0  0  0  0  0  0  0  0  0
    0.2633    0.7404    0.9846 H   0  0  0  0  0  0  0  0  0  0  0  0
   -0.0999    0.9875   -0.7418 H   0  0  0  0  0  0  0  0  0  0  0  0
    2.3296   -1.8601   -2.7990 H   0  0  0  0  0  0  0  0  0  0  0  0
    1.7992   -0.9096    2.3495 H   0  0  0  0  0  0  0  0  0  0  0  0
    3.1647   -1.7403    1.5813 H   0  0  0  0  0  0  0  0  0  0  0  0
    0.3964   -2.9400    1.9818 H   0  0  0  0  0  0  0  0  0  0  0  0
    1.8543   -3.4676    2.8217 H   0  0  0  0  0  0  0  0  0  0  0  0
    1.3081   -9.1138   -0.0106 H   0  0  0  0  0  0  0  0  0  0  0  0
    2.5225  -11.0802    1.1948 H   0  0  0  0  0  0  0  0  0  0  0  0
    3.8254  -12.8396    1.1896 H   0  0  0  0  0  0  0  0  0  0  0  0
    5.0880  -11.6456    1.0984 H   0  0  0  0  0  0  0  0  0  0  0  0
    5.1256  -13.8195   -0.3911 H   0  0  0  0  0  0  0  0  0  0  0  0
    5.6392  -12.3018   -1.1086 H   0  0  0  0  0  0  0  0  0  0  0  0
    3.0178  -13.7800   -1.4987 H   0  0  0  0  0  0  0  0  0  0  0  0
    4.2010  -13.3098   -2.7295 H   0  0  0  0  0  0  0  0  0  0  0  0
    2.2375  -11.7908   -2.7962 H   0  0  0  0  0  0  0  0  0  0  0  0
    3.6422  -10.8719   -2.2447 H   0  0  0  0  0  0  0  0  0  0  0  0
    5.5964   -9.6705    0.0202 H   0  0  0  0  0  0  0  0  0  0  0  0
    5.9274   -7.2340    0.1013 H   0  0  0  0  0  0  0  0  0  0  0  0
    4.3322   -3.5794   -0.1787 H   0  0  0  0  0  0  0  0  0  0  0  0
    5.4779   -4.8803   -0.4675 H   0  0  0  0  0  0  0  0  0  0  0  0
    4.7751   -3.7931    2.3401 H   0  0  0  0  0  0  0  0  0  0  0  0
    6.1695   -3.2788    1.3794 H   0  0  0  0  0  0  0  0  0  0  0  0
    5.6205   -5.9020    2.3063 H   0  0  0  0  0  0  0  0  0  0  0  0
   -1.1073   -7.1518    0.3496 H   0  0  0  0  0  0  0  0  0  0  0  0
   -0.6585   -7.5086   -1.3691 H   0  0  0  0  0  0  0  0  0  0  0  0
   -2.6972   -5.8416   -1.0640 H   0  0  0  0  0  0  0  0  0  0  0  0
  1  2  1  0  0  0  0
  1 35  1  0  0  0  0
  1 36  1  0  0  0  0
  1 37  1  0  0  0  0
  2  3  1  0  0  0  0
  2  6  1  0  0  0  0
  3  4  2  0  0  0  0
  4  5  1  0  0  0  0
  4 38  1  0  0  0  0
  5  6  2  0  0  0  0
  5 10  1  0  0  0  0
  6  7  1  0  0  0  0
  7  8  1  0  0  0  0
  7 39  1  0  0  0  0
  7 40  1  0  0  0  0
  8  9  1  0  0  0  0
  8 41  1  0  0  0  0
  8 42  1  0  0  0  0
  9 10  1  0  0  0  0
  9 30  2  0  0  0  0
 10 11  2  0  0  0  0
 11 12  1  0  0  0  0
 11 33  1  0  0  0  0
 12 13  2  0  0  0  0
 12 31  1  0  0  0  0
 13 14  1  0  0  0  0
 13 30  1  0  0  0  0
 14 15  1  0  0  0  0
 14 25  2  0  0  0  0
 15 16  2  0  0  0  0
 15 43  1  0  0  0  0
 16 17  1  0  0  0  0
 16 23  1  0  0  0  0
 17 18  1  0  0  0  0
 17 22  1  0  0  0  0
 17 44  1  0  0  0  0
 18 19  1  0  0  0  0
 18 45  1  0  0  0  0
 18 46  1  0  0  0  0
 19 20  1  0  0  0  0
 19 47  1  0  0  0  0
 19 48  1  0  0  0  0
 20 21  1  0  0  0  0
 20 49  1  0  0  0  0
 20 50  1  0  0  0  0
 21 22  1  0  0  0  0
 21 51  1  0  0  0  0
 21 52  1  0  0  0  0
 23 24  2  0  0  0  0
 23 53  1  0  0  0  0
 24 25  1  0  0  0  0
 24 54  1  0  0  0  0
 25 26  1  0  0  0  0
 26 27  1  0  0  0  0
 26 30  1  0  0  0  0
 27 28  1  0  0  0  0
 27 55  1  0  0  0  0
 27 56  1  0  0  0  0
 28 29  1  0  0  0  0
 28 57  1  0  0  0  0
 28 58  1  0  0  0  0
 29 59  1  0  0  0  0
 31 32  1  0  0  0  0
 31 60  1  0  0  0  0
 31 61  1  0  0  0  0
 32 33  1  0  0  0  0
 32 62  1  0  0  0  0
 33 34  2  0  0  0  0
M  END
$$$$
