CHEMBL3914631
 OpenBabel04072215373D

 57 60  0  0  0  0  0  0  0  0999 V2000
    2.5405    0.0173   -0.2434 C   0  0  0  0  0  0  0  0  0  0  0  0
    1.0427    0.0224   -0.1285 C   0  0  0  0  0  0  0  0  0  0  0  0
    0.3958    1.2697   -0.0631 C   0  0  0  0  0  0  0  0  0  0  0  0
   -0.9962    1.3824    0.0119 C   0  0  0  0  0  0  0  0  0  0  0  0
   -1.6488    2.6352   -0.0033 N   0  0  0  0  0  0  0  0  0  0  0  0
   -1.1034    3.7758   -0.5719 C   0  0  0  0  0  0  0  0  0  0  0  0
   -0.0744    3.7911   -1.2398 O   0  0  0  0  0  0  0  0  0  0  0  0
   -1.8283    4.9158   -0.2594 N   0  0  0  0  0  0  0  0  0  0  0  0
   -1.3436    6.1708   -0.7103 C   0  0  0  0  0  0  0  0  0  0  0  0
   -0.9195    6.3558   -2.0319 C   0  0  0  0  0  0  0  0  0  0  0  0
   -0.2909    7.5475   -2.4252 C   0  0  0  0  0  0  0  0  0  0  0  0
    0.2020    7.7149   -3.8476 C   0  0  0  0  0  0  0  0  0  0  0  0
    1.6097    7.1691   -4.0311 C   0  0  0  0  0  0  0  0  0  0  0  0
   -0.6086    7.0892   -4.7514 F   0  0  0  0  0  0  0  0  0  0  0  0
    0.2155    9.0266   -4.2316 F   0  0  0  0  0  0  0  0  0  0  0  0
   -0.1017    8.5593   -1.4701 C   0  0  0  0  0  0  0  0  0  0  0  0
   -0.5685    8.3977   -0.1626 C   0  0  0  0  0  0  0  0  0  0  0  0
   -1.2058    7.2155    0.2023 C   0  0  0  0  0  0  0  0  0  0  0  0
   -1.6122    7.0517    1.4705 F   0  0  0  0  0  0  0  0  0  0  0  0
   -1.7536    0.2211    0.1279 C   0  0  0  0  0  0  0  0  0  0  0  0
   -1.1230   -1.0310    0.1064 C   0  0  0  0  0  0  0  0  0  0  0  0
    0.2661   -1.1441   -0.0625 C   0  0  0  0  0  0  0  0  0  0  0  0
    0.9000   -2.3757   -0.0830 O   0  0  0  0  0  0  0  0  0  0  0  0
    0.2941   -3.4066   -0.8050 C   0  0  0  0  0  0  0  0  0  0  0  0
    0.5623   -4.7055   -0.4127 C   0  0  0  0  0  0  0  0  0  0  0  0
   -0.0497   -5.7017   -1.1505 C   0  0  0  0  0  0  0  0  0  0  0  0
    0.2271   -7.0515   -0.8521 N   0  0  0  0  0  0  0  0  0  0  0  0
   -0.3632   -8.1172   -1.5015 C   0  0  0  0  0  0  0  0  0  0  0  0
   -1.3247   -8.0812   -2.2597 O   0  0  0  0  0  0  0  0  0  0  0  0
    0.2209   -9.4737   -1.2457 C   0  0  0  0  0  0  0  0  0  0  0  0
    0.2448  -10.0569    0.1431 C   0  0  0  0  0  0  0  0  0  0  0  0
    1.5346   -9.7602   -0.5668 C   0  0  0  0  0  0  0  0  0  0  0  0
   -0.8592   -5.4150   -2.1782 N   0  0  0  0  0  0  0  0  0  0  0  0
   -1.0369   -4.1297   -2.4873 C   0  0  0  0  0  0  0  0  0  0  0  0
   -0.4813   -3.0960   -1.8573 N   0  0  0  0  0  0  0  0  0  0  0  0
    2.9032    0.9836   -0.6190 H   0  0  0  0  0  0  0  0  0  0  0  0
    2.8847   -0.7409   -0.9515 H   0  0  0  0  0  0  0  0  0  0  0  0
    2.9958   -0.1509    0.7364 H   0  0  0  0  0  0  0  0  0  0  0  0
    1.0140    2.1658   -0.0738 H   0  0  0  0  0  0  0  0  0  0  0  0
   -2.6553    2.6411    0.1044 H   0  0  0  0  0  0  0  0  0  0  0  0
   -2.2065    4.9157    0.6800 H   0  0  0  0  0  0  0  0  0  0  0  0
   -1.0511    5.5565   -2.7609 H   0  0  0  0  0  0  0  0  0  0  0  0
    1.6534    6.0931   -3.8337 H   0  0  0  0  0  0  0  0  0  0  0  0
    2.3246    7.6780   -3.3764 H   0  0  0  0  0  0  0  0  0  0  0  0
    1.9382    7.3285   -5.0639 H   0  0  0  0  0  0  0  0  0  0  0  0
    0.4125    9.4791   -1.7458 H   0  0  0  0  0  0  0  0  0  0  0  0
   -0.4142    9.1750    0.5786 H   0  0  0  0  0  0  0  0  0  0  0  0
   -2.8352    0.2580    0.2051 H   0  0  0  0  0  0  0  0  0  0  0  0
   -1.7392   -1.9228    0.1883 H   0  0  0  0  0  0  0  0  0  0  0  0
    1.2074   -4.9106    0.4305 H   0  0  0  0  0  0  0  0  0  0  0  0
    0.9199   -7.2438   -0.1483 H   0  0  0  0  0  0  0  0  0  0  0  0
   -0.0357  -10.1673   -2.0451 H   0  0  0  0  0  0  0  0  0  0  0  0
   -0.0569  -11.0961    0.2493 H   0  0  0  0  0  0  0  0  0  0  0  0
   -0.0444   -9.4304    0.9799 H   0  0  0  0  0  0  0  0  0  0  0  0
    2.1115  -10.6034   -0.9377 H   0  0  0  0  0  0  0  0  0  0  0  0
    2.1570   -8.9555   -0.2001 H   0  0  0  0  0  0  0  0  0  0  0  0
   -1.6928   -3.9130   -3.3219 H   0  0  0  0  0  0  0  0  0  0  0  0
  1  2  1  0  0  0  0
  1 36  1  0  0  0  0
  1 37  1  0  0  0  0
  1 38  1  0  0  0  0
  2  3  1  0  0  0  0
  2 22  2  0  0  0  0
  3  4  2  0  0  0  0
  3 39  1  0  0  0  0
  4  5  1  0  0  0  0
  4 20  1  0  0  0  0
  5  6  1  0  0  0  0
  5 40  1  0  0  0  0
  6  7  2  0  0  0  0
  6  8  1  0  0  0  0
  8  9  1  0  0  0  0
  8 41  1  0  0  0  0
  9 10  1  0  0  0  0
  9 18  2  0  0  0  0
 10 11  2  0  0  0  0
 10 42  1  0  0  0  0
 11 12  1  0  0  0  0
 11 16  1  0  0  0  0
 12 13  1  0  0  0  0
 12 14  1  0  0  0  0
 12 15  1  0  0  0  0
 13 43  1  0  0  0  0
 13 44  1  0  0  0  0
 13 45  1  0  0  0  0
 16 17  2  0  0  0  0
 16 46  1  0  0  0  0
 17 18  1  0  0  0  0
 17 47  1  0  0  0  0
 18 19  1  0  0  0  0
 20 21  2  0  0  0  0
 20 48  1  0  0  0  0
 21 22  1  0  0  0  0
 21 49  1  0  0  0  0
 22 23  1  0  0  0  0
 23 24  1  0  0  0  0
 24 25  1  0  0  0  0
 24 35  2  0  0  0  0
 25 26  2  0  0  0  0
 25 50  1  0  0  0  0
 26 27  1  0  0  0  0
 26 33  1  0  0  0  0
 27 28  1  0  0  0  0
 27 51  1  0  0  0  0
 28 29  2  0  0  0  0
 28 30  1  0  0  0  0
 30 31  1  0  0  0  0
 30 32  1  0  0  0  0
 30 52  1  0  0  0  0
 31 32  1  0  0  0  0
 31 53  1  0  0  0  0
 31 54  1  0  0  0  0
 32 55  1  0  0  0  0
 32 56  1  0  0  0  0
 33 34  2  0  0  0  0
 34 35  1  0  0  0  0
 34 57  1  0  0  0  0
M  END
$$$$
