CHEMBL495545
 OpenBabel04072215383D

 51 55  0  0  0  0  0  0  0  0999 V2000
    2.3600    0.8627   -0.1150 C   0  0  0  0  0  0  0  0  0  0  0  0
    1.0123    0.4020   -0.4330 N   0  0  0  0  0  0  0  0  0  0  0  0
    0.5587   -0.6111    0.5469 C   0  0  0  0  0  0  0  0  0  0  0  0
   -0.8717   -1.1106    0.2442 C   0  0  0  0  0  0  0  0  0  0  0  0
   -1.8021    0.0300    0.1913 N   0  0  0  0  0  0  0  0  0  0  0  0
   -3.0392    0.0024    0.7969 C   0  0  0  0  0  0  0  0  0  0  0  0
   -3.2244   -0.6551    2.0175 C   0  0  0  0  0  0  0  0  0  0  0  0
   -4.4430   -0.6194    2.6967 C   0  0  0  0  0  0  0  0  0  0  0  0
   -5.5261    0.1063    2.1977 C   0  0  0  0  0  0  0  0  0  0  0  0
   -6.7470    0.2001    2.8941 N   0  0  0  0  0  0  0  0  0  0  0  0
   -6.8593    0.1485    4.2895 C   0  0  0  0  0  0  0  0  0  0  0  0
   -7.9520   -0.4248    4.8050 N   0  0  0  0  0  0  0  0  0  0  0  0
   -7.9876   -0.5457    6.1453 C   0  0  0  0  0  0  0  0  0  0  0  0
   -6.9769   -0.1325    6.9825 C   0  0  0  0  0  0  0  0  0  0  0  0
   -5.9015    0.4659    6.3686 C   0  0  0  0  0  0  0  0  0  0  0  0
   -4.7317    0.9225    7.1079 C   0  0  0  0  0  0  0  0  0  0  0  0
   -4.4312    0.8164    8.4864 C   0  0  0  0  0  0  0  0  0  0  0  0
   -3.2458    1.3293    8.8116 N   0  0  0  0  0  0  0  0  0  0  0  0
   -2.7556    1.7782    7.6457 N   0  0  0  0  0  0  0  0  0  0  0  0
   -1.5366    2.3613    7.6178 N   0  0  0  0  0  0  0  0  0  0  0  0
   -1.1908    2.7461    6.4341 C   0  0  0  0  0  0  0  0  0  0  0  0
   -1.9886    2.6010    5.1948 C   0  0  0  0  0  0  0  0  0  0  0  0
   -3.1833    2.0108    5.3089 C   0  0  0  0  0  0  0  0  0  0  0  0
   -3.6156    1.5624    6.5830 C   0  0  0  0  0  0  0  0  0  0  0  0
   -5.8533    0.6230    5.0379 N   0  0  0  0  0  0  0  0  0  0  0  0
   -5.3879    0.7063    0.9490 C   0  0  0  0  0  0  0  0  0  0  0  0
   -4.1592    0.6642    0.2703 C   0  0  0  0  0  0  0  0  0  0  0  0
   -1.3980    1.0927   -0.7397 C   0  0  0  0  0  0  0  0  0  0  0  0
    0.0565    1.5320   -0.4345 C   0  0  0  0  0  0  0  0  0  0  0  0
    3.0668    0.0265   -0.1505 H   0  0  0  0  0  0  0  0  0  0  0  0
    2.4209    1.3252    0.8765 H   0  0  0  0  0  0  0  0  0  0  0  0
    2.6981    1.5926   -0.8585 H   0  0  0  0  0  0  0  0  0  0  0  0
    0.5823   -0.1947    1.5641 H   0  0  0  0  0  0  0  0  0  0  0  0
    1.2368   -1.4722    0.5288 H   0  0  0  0  0  0  0  0  0  0  0  0
   -1.1442   -1.8629    0.9901 H   0  0  0  0  0  0  0  0  0  0  0  0
   -0.8857   -1.6250   -0.7253 H   0  0  0  0  0  0  0  0  0  0  0  0
   -2.4017   -1.1660    2.5073 H   0  0  0  0  0  0  0  0  0  0  0  0
   -4.5107   -1.1370    3.6501 H   0  0  0  0  0  0  0  0  0  0  0  0
   -7.4691   -0.3979    2.5123 H   0  0  0  0  0  0  0  0  0  0  0  0
   -8.8831   -1.0175    6.5409 H   0  0  0  0  0  0  0  0  0  0  0  0
   -7.0445   -0.2838    8.0498 H   0  0  0  0  0  0  0  0  0  0  0  0
   -5.0268    0.3793    9.2769 H   0  0  0  0  0  0  0  0  0  0  0  0
   -0.2112    3.2345    6.3004 H   0  0  0  0  0  0  0  0  0  0  0  0
   -1.5909    2.9696    4.2593 H   0  0  0  0  0  0  0  0  0  0  0  0
   -3.8123    1.8805    4.4332 H   0  0  0  0  0  0  0  0  0  0  0  0
   -6.2179    1.2558    0.5122 H   0  0  0  0  0  0  0  0  0  0  0  0
   -4.0996    1.1642   -0.6927 H   0  0  0  0  0  0  0  0  0  0  0  0
   -2.0301    1.9831   -0.6482 H   0  0  0  0  0  0  0  0  0  0  0  0
   -1.4767    0.7285   -1.7714 H   0  0  0  0  0  0  0  0  0  0  0  0
    0.0695    2.0349    0.5433 H   0  0  0  0  0  0  0  0  0  0  0  0
    0.3568    2.2711   -1.1856 H   0  0  0  0  0  0  0  0  0  0  0  0
  1  2  1  0  0  0  0
  1 30  1  0  0  0  0
  1 31  1  0  0  0  0
  1 32  1  0  0  0  0
  2  3  1  0  0  0  0
  2 29  1  0  0  0  0
  3  4  1  0  0  0  0
  3 33  1  0  0  0  0
  3 34  1  0  0  0  0
  4  5  1  0  0  0  0
  4 35  1  0  0  0  0
  4 36  1  0  0  0  0
  5  6  1  0  0  0  0
  5 28  1  0  0  0  0
  6  7  1  0  0  0  0
  6 27  2  0  0  0  0
  7  8  2  0  0  0  0
  7 37  1  0  0  0  0
  8  9  1  0  0  0  0
  8 38  1  0  0  0  0
  9 10  1  0  0  0  0
  9 26  2  0  0  0  0
 10 11  1  0  0  0  0
 10 39  1  0  0  0  0
 11 12  1  0  0  0  0
 11 25  2  0  0  0  0
 12 13  2  0  0  0  0
 13 14  1  0  0  0  0
 13 40  1  0  0  0  0
 14 15  2  0  0  0  0
 14 41  1  0  0  0  0
 15 16  1  0  0  0  0
 15 25  1  0  0  0  0
 16 17  1  0  0  0  0
 16 24  2  0  0  0  0
 17 18  2  0  0  0  0
 17 42  1  0  0  0  0
 18 19  1  0  0  0  0
 19 20  1  0  0  0  0
 19 24  1  0  0  0  0
 20 21  2  0  0  0  0
 21 22  1  0  0  0  0
 21 43  1  0  0  0  0
 22 23  2  0  0  0  0
 22 44  1  0  0  0  0
 23 24  1  0  0  0  0
 23 45  1  0  0  0  0
 26 27  1  0  0  0  0
 26 46  1  0  0  0  0
 27 47  1  0  0  0  0
 28 29  1  0  0  0  0
 28 48  1  0  0  0  0
 28 49  1  0  0  0  0
 29 50  1  0  0  0  0
 29 51  1  0  0  0  0
M  END
$$$$
