CHEMBL3969695
 OpenBabel04072215373D

 51 55  0  0  0  0  0  0  0  0999 V2000
    2.7232   -0.7008    0.7993 O   0  0  0  0  0  0  0  0  0  0  0  0
    2.0771    0.0564    0.0750 C   0  0  0  0  0  0  0  0  0  0  0  0
    0.6512    0.2692    0.4088 C   0  0  0  0  0  0  0  0  0  0  0  0
    0.3007    0.2961    1.7634 C   0  0  0  0  0  0  0  0  0  0  0  0
   -1.0209    0.5330    2.1284 C   0  0  0  0  0  0  0  0  0  0  0  0
   -1.9845    0.7704    1.1460 C   0  0  0  0  0  0  0  0  0  0  0  0
   -1.6443    0.7370   -0.2084 C   0  0  0  0  0  0  0  0  0  0  0  0
   -2.5419    1.0469   -1.2501 N   0  0  0  0  0  0  0  0  0  0  0  0
   -3.7648    1.6617   -1.1382 C   0  0  0  0  0  0  0  0  0  0  0  0
   -4.2833    2.0021   -0.0859 O   0  0  0  0  0  0  0  0  0  0  0  0
   -4.4493    1.9455   -2.3999 C   0  0  0  0  0  0  0  0  0  0  0  0
   -5.6519    2.6196   -2.5488 C   0  0  0  0  0  0  0  0  0  0  0  0
   -6.0467    2.7357   -3.9128 C   0  0  0  0  0  0  0  0  0  0  0  0
   -5.1253    2.1521   -4.7408 C   0  0  0  0  0  0  0  0  0  0  0  0
   -5.1923    2.0641   -6.4523 Cl  0  0  0  0  0  0  0  0  0  0  0  0
   -3.8141    1.4680   -3.9200 S   0  0  0  0  0  0  0  0  0  0  0  0
   -0.3306    0.4245   -0.5731 C   0  0  0  0  0  0  0  0  0  0  0  0
    2.7715    0.7518   -1.0542 C   0  0  0  0  0  0  0  0  0  0  0  0
    2.2422    1.8467   -1.7621 C   0  0  0  0  0  0  0  0  0  0  0  0
    2.9454    2.4469   -2.8335 C   0  0  0  0  0  0  0  0  0  0  0  0
    4.2832    2.0625   -3.0403 C   0  0  0  0  0  0  0  0  0  0  0  0
    5.3974    2.3527   -3.8987 C   0  0  0  0  0  0  0  0  0  0  0  0
    5.6838    1.8073   -5.2163 C   0  0  0  0  0  0  0  0  0  0  0  0
    5.1217    0.6851   -5.7081 C   0  0  0  0  0  0  0  0  0  0  0  0
    5.8970   -0.3061   -6.4906 C   0  0  0  0  0  0  0  0  0  0  0  0
    5.2827   -1.4714   -6.9395 C   0  0  0  0  0  0  0  0  0  0  0  0
    6.0689   -2.4918   -7.4800 C   0  0  0  0  0  0  0  0  0  0  0  0
    7.4475   -2.3335   -7.5466 C   0  0  0  0  0  0  0  0  0  0  0  0
    7.9846   -1.1455   -7.0786 C   0  0  0  0  0  0  0  0  0  0  0  0
    7.2418   -0.1375   -6.5622 N   0  0  0  0  0  0  0  0  0  0  0  0
    6.4823    2.3601   -3.0961 N   0  0  0  0  0  0  0  0  0  0  0  0
    6.1847    1.3497   -2.2585 N   0  0  0  0  0  0  0  0  0  0  0  0
    4.8349    1.1517   -2.1454 C   0  0  0  0  0  0  0  0  0  0  0  0
    4.0934    0.3524   -1.2848 C   0  0  0  0  0  0  0  0  0  0  0  0
    1.0547    0.1342    2.5373 H   0  0  0  0  0  0  0  0  0  0  0  0
   -1.3000    0.5452    3.1783 H   0  0  0  0  0  0  0  0  0  0  0  0
   -3.0001    0.9584    1.4777 H   0  0  0  0  0  0  0  0  0  0  0  0
   -2.2060    0.9069   -2.1951 H   0  0  0  0  0  0  0  0  0  0  0  0
   -6.2145    3.0124   -1.7074 H   0  0  0  0  0  0  0  0  0  0  0  0
   -6.9472    3.2285   -4.2573 H   0  0  0  0  0  0  0  0  0  0  0  0
   -0.0658    0.3401   -1.6220 H   0  0  0  0  0  0  0  0  0  0  0  0
    1.2925    2.2915   -1.4738 H   0  0  0  0  0  0  0  0  0  0  0  0
    2.5135    3.2878   -3.3707 H   0  0  0  0  0  0  0  0  0  0  0  0
    6.6738    2.0856   -5.5827 H   0  0  0  0  0  0  0  0  0  0  0  0
    4.1728    0.3282   -5.3242 H   0  0  0  0  0  0  0  0  0  0  0  0
    4.2121   -1.6125   -6.8375 H   0  0  0  0  0  0  0  0  0  0  0  0
    5.6069   -3.4155   -7.8176 H   0  0  0  0  0  0  0  0  0  0  0  0
    8.0860   -3.1159   -7.9427 H   0  0  0  0  0  0  0  0  0  0  0  0
    9.0556   -0.9767   -7.0906 H   0  0  0  0  0  0  0  0  0  0  0  0
    6.9285    0.9367   -1.7107 H   0  0  0  0  0  0  0  0  0  0  0  0
    4.5598   -0.4410   -0.7091 H   0  0  0  0  0  0  0  0  0  0  0  0
  1  2  2  0  0  0  0
  2  3  1  0  0  0  0
  2 18  1  0  0  0  0
  3  4  1  0  0  0  0
  3 17  2  0  0  0  0
  4  5  2  0  0  0  0
  4 35  1  0  0  0  0
  5  6  1  0  0  0  0
  5 36  1  0  0  0  0
  6  7  2  0  0  0  0
  6 37  1  0  0  0  0
  7  8  1  0  0  0  0
  7 17  1  0  0  0  0
  8  9  1  0  0  0  0
  8 38  1  0  0  0  0
  9 10  2  0  0  0  0
  9 11  1  0  0  0  0
 11 12  2  0  0  0  0
 11 16  1  0  0  0  0
 12 13  1  0  0  0  0
 12 39  1  0  0  0  0
 13 14  2  0  0  0  0
 13 40  1  0  0  0  0
 14 15  1  0  0  0  0
 14 16  1  0  0  0  0
 17 41  1  0  0  0  0
 18 19  1  0  0  0  0
 18 34  2  0  0  0  0
 19 20  2  0  0  0  0
 19 42  1  0  0  0  0
 20 21  1  0  0  0  0
 20 43  1  0  0  0  0
 21 22  1  0  0  0  0
 21 33  2  0  0  0  0
 22 23  1  0  0  0  0
 22 31  2  0  0  0  0
 23 24  2  0  0  0  0
 23 44  1  0  0  0  0
 24 25  1  0  0  0  0
 24 45  1  0  0  0  0
 25 26  1  0  0  0  0
 25 30  2  0  0  0  0
 26 27  2  0  0  0  0
 26 46  1  0  0  0  0
 27 28  1  0  0  0  0
 27 47  1  0  0  0  0
 28 29  2  0  0  0  0
 28 48  1  0  0  0  0
 29 30  1  0  0  0  0
 29 49  1  0  0  0  0
 31 32  1  0  0  0  0
 32 33  1  0  0  0  0
 32 50  1  0  0  0  0
 33 34  1  0  0  0  0
 34 51  1  0  0  0  0
M  END
$$$$
