CHEMBL2204527
 OpenBabel04072215363D

 61 64  0  0  0  0  0  0  0  0999 V2000
    1.2092    1.4653   -2.4554 C   0  0  0  0  0  0  0  0  0  0  0  0
    2.6257    1.0296   -2.1892 C   0  0  0  0  0  0  0  0  0  0  0  0
    2.8814   -0.1452   -1.9522 O   0  0  0  0  0  0  0  0  0  0  0  0
    3.5133    2.0855   -2.2252 N   0  0  0  0  0  0  0  0  0  0  0  0
    4.8494    1.8872   -2.0085 C   0  0  0  0  0  0  0  0  0  0  0  0
    5.5138    0.7629   -2.0473 N   0  0  0  0  0  0  0  0  0  0  0  0
    6.8119    1.0030   -1.6563 C   0  0  0  0  0  0  0  0  0  0  0  0
    7.8601    0.1097   -1.5253 C   0  0  0  0  0  0  0  0  0  0  0  0
    9.0479    0.5481   -1.0648 N   0  0  0  0  0  0  0  0  0  0  0  0
    9.2097    1.8466   -0.7242 C   0  0  0  0  0  0  0  0  0  0  0  0
   10.4335    2.2162   -0.1650 N   0  0  0  0  0  0  0  0  0  0  0  0
   11.6904    1.6338   -0.4059 C   0  0  0  0  0  0  0  0  0  0  0  0
   11.9549    1.0381   -1.6506 C   0  0  0  0  0  0  0  0  0  0  0  0
   13.1355    0.3485   -1.9234 C   0  0  0  0  0  0  0  0  0  0  0  0
   13.3987   -0.2299   -3.1880 N   0  0  0  0  0  0  0  0  0  0  0  0
   12.7394    0.1073   -4.3613 C   0  0  0  0  0  0  0  0  0  0  0  0
   11.8964    0.9905   -4.4917 O   0  0  0  0  0  0  0  0  0  0  0  0
   13.1209   -0.6313   -5.5933 C   0  0  0  0  0  0  0  0  0  0  0  0
   13.5735   -1.9517   -5.5807 C   0  0  0  0  0  0  0  0  0  0  0  0
   13.7607   -2.6239   -6.7908 C   0  0  0  0  0  0  0  0  0  0  0  0
   13.5132   -1.9798   -8.0075 C   0  0  0  0  0  0  0  0  0  0  0  0
   13.1066   -0.6411   -8.0374 C   0  0  0  0  0  0  0  0  0  0  0  0
   12.8635    0.0803   -9.3460 C   0  0  0  0  0  0  0  0  0  0  0  0
   11.4170    0.0249   -9.9050 C   0  0  0  0  0  0  0  0  0  0  0  0
   10.9906   -1.4229  -10.1926 C   0  0  0  0  0  0  0  0  0  0  0  0
   10.4080    0.6735   -8.9440 C   0  0  0  0  0  0  0  0  0  0  0  0
   11.3890    0.7759  -11.1892 C   0  0  0  0  0  0  0  0  0  0  0  0
   11.3660    1.3481  -12.1924 N   0  0  0  0  0  0  0  0  0  0  0  0
   12.9094    0.0206   -6.8204 C   0  0  0  0  0  0  0  0  0  0  0  0
   14.0748    0.2163   -0.9031 C   0  0  0  0  0  0  0  0  0  0  0  0
   13.8463    0.8168    0.3422 C   0  0  0  0  0  0  0  0  0  0  0  0
   12.6625    1.5341    0.6008 C   0  0  0  0  0  0  0  0  0  0  0  0
   12.4343    2.1369    1.9575 C   0  0  0  0  0  0  0  0  0  0  0  0
    8.2615    2.7922   -0.8250 N   0  0  0  0  0  0  0  0  0  0  0  0
    7.1034    2.3162   -1.3198 C   0  0  0  0  0  0  0  0  0  0  0  0
    5.7349    3.2977   -1.6205 S   0  0  0  0  0  0  0  0  0  0  0  0
    0.5302    0.6305   -2.2550 H   0  0  0  0  0  0  0  0  0  0  0  0
    1.1068    1.7624   -3.5020 H   0  0  0  0  0  0  0  0  0  0  0  0
    0.9365    2.2964   -1.7995 H   0  0  0  0  0  0  0  0  0  0  0  0
    3.1830    3.0382   -2.2529 H   0  0  0  0  0  0  0  0  0  0  0  0
    7.7756   -0.9440   -1.7567 H   0  0  0  0  0  0  0  0  0  0  0  0
   10.3967    3.0864    0.3384 H   0  0  0  0  0  0  0  0  0  0  0  0
   11.1883    1.1163   -2.4144 H   0  0  0  0  0  0  0  0  0  0  0  0
   14.2065   -0.8336   -3.2484 H   0  0  0  0  0  0  0  0  0  0  0  0
   13.7350   -2.4891   -4.6516 H   0  0  0  0  0  0  0  0  0  0  0  0
   14.0781   -3.6642   -6.7887 H   0  0  0  0  0  0  0  0  0  0  0  0
   13.6283   -2.5396   -8.9337 H   0  0  0  0  0  0  0  0  0  0  0  0
   13.5637   -0.3220  -10.0928 H   0  0  0  0  0  0  0  0  0  0  0  0
   13.1727    1.1289   -9.2209 H   0  0  0  0  0  0  0  0  0  0  0  0
   10.9298   -2.0175   -9.2754 H   0  0  0  0  0  0  0  0  0  0  0  0
   11.6983   -1.9145  -10.8706 H   0  0  0  0  0  0  0  0  0  0  0  0
   10.0046   -1.4591  -10.6704 H   0  0  0  0  0  0  0  0  0  0  0  0
   10.3296    0.1211   -8.0028 H   0  0  0  0  0  0  0  0  0  0  0  0
    9.4035    0.7101   -9.3820 H   0  0  0  0  0  0  0  0  0  0  0  0
   10.6915    1.7037   -8.7073 H   0  0  0  0  0  0  0  0  0  0  0  0
   12.5578    1.0529   -6.8168 H   0  0  0  0  0  0  0  0  0  0  0  0
   15.0009   -0.3285   -1.0628 H   0  0  0  0  0  0  0  0  0  0  0  0
   14.5995    0.7112    1.1207 H   0  0  0  0  0  0  0  0  0  0  0  0
   13.2693    1.9341    2.6356 H   0  0  0  0  0  0  0  0  0  0  0  0
   11.5297    1.7185    2.4106 H   0  0  0  0  0  0  0  0  0  0  0  0
   12.3289    3.2236    1.8749 H   0  0  0  0  0  0  0  0  0  0  0  0
  1  2  1  0  0  0  0
  1 37  1  0  0  0  0
  1 38  1  0  0  0  0
  1 39  1  0  0  0  0
  2  3  2  0  0  0  0
  2  4  1  0  0  0  0
  4  5  1  0  0  0  0
  4 40  1  0  0  0  0
  5  6  2  0  0  0  0
  5 36  1  0  0  0  0
  6  7  1  0  0  0  0
  7  8  1  0  0  0  0
  7 35  2  0  0  0  0
  8  9  2  0  0  0  0
  8 41  1  0  0  0  0
  9 10  1  0  0  0  0
 10 11  1  0  0  0  0
 10 34  2  0  0  0  0
 11 12  1  0  0  0  0
 11 42  1  0  0  0  0
 12 13  1  0  0  0  0
 12 32  2  0  0  0  0
 13 14  2  0  0  0  0
 13 43  1  0  0  0  0
 14 15  1  0  0  0  0
 14 30  1  0  0  0  0
 15 16  1  0  0  0  0
 15 44  1  0  0  0  0
 16 17  2  0  0  0  0
 16 18  1  0  0  0  0
 18 19  1  0  0  0  0
 18 29  2  0  0  0  0
 19 20  2  0  0  0  0
 19 45  1  0  0  0  0
 20 21  1  0  0  0  0
 20 46  1  0  0  0  0
 21 22  2  0  0  0  0
 21 47  1  0  0  0  0
 22 23  1  0  0  0  0
 22 29  1  0  0  0  0
 23 24  1  0  0  0  0
 23 48  1  0  0  0  0
 23 49  1  0  0  0  0
 24 25  1  0  0  0  0
 24 26  1  0  0  0  0
 24 27  1  0  0  0  0
 25 50  1  0  0  0  0
 25 51  1  0  0  0  0
 25 52  1  0  0  0  0
 26 53  1  0  0  0  0
 26 54  1  0  0  0  0
 26 55  1  0  0  0  0
 27 28  3  0  0  0  0
 29 56  1  0  0  0  0
 30 31  2  0  0  0  0
 30 57  1  0  0  0  0
 31 32  1  0  0  0  0
 31 58  1  0  0  0  0
 32 33  1  0  0  0  0
 33 59  1  0  0  0  0
 33 60  1  0  0  0  0
 33 61  1  0  0  0  0
 34 35  1  0  0  0  0
 35 36  1  0  0  0  0
M  END
$$$$
