CHEMBL188901
 OpenBabel04072215363D

 43 45  0  0  0  0  0  0  0  0999 V2000
    2.8412    0.3872   -0.7370 O   0  0  0  0  0  0  0  0  0  0  0  0
    2.4053    0.6341    0.5939 C   0  0  0  0  0  0  0  0  0  0  0  0
    2.9142   -0.4676    1.5117 C   0  0  0  0  0  0  0  0  0  0  0  0
    4.4421   -0.5090    1.5352 C   0  0  0  0  0  0  0  0  0  0  0  0
    4.8941   -1.5760    2.4330 N   0  0  0  0  0  0  0  0  0  0  0  0
    6.2781   -1.7798    2.5437 C   0  0  0  0  0  0  0  0  0  0  0  0
    6.7834   -3.0422    2.8580 C   0  0  0  0  0  0  0  0  0  0  0  0
    8.0906   -3.3373    3.0323 N   0  0  0  0  0  0  0  0  0  0  0  0
    8.9555   -2.3049    2.9306 C   0  0  0  0  0  0  0  0  0  0  0  0
   10.2471   -2.6120    3.1342 F   0  0  0  0  0  0  0  0  0  0  0  0
    8.5999   -0.9840    2.6619 C   0  0  0  0  0  0  0  0  0  0  0  0
    9.5814    0.1087    2.5914 C   0  0  0  0  0  0  0  0  0  0  0  0
   10.9033   -0.0491    2.1804 C   0  0  0  0  0  0  0  0  0  0  0  0
   11.8060    0.9614    2.1698 N   0  0  0  0  0  0  0  0  0  0  0  0
   11.3316    2.1545    2.5963 C   0  0  0  0  0  0  0  0  0  0  0  0
   10.0034    2.3740    2.9631 C   0  0  0  0  0  0  0  0  0  0  0  0
    9.5942    3.6470    3.4245 N   0  0  0  0  0  0  0  0  0  0  0  0
    8.2854    4.1761    3.2930 C   0  0  0  0  0  0  0  0  0  0  0  0
    7.4440    3.8283    2.2255 C   0  0  0  0  0  0  0  0  0  0  0  0
    6.1943    4.4303    2.0705 C   0  0  0  0  0  0  0  0  0  0  0  0
    5.7740    5.3990    2.9781 C   0  0  0  0  0  0  0  0  0  0  0  0
    6.6119    5.7662    4.0304 C   0  0  0  0  0  0  0  0  0  0  0  0
    6.0960    6.9737    5.1428 Cl  0  0  0  0  0  0  0  0  0  0  0  0
    7.8651    5.1715    4.1829 C   0  0  0  0  0  0  0  0  0  0  0  0
    9.1293    1.3389    2.9596 N   0  0  0  0  0  0  0  0  0  0  0  0
    7.2203   -0.7459    2.4939 C   0  0  0  0  0  0  0  0  0  0  0  0
    2.4518    1.0791   -1.3010 H   0  0  0  0  0  0  0  0  0  0  0  0
    1.3111    0.6550    0.5999 H   0  0  0  0  0  0  0  0  0  0  0  0
    2.7789    1.6129    0.9087 H   0  0  0  0  0  0  0  0  0  0  0  0
    2.5317   -1.4371    1.1693 H   0  0  0  0  0  0  0  0  0  0  0  0
    2.5288   -0.3051    2.5256 H   0  0  0  0  0  0  0  0  0  0  0  0
    4.8055    0.4662    1.8776 H   0  0  0  0  0  0  0  0  0  0  0  0
    4.8310   -0.6935    0.5271 H   0  0  0  0  0  0  0  0  0  0  0  0
    4.4067   -2.4509    2.2432 H   0  0  0  0  0  0  0  0  0  0  0  0
    6.1171   -3.8930    2.9749 H   0  0  0  0  0  0  0  0  0  0  0  0
   11.2912   -1.0008    1.8335 H   0  0  0  0  0  0  0  0  0  0  0  0
   12.0637    2.9542    2.6148 H   0  0  0  0  0  0  0  0  0  0  0  0
   10.2612    4.3642    3.1554 H   0  0  0  0  0  0  0  0  0  0  0  0
    7.7586    3.0852    1.4968 H   0  0  0  0  0  0  0  0  0  0  0  0
    5.5562    4.1452    1.2379 H   0  0  0  0  0  0  0  0  0  0  0  0
    4.8014    5.8668    2.8581 H   0  0  0  0  0  0  0  0  0  0  0  0
    8.5083    5.4690    5.0059 H   0  0  0  0  0  0  0  0  0  0  0  0
    6.8945    0.2794    2.3371 H   0  0  0  0  0  0  0  0  0  0  0  0
  1  2  1  0  0  0  0
  1 27  1  0  0  0  0
  2  3  1  0  0  0  0
  2 28  1  0  0  0  0
  2 29  1  0  0  0  0
  3  4  1  0  0  0  0
  3 30  1  0  0  0  0
  3 31  1  0  0  0  0
  4  5  1  0  0  0  0
  4 32  1  0  0  0  0
  4 33  1  0  0  0  0
  5  6  1  0  0  0  0
  5 34  1  0  0  0  0
  6  7  1  0  0  0  0
  6 26  2  0  0  0  0
  7  8  2  0  0  0  0
  7 35  1  0  0  0  0
  8  9  1  0  0  0  0
  9 10  1  0  0  0  0
  9 11  2  0  0  0  0
 11 12  1  0  0  0  0
 11 26  1  0  0  0  0
 12 13  1  0  0  0  0
 12 25  2  0  0  0  0
 13 14  2  0  0  0  0
 13 36  1  0  0  0  0
 14 15  1  0  0  0  0
 15 16  2  0  0  0  0
 15 37  1  0  0  0  0
 16 17  1  0  0  0  0
 16 25  1  0  0  0  0
 17 18  1  0  0  0  0
 17 38  1  0  0  0  0
 18 19  1  0  0  0  0
 18 24  2  0  0  0  0
 19 20  2  0  0  0  0
 19 39  1  0  0  0  0
 20 21  1  0  0  0  0
 20 40  1  0  0  0  0
 21 22  2  0  0  0  0
 21 41  1  0  0  0  0
 22 23  1  0  0  0  0
 22 24  1  0  0  0  0
 24 42  1  0  0  0  0
 26 43  1  0  0  0  0
M  END
$$$$
