CHEMBL396265
 OpenBabel04072215373D

 50 54  0  0  0  0  0  0  0  0999 V2000
   10.8566   -1.5419    3.9997 C   0  0  0  0  0  0  0  0  0  0  0  0
   10.1038   -2.2239    5.0061 O   0  0  0  0  0  0  0  0  0  0  0  0
    8.8491   -2.6197    4.6157 C   0  0  0  0  0  0  0  0  0  0  0  0
    8.1068   -1.8897    3.6807 C   0  0  0  0  0  0  0  0  0  0  0  0
    6.8918   -2.3297    3.1908 C   0  0  0  0  0  0  0  0  0  0  0  0
    6.2988   -1.5736    2.2635 N   0  0  0  0  0  0  0  0  0  0  0  0
    5.1355   -2.0119    1.7804 C   0  0  0  0  0  0  0  0  0  0  0  0
    4.5217   -3.1358    2.1403 N   0  0  0  0  0  0  0  0  0  0  0  0
    5.1644   -3.9084    3.0447 C   0  0  0  0  0  0  0  0  0  0  0  0
    4.6027   -5.1527    3.3578 O   0  0  0  0  0  0  0  0  0  0  0  0
    3.6664   -5.6425    2.4604 C   0  0  0  0  0  0  0  0  0  0  0  0
    3.9331   -5.6947    1.0830 C   0  0  0  0  0  0  0  0  0  0  0  0
    2.9437   -6.0427    0.1602 C   0  0  0  0  0  0  0  0  0  0  0  0
    1.7036   -6.3910    0.6896 C   0  0  0  0  0  0  0  0  0  0  0  0
    0.5146   -6.7301    0.0998 N   0  0  0  0  0  0  0  0  0  0  0  0
   -0.3984   -7.0231    1.0816 C   0  0  0  0  0  0  0  0  0  0  0  0
   -1.6311   -7.4469    0.7208 N   0  0  0  0  0  0  0  0  0  0  0  0
   -2.6601   -7.8548    1.5947 C   0  0  0  0  0  0  0  0  0  0  0  0
   -2.7395   -7.4374    2.9294 C   0  0  0  0  0  0  0  0  0  0  0  0
   -3.7205   -7.9396    3.7897 C   0  0  0  0  0  0  0  0  0  0  0  0
   -4.6308   -8.8809    3.3234 C   0  0  0  0  0  0  0  0  0  0  0  0
   -5.8144   -9.5300    4.3891 Cl  0  0  0  0  0  0  0  0  0  0  0  0
   -4.5789   -9.3092    2.0003 C   0  0  0  0  0  0  0  0  0  0  0  0
   -3.6000   -8.7962    1.1421 C   0  0  0  0  0  0  0  0  0  0  0  0
    0.1423   -6.8540    2.2695 N   0  0  0  0  0  0  0  0  0  0  0  0
    1.4359   -6.4437    2.0518 C   0  0  0  0  0  0  0  0  0  0  0  0
    2.4360   -6.0777    2.9690 C   0  0  0  0  0  0  0  0  0  0  0  0
    6.3717   -3.5446    3.6533 C   0  0  0  0  0  0  0  0  0  0  0  0
    7.0839   -4.2676    4.6434 C   0  0  0  0  0  0  0  0  0  0  0  0
    8.2992   -3.7893    5.1528 C   0  0  0  0  0  0  0  0  0  0  0  0
    8.8668   -4.5890    6.1096 O   0  0  0  0  0  0  0  0  0  0  0  0
    9.5573   -3.9095    7.1577 C   0  0  0  0  0  0  0  0  0  0  0  0
   11.9141   -1.5880    4.2737 H   0  0  0  0  0  0  0  0  0  0  0  0
   10.5681   -0.4862    3.9532 H   0  0  0  0  0  0  0  0  0  0  0  0
   10.7477   -2.0172    3.0170 H   0  0  0  0  0  0  0  0  0  0  0  0
    8.4773   -0.9434    3.2960 H   0  0  0  0  0  0  0  0  0  0  0  0
    4.6587   -1.4132    1.0126 H   0  0  0  0  0  0  0  0  0  0  0  0
    4.9084   -5.3904    0.7103 H   0  0  0  0  0  0  0  0  0  0  0  0
    3.1320   -6.0057   -0.9063 H   0  0  0  0  0  0  0  0  0  0  0  0
    0.3374   -6.7616   -0.8905 H   0  0  0  0  0  0  0  0  0  0  0  0
   -1.8536   -7.6052   -0.2539 H   0  0  0  0  0  0  0  0  0  0  0  0
   -2.0357   -6.7056    3.3192 H   0  0  0  0  0  0  0  0  0  0  0  0
   -3.7515   -7.5974    4.8202 H   0  0  0  0  0  0  0  0  0  0  0  0
   -5.2820  -10.0524    1.6349 H   0  0  0  0  0  0  0  0  0  0  0  0
   -3.5606   -9.1665    0.1208 H   0  0  0  0  0  0  0  0  0  0  0  0
    2.2299   -6.0884    4.0325 H   0  0  0  0  0  0  0  0  0  0  0  0
    6.6858   -5.2064    5.0241 H   0  0  0  0  0  0  0  0  0  0  0  0
    9.4777   -4.5259    8.0597 H   0  0  0  0  0  0  0  0  0  0  0  0
    9.1230   -2.9313    7.3951 H   0  0  0  0  0  0  0  0  0  0  0  0
   10.6209   -3.8191    6.9163 H   0  0  0  0  0  0  0  0  0  0  0  0
  1  2  1  0  0  0  0
  1 33  1  0  0  0  0
  1 34  1  0  0  0  0
  1 35  1  0  0  0  0
  2  3  1  0  0  0  0
  3  4  1  0  0  0  0
  3 30  2  0  0  0  0
  4  5  2  0  0  0  0
  4 36  1  0  0  0  0
  5  6  1  0  0  0  0
  5 28  1  0  0  0  0
  6  7  2  0  0  0  0
  7  8  1  0  0  0  0
  7 37  1  0  0  0  0
  8  9  2  0  0  0  0
  9 10  1  0  0  0  0
  9 28  1  0  0  0  0
 10 11  1  0  0  0  0
 11 12  1  0  0  0  0
 11 27  2  0  0  0  0
 12 13  2  0  0  0  0
 12 38  1  0  0  0  0
 13 14  1  0  0  0  0
 13 39  1  0  0  0  0
 14 15  1  0  0  0  0
 14 26  2  0  0  0  0
 15 16  1  0  0  0  0
 15 40  1  0  0  0  0
 16 17  1  0  0  0  0
 16 25  2  0  0  0  0
 17 18  1  0  0  0  0
 17 41  1  0  0  0  0
 18 19  1  0  0  0  0
 18 24  2  0  0  0  0
 19 20  2  0  0  0  0
 19 42  1  0  0  0  0
 20 21  1  0  0  0  0
 20 43  1  0  0  0  0
 21 22  1  0  0  0  0
 21 23  2  0  0  0  0
 23 24  1  0  0  0  0
 23 44  1  0  0  0  0
 24 45  1  0  0  0  0
 25 26  1  0  0  0  0
 26 27  1  0  0  0  0
 27 46  1  0  0  0  0
 28 29  2  0  0  0  0
 29 30  1  0  0  0  0
 29 47  1  0  0  0  0
 30 31  1  0  0  0  0
 31 32  1  0  0  0  0
 32 48  1  0  0  0  0
 32 49  1  0  0  0  0
 32 50  1  0  0  0  0
M  END
$$$$
