CHEMBL3909572
 OpenBabel04072215373D

 63 67  0  0  1  0  0  0  0  0999 V2000
    2.8202    3.8009   -0.0433 C   0  0  0  0  0  0  0  0  0  0  0  0
    4.2504    3.3847    0.3065 C   0  0  0  0  0  0  0  0  0  0  0  0
    4.6507    1.9905   -0.0132 N   0  0  0  0  0  0  0  0  0  0  0  0
    4.3782    1.6449   -1.4189 C   0  0  0  0  0  0  0  0  0  0  0  0
    5.2078    2.4652   -2.4059 C   0  0  0  0  0  0  0  0  0  0  0  0
    4.0817    1.0264    0.9747 C   0  0  1  0  0  0  0  0  0  0  0  0
    4.3204   -0.4809    0.7425 C   0  0  0  0  0  0  0  0  0  0  0  0
    5.5842   -0.8357    1.3216 O   0  0  0  0  0  0  0  0  0  0  0  0
    5.8583    0.0988    2.3820 C   0  0  2  0  0  0  0  0  0  0  0  0
    5.6975   -0.5796    3.7473 C   0  0  1  0  0  0  0  0  0  0  0  0
    6.8801   -0.5746    4.5559 O   0  0  0  0  0  0  0  0  0  0  0  0
    7.9570   -1.3066    4.1413 C   0  0  0  0  0  0  0  0  0  0  0  0
    7.8506   -2.4019    3.2782 C   0  0  0  0  0  0  0  0  0  0  0  0
    8.9564   -3.0882    2.7935 C   0  0  0  0  0  0  0  0  0  0  0  0
    8.7464   -4.1060    1.9560 N   0  0  0  0  0  0  0  0  0  0  0  0
    9.8282   -4.7105    1.4596 C   0  0  0  0  0  0  0  0  0  0  0  0
   11.0974   -4.3970    1.7289 N   0  0  0  0  0  0  0  0  0  0  0  0
   11.3016   -3.3810    2.5875 C   0  0  0  0  0  0  0  0  0  0  0  0
   12.6319   -2.9968    2.8807 N   0  0  0  0  0  0  0  0  0  0  0  0
   13.7800   -3.0469    2.0664 C   0  0  0  0  0  0  0  0  0  0  0  0
   15.0191   -2.6984    2.6236 C   0  0  0  0  0  0  0  0  0  0  0  0
   16.1496   -2.5173    1.8184 C   0  0  0  0  0  0  0  0  0  0  0  0
   16.0580   -2.6771    0.4347 C   0  0  0  0  0  0  0  0  0  0  0  0
   17.6013   -2.2873   -0.6000 Br  0  0  0  0  0  0  0  0  0  0  0  0
   14.8444   -3.0659   -0.1346 C   0  0  0  0  0  0  0  0  0  0  0  0
   14.6440   -3.3018   -1.8357 Cl  0  0  0  0  0  0  0  0  0  0  0  0
   13.7185   -3.2415    0.6797 C   0  0  0  0  0  0  0  0  0  0  0  0
   10.2331   -2.6743    3.1782 C   0  0  0  0  0  0  0  0  0  0  0  0
   10.3571   -1.5866    4.0796 C   0  0  0  0  0  0  0  0  0  0  0  0
    9.2329   -0.9299    4.5948 C   0  0  0  0  0  0  0  0  0  0  0  0
    9.5494    0.0907    5.4536 O   0  0  0  0  0  0  0  0  0  0  0  0
    8.5896    0.4346    6.4463 C   0  0  0  0  0  0  0  0  0  0  0  0
    4.6569    0.2922    4.4424 C   0  0  0  0  0  0  0  0  0  0  0  0
    3.8478    0.8543    3.4059 O   0  0  0  0  0  0  0  0  0  0  0  0
    4.7666    1.1597    2.3407 C   0  0  2  0  0  0  0  0  0  0  0  0
    2.5792    4.7453    0.4574 H   0  0  0  0  0  0  0  0  0  0  0  0
    2.0795    3.0643    0.2803 H   0  0  0  0  0  0  0  0  0  0  0  0
    2.7024    3.9633   -1.1187 H   0  0  0  0  0  0  0  0  0  0  0  0
    4.3962    3.5890    1.3714 H   0  0  0  0  0  0  0  0  0  0  0  0
    4.9442    4.0746   -0.1880 H   0  0  0  0  0  0  0  0  0  0  0  0
    3.3118    1.7336   -1.6583 H   0  0  0  0  0  0  0  0  0  0  0  0
    4.6546    0.6083   -1.6221 H   0  0  0  0  0  0  0  0  0  0  0  0
    4.9525    3.5280   -2.3856 H   0  0  0  0  0  0  0  0  0  0  0  0
    5.0319    2.1068   -3.4262 H   0  0  0  0  0  0  0  0  0  0  0  0
    6.2781    2.3593   -2.1969 H   0  0  0  0  0  0  0  0  0  0  0  0
    2.9986    1.1789    1.0416 H   0  0  0  0  0  0  0  0  0  0  0  0
    4.2883   -0.8194   -0.2935 H   0  0  0  0  0  0  0  0  0  0  0  0
    3.5535   -1.0597    1.2732 H   0  0  0  0  0  0  0  0  0  0  0  0
    6.8541    0.5167    2.2052 H   0  0  0  0  0  0  0  0  0  0  0  0
    5.2855   -1.5926    3.6643 H   0  0  0  0  0  0  0  0  0  0  0  0
    6.8820   -2.7464    2.9278 H   0  0  0  0  0  0  0  0  0  0  0  0
    9.6597   -5.5300    0.7698 H   0  0  0  0  0  0  0  0  0  0  0  0
   12.8145   -3.0279    3.8760 H   0  0  0  0  0  0  0  0  0  0  0  0
   15.1118   -2.5280    3.6935 H   0  0  0  0  0  0  0  0  0  0  0  0
   17.0873   -2.2169    2.2798 H   0  0  0  0  0  0  0  0  0  0  0  0
   12.7761   -3.5036    0.2068 H   0  0  0  0  0  0  0  0  0  0  0  0
   11.3415   -1.2308    4.3751 H   0  0  0  0  0  0  0  0  0  0  0  0
    9.0993    1.0469    7.1976 H   0  0  0  0  0  0  0  0  0  0  0  0
    8.1896   -0.4478    6.9572 H   0  0  0  0  0  0  0  0  0  0  0  0
    7.7937    1.0538    6.0240 H   0  0  0  0  0  0  0  0  0  0  0  0
    5.1167    1.1064    5.0162 H   0  0  0  0  0  0  0  0  0  0  0  0
    4.0267   -0.2841    5.1251 H   0  0  0  0  0  0  0  0  0  0  0  0
    5.1873    2.1437    2.5642 H   0  0  0  0  0  0  0  0  0  0  0  0
  1  2  1  0  0  0  0
  1 36  1  0  0  0  0
  1 37  1  0  0  0  0
  1 38  1  0  0  0  0
  2  3  1  0  0  0  0
  2 39  1  0  0  0  0
  2 40  1  0  0  0  0
  3  4  1  0  0  0  0
  4  5  1  0  0  0  0
  4 41  1  0  0  0  0
  4 42  1  0  0  0  0
  5 43  1  0  0  0  0
  5 44  1  0  0  0  0
  5 45  1  0  0  0  0
  6  7  1  0  0  0  0
  6 35  1  0  0  0  0
  6  3  1  0  0  0  0
  6 46  1  1  0  0  0
  7  8  1  0  0  0  0
  7 47  1  0  0  0  0
  7 48  1  0  0  0  0
  8  9  1  0  0  0  0
  9 10  1  0  0  0  0
  9 35  1  0  0  0  0
  9 49  1  6  0  0  0
 10 11  1  0  0  0  0
 10 33  1  0  0  0  0
 10 50  1  6  0  0  0
 11 12  1  0  0  0  0
 12 13  1  0  0  0  0
 12 30  2  0  0  0  0
 13 14  2  0  0  0  0
 13 51  1  0  0  0  0
 14 15  1  0  0  0  0
 14 28  1  0  0  0  0
 15 16  2  0  0  0  0
 16 17  1  0  0  0  0
 16 52  1  0  0  0  0
 17 18  2  0  0  0  0
 18 19  1  0  0  0  0
 18 28  1  0  0  0  0
 19 20  1  0  0  0  0
 19 53  1  0  0  0  0
 20 21  1  0  0  0  0
 20 27  2  0  0  0  0
 21 22  2  0  0  0  0
 21 54  1  0  0  0  0
 22 23  1  0  0  0  0
 22 55  1  0  0  0  0
 23 24  1  0  0  0  0
 23 25  2  0  0  0  0
 25 26  1  0  0  0  0
 25 27  1  0  0  0  0
 27 56  1  0  0  0  0
 28 29  2  0  0  0  0
 29 30  1  0  0  0  0
 29 57  1  0  0  0  0
 30 31  1  0  0  0  0
 31 32  1  0  0  0  0
 32 58  1  0  0  0  0
 32 59  1  0  0  0  0
 32 60  1  0  0  0  0
 33 34  1  0  0  0  0
 33 61  1  0  0  0  0
 33 62  1  0  0  0  0
 34 35  1  0  0  0  0
 35 63  1  1  0  0  0
M  END
$$$$
