CHEMBL3628793
 OpenBabel04072215373D

 42 44  0  0  0  0  0  0  0  0999 V2000
    2.0900   -2.3945   -3.4269 C   0  0  0  0  0  0  0  0  0  0  0  0
    1.8590   -3.2510   -2.1931 C   0  0  0  0  0  0  0  0  0  0  0  0
    2.8110   -2.8635   -1.1848 O   0  0  0  0  0  0  0  0  0  0  0  0
    4.0028   -3.5195   -1.2907 C   0  0  0  0  0  0  0  0  0  0  0  0
    4.1609   -4.5132   -1.9878 O   0  0  0  0  0  0  0  0  0  0  0  0
    4.9444   -2.8715   -0.5411 N   0  0  0  0  0  0  0  0  0  0  0  0
    6.3364   -3.0971   -0.5900 C   0  0  0  0  0  0  0  0  0  0  0  0
    6.9087   -3.8735   -1.6087 C   0  0  0  0  0  0  0  0  0  0  0  0
    8.2824   -4.1078   -1.6691 C   0  0  0  0  0  0  0  0  0  0  0  0
    9.1340   -3.5253   -0.7391 C   0  0  0  0  0  0  0  0  0  0  0  0
   10.5103   -3.8235   -0.7611 N   0  0  0  0  0  0  0  0  0  0  0  0
   11.5393   -2.9625   -0.3155 C   0  0  0  0  0  0  0  0  0  0  0  0
   11.3548   -1.6357   -0.4523 N   0  0  0  0  0  0  0  0  0  0  0  0
   12.3227   -0.8472    0.0106 C   0  0  0  0  0  0  0  0  0  0  0  0
   13.4448   -1.2487    0.6141 N   0  0  0  0  0  0  0  0  0  0  0  0
   13.6174   -2.5680    0.7432 C   0  0  0  0  0  0  0  0  0  0  0  0
   14.7475   -3.0265    1.4050 C   0  0  0  0  0  0  0  0  0  0  0  0
   14.9978   -4.3898    1.5852 C   0  0  0  0  0  0  0  0  0  0  0  0
   14.1052   -5.3280    1.0853 C   0  0  0  0  0  0  0  0  0  0  0  0
   12.9559   -4.8949    0.4293 C   0  0  0  0  0  0  0  0  0  0  0  0
   12.6976   -3.5087    0.2613 C   0  0  0  0  0  0  0  0  0  0  0  0
    8.5664   -2.7392    0.2760 C   0  0  0  0  0  0  0  0  0  0  0  0
    7.1782   -2.5229    0.3753 C   0  0  0  0  0  0  0  0  0  0  0  0
    6.6681   -1.7119    1.5350 C   0  0  0  0  0  0  0  0  0  0  0  0
    1.4167   -2.6799   -4.2389 H   0  0  0  0  0  0  0  0  0  0  0  0
    3.1236   -2.4816   -3.7804 H   0  0  0  0  0  0  0  0  0  0  0  0
    1.9298   -1.3385   -3.1862 H   0  0  0  0  0  0  0  0  0  0  0  0
    1.9220   -4.3185   -2.4382 H   0  0  0  0  0  0  0  0  0  0  0  0
    0.8565   -3.0788   -1.7919 H   0  0  0  0  0  0  0  0  0  0  0  0
    4.5841   -2.1541    0.0729 H   0  0  0  0  0  0  0  0  0  0  0  0
    6.3096   -4.3125   -2.3999 H   0  0  0  0  0  0  0  0  0  0  0  0
    8.6664   -4.7401   -2.4638 H   0  0  0  0  0  0  0  0  0  0  0  0
   10.8094   -4.3304   -1.5858 H   0  0  0  0  0  0  0  0  0  0  0  0
   12.1803    0.2206   -0.1108 H   0  0  0  0  0  0  0  0  0  0  0  0
   15.4485   -2.2981    1.8061 H   0  0  0  0  0  0  0  0  0  0  0  0
   15.8873   -4.7089    2.1220 H   0  0  0  0  0  0  0  0  0  0  0  0
   14.2914   -6.3910    1.2225 H   0  0  0  0  0  0  0  0  0  0  0  0
   12.2467   -5.6351    0.0661 H   0  0  0  0  0  0  0  0  0  0  0  0
    9.2215   -2.3032    1.0281 H   0  0  0  0  0  0  0  0  0  0  0  0
    7.4549   -1.5407    2.2794 H   0  0  0  0  0  0  0  0  0  0  0  0
    5.8622   -2.2446    2.0496 H   0  0  0  0  0  0  0  0  0  0  0  0
    6.3079   -0.7361    1.1960 H   0  0  0  0  0  0  0  0  0  0  0  0
  1  2  1  0  0  0  0
  1 25  1  0  0  0  0
  1 26  1  0  0  0  0
  1 27  1  0  0  0  0
  2  3  1  0  0  0  0
  2 28  1  0  0  0  0
  2 29  1  0  0  0  0
  3  4  1  0  0  0  0
  4  5  2  0  0  0  0
  4  6  1  0  0  0  0
  6  7  1  0  0  0  0
  6 30  1  0  0  0  0
  7  8  1  0  0  0  0
  7 23  2  0  0  0  0
  8  9  2  0  0  0  0
  8 31  1  0  0  0  0
  9 10  1  0  0  0  0
  9 32  1  0  0  0  0
 10 11  1  0  0  0  0
 10 22  2  0  0  0  0
 11 12  1  0  0  0  0
 11 33  1  0  0  0  0
 12 13  1  0  0  0  0
 12 21  2  0  0  0  0
 13 14  2  0  0  0  0
 14 15  1  0  0  0  0
 14 34  1  0  0  0  0
 15 16  2  0  0  0  0
 16 17  1  0  0  0  0
 16 21  1  0  0  0  0
 17 18  2  0  0  0  0
 17 35  1  0  0  0  0
 18 19  1  0  0  0  0
 18 36  1  0  0  0  0
 19 20  2  0  0  0  0
 19 37  1  0  0  0  0
 20 21  1  0  0  0  0
 20 38  1  0  0  0  0
 22 23  1  0  0  0  0
 22 39  1  0  0  0  0
 23 24  1  0  0  0  0
 24 40  1  0  0  0  0
 24 41  1  0  0  0  0
 24 42  1  0  0  0  0
M  END
$$$$
