CHEMBL2088104
 OpenBabel04072215363D

 38 40  0  0  0  0  0  0  0  0999 V2000
    2.3626    1.4354   -0.8907 C   0  0  0  0  0  0  0  0  0  0  0  0
    0.8673    1.4478   -0.9870 C   0  0  0  0  0  0  0  0  0  0  0  0
    0.1317    2.5822   -0.6768 C   0  0  0  0  0  0  0  0  0  0  0  0
   -1.2196    2.6307   -0.7573 N   0  0  0  0  0  0  0  0  0  0  0  0
   -1.8268    1.4873   -1.1735 C   0  0  0  0  0  0  0  0  0  0  0  0
   -3.3344    1.4739   -1.2701 C   0  0  0  0  0  0  0  0  0  0  0  0
   -3.9064    0.8995   -0.0608 N   0  0  0  0  0  0  0  0  0  0  0  0
   -5.2936    0.9191   -0.0209 C   0  0  0  0  0  0  0  0  0  0  0  0
   -5.8813    0.1267    0.8783 N   0  0  0  0  0  0  0  0  0  0  0  0
   -7.2285    0.1343    0.9120 C   0  0  0  0  0  0  0  0  0  0  0  0
   -8.0043    0.9603    0.1313 C   0  0  0  0  0  0  0  0  0  0  0  0
   -9.8856    0.9265    0.2935 Br  0  0  0  0  0  0  0  0  0  0  0  0
   -7.3242    1.8029   -0.7287 C   0  0  0  0  0  0  0  0  0  0  0  0
   -8.0096    2.8141   -1.4300 N   0  0  0  0  0  0  0  0  0  0  0  0
   -7.5686    4.0149   -1.8574 C   0  0  0  0  0  0  0  0  0  0  0  0
   -6.3280    4.6026   -1.5079 C   0  0  0  0  0  0  0  0  0  0  0  0
   -6.3788    5.8912   -1.9789 C   0  0  0  0  0  0  0  0  0  0  0  0
   -5.4619    7.0311   -1.7765 C   0  0  0  0  0  0  0  0  0  0  0  0
   -7.5482    5.9681   -2.6802 N   0  0  0  0  0  0  0  0  0  0  0  0
   -8.3041    4.8563   -2.5866 N   0  0  0  0  0  0  0  0  0  0  0  0
   -5.9755    1.7481   -0.8190 N   0  0  0  0  0  0  0  0  0  0  0  0
   -1.0902    0.3471   -1.4655 C   0  0  0  0  0  0  0  0  0  0  0  0
    0.2631    0.3026   -1.3876 N   0  0  0  0  0  0  0  0  0  0  0  0
    2.7525    2.3935   -0.5336 H   0  0  0  0  0  0  0  0  0  0  0  0
    2.7959    1.2357   -1.8753 H   0  0  0  0  0  0  0  0  0  0  0  0
    2.6865    0.6551   -0.1949 H   0  0  0  0  0  0  0  0  0  0  0  0
    0.6085    3.5008   -0.3509 H   0  0  0  0  0  0  0  0  0  0  0  0
   -3.6281    0.8800   -2.1459 H   0  0  0  0  0  0  0  0  0  0  0  0
   -3.6700    2.5055   -1.4376 H   0  0  0  0  0  0  0  0  0  0  0  0
   -3.5959    1.3923    0.7724 H   0  0  0  0  0  0  0  0  0  0  0  0
   -7.6655   -0.5562    1.6238 H   0  0  0  0  0  0  0  0  0  0  0  0
   -8.9656    2.5763   -1.6715 H   0  0  0  0  0  0  0  0  0  0  0  0
   -5.5364    4.1803   -0.9090 H   0  0  0  0  0  0  0  0  0  0  0  0
   -4.6466    6.7497   -1.0994 H   0  0  0  0  0  0  0  0  0  0  0  0
   -5.9967    7.8682   -1.3160 H   0  0  0  0  0  0  0  0  0  0  0  0
   -5.0230    7.3653   -2.7198 H   0  0  0  0  0  0  0  0  0  0  0  0
   -7.9164    6.7582   -3.1990 H   0  0  0  0  0  0  0  0  0  0  0  0
   -1.5695   -0.5790   -1.7686 H   0  0  0  0  0  0  0  0  0  0  0  0
  1  2  1  0  0  0  0
  1 24  1  0  0  0  0
  1 25  1  0  0  0  0
  1 26  1  0  0  0  0
  2  3  1  0  0  0  0
  2 23  2  0  0  0  0
  3  4  2  0  0  0  0
  3 27  1  0  0  0  0
  4  5  1  0  0  0  0
  5  6  1  0  0  0  0
  5 22  2  0  0  0  0
  6  7  1  0  0  0  0
  6 28  1  0  0  0  0
  6 29  1  0  0  0  0
  7  8  1  0  0  0  0
  7 30  1  0  0  0  0
  8  9  1  0  0  0  0
  8 21  2  0  0  0  0
  9 10  2  0  0  0  0
 10 11  1  0  0  0  0
 10 31  1  0  0  0  0
 11 12  1  0  0  0  0
 11 13  2  0  0  0  0
 13 14  1  0  0  0  0
 13 21  1  0  0  0  0
 14 15  1  0  0  0  0
 14 32  1  0  0  0  0
 15 16  1  0  0  0  0
 15 20  2  0  0  0  0
 16 17  2  0  0  0  0
 16 33  1  0  0  0  0
 17 18  1  0  0  0  0
 17 19  1  0  0  0  0
 18 34  1  0  0  0  0
 18 35  1  0  0  0  0
 18 36  1  0  0  0  0
 19 20  1  0  0  0  0
 19 37  1  0  0  0  0
 22 23  1  0  0  0  0
 22 38  1  0  0  0  0
M  END
$$$$
