CHEMBL184847
 OpenBabel04072215363D

 49 52  0  0  0  0  0  0  0  0999 V2000
    1.5606    1.1176    2.4533 C   0  0  0  0  0  0  0  0  0  0  0  0
    0.3189    0.4402    1.9507 C   0  0  0  0  0  0  0  0  0  0  0  0
   -0.8646    1.1705    1.9007 C   0  0  0  0  0  0  0  0  0  0  0  0
   -2.0447    0.5981    1.4336 C   0  0  0  0  0  0  0  0  0  0  0  0
   -2.0963   -0.7217    0.9823 C   0  0  0  0  0  0  0  0  0  0  0  0
   -3.2915   -1.3084    0.4754 N   0  0  0  0  0  0  0  0  0  0  0  0
   -4.5069   -0.6557    0.3294 C   0  0  0  0  0  0  0  0  0  0  0  0
   -4.7135    0.5194    0.6174 O   0  0  0  0  0  0  0  0  0  0  0  0
   -5.5330   -1.4778   -0.1352 N   0  0  0  0  0  0  0  0  0  0  0  0
   -6.8262   -0.9061   -0.2852 C   0  0  0  0  0  0  0  0  0  0  0  0
   -7.0139    0.2192   -1.0795 C   0  0  0  0  0  0  0  0  0  0  0  0
   -8.2732    0.8271   -1.1682 C   0  0  0  0  0  0  0  0  0  0  0  0
   -9.3771    0.3742   -0.4251 C   0  0  0  0  0  0  0  0  0  0  0  0
  -10.6807    1.0856   -0.4401 C   0  0  0  0  0  0  0  0  0  0  0  0
  -11.8988    0.3737   -0.2997 C   0  0  0  0  0  0  0  0  0  0  0  0
  -13.1602    1.0072   -0.2803 C   0  0  0  0  0  0  0  0  0  0  0  0
  -13.2575    2.3861   -0.4114 C   0  0  0  0  0  0  0  0  0  0  0  0
  -12.0768    3.0824   -0.5530 C   0  0  0  0  0  0  0  0  0  0  0  0
  -10.8112    2.4739   -0.5700 C   0  0  0  0  0  0  0  0  0  0  0  0
   -9.7742    3.5493   -0.7105 C   0  0  0  0  0  0  0  0  0  0  0  0
  -10.5483    4.7597   -0.7653 N   0  0  0  0  0  0  0  0  0  0  0  0
  -11.8981    4.5317   -0.6941 C   0  0  0  0  0  0  0  0  0  0  0  0
  -12.7835    5.3600   -0.7537 O   0  0  0  0  0  0  0  0  0  0  0  0
   -9.1641   -0.7828    0.3524 C   0  0  0  0  0  0  0  0  0  0  0  0
   -7.9166   -1.4353    0.4011 C   0  0  0  0  0  0  0  0  0  0  0  0
   -0.9074   -1.4719    1.0381 C   0  0  0  0  0  0  0  0  0  0  0  0
    0.2988   -0.9099    1.5225 C   0  0  0  0  0  0  0  0  0  0  0  0
    1.5583   -1.7312    1.5993 C   0  0  0  0  0  0  0  0  0  0  0  0
    1.3623    2.1656    2.7127 H   0  0  0  0  0  0  0  0  0  0  0  0
    2.3360    1.1190    1.6816 H   0  0  0  0  0  0  0  0  0  0  0  0
    1.9334    0.6247    3.3547 H   0  0  0  0  0  0  0  0  0  0  0  0
   -0.8884    2.2082    2.2287 H   0  0  0  0  0  0  0  0  0  0  0  0
   -2.9133    1.2502    1.4397 H   0  0  0  0  0  0  0  0  0  0  0  0
   -3.2239   -2.2510    0.1076 H   0  0  0  0  0  0  0  0  0  0  0  0
   -5.4991   -2.4247    0.2105 H   0  0  0  0  0  0  0  0  0  0  0  0
   -6.1852    0.6521   -1.6353 H   0  0  0  0  0  0  0  0  0  0  0  0
   -8.3551    1.6686   -1.8438 H   0  0  0  0  0  0  0  0  0  0  0  0
  -11.8897   -0.7118   -0.2068 H   0  0  0  0  0  0  0  0  0  0  0  0
  -14.0614    0.4102   -0.1610 H   0  0  0  0  0  0  0  0  0  0  0  0
  -14.2126    2.9002   -0.3985 H   0  0  0  0  0  0  0  0  0  0  0  0
   -9.2256    3.4930   -1.6515 H   0  0  0  0  0  0  0  0  0  0  0  0
   -9.1015    3.5992    0.1492 H   0  0  0  0  0  0  0  0  0  0  0  0
  -10.1757    5.6865   -0.9175 H   0  0  0  0  0  0  0  0  0  0  0  0
   -9.9669   -1.1829    0.9691 H   0  0  0  0  0  0  0  0  0  0  0  0
   -7.8006   -2.2938    1.0547 H   0  0  0  0  0  0  0  0  0  0  0  0
   -0.9045   -2.5068    0.7057 H   0  0  0  0  0  0  0  0  0  0  0  0
    1.3981   -2.7570    1.2529 H   0  0  0  0  0  0  0  0  0  0  0  0
    1.9139   -1.7835    2.6349 H   0  0  0  0  0  0  0  0  0  0  0  0
    2.3412   -1.2856    0.9764 H   0  0  0  0  0  0  0  0  0  0  0  0
  1  2  1  0  0  0  0
  1 29  1  0  0  0  0
  1 30  1  0  0  0  0
  1 31  1  0  0  0  0
  2  3  1  0  0  0  0
  2 27  2  0  0  0  0
  3  4  2  0  0  0  0
  3 32  1  0  0  0  0
  4  5  1  0  0  0  0
  4 33  1  0  0  0  0
  5  6  1  0  0  0  0
  5 26  2  0  0  0  0
  6  7  1  0  0  0  0
  6 34  1  0  0  0  0
  7  8  2  0  0  0  0
  7  9  1  0  0  0  0
  9 10  1  0  0  0  0
  9 35  1  0  0  0  0
 10 11  1  0  0  0  0
 10 25  2  0  0  0  0
 11 12  2  0  0  0  0
 11 36  1  0  0  0  0
 12 13  1  0  0  0  0
 12 37  1  0  0  0  0
 13 14  1  0  0  0  0
 13 24  2  0  0  0  0
 14 15  1  0  0  0  0
 14 19  2  0  0  0  0
 15 16  2  0  0  0  0
 15 38  1  0  0  0  0
 16 17  1  0  0  0  0
 16 39  1  0  0  0  0
 17 18  2  0  0  0  0
 17 40  1  0  0  0  0
 18 19  1  0  0  0  0
 18 22  1  0  0  0  0
 19 20  1  0  0  0  0
 20 21  1  0  0  0  0
 20 41  1  0  0  0  0
 20 42  1  0  0  0  0
 21 22  1  0  0  0  0
 21 43  1  0  0  0  0
 22 23  2  0  0  0  0
 24 25  1  0  0  0  0
 24 44  1  0  0  0  0
 25 45  1  0  0  0  0
 26 27  1  0  0  0  0
 26 46  1  0  0  0  0
 27 28  1  0  0  0  0
 28 47  1  0  0  0  0
 28 48  1  0  0  0  0
 28 49  1  0  0  0  0
M  END
$$$$
