CHEMBL94542
 OpenBabel04072215383D

 34 37  0  0  0  0  0  0  0  0999 V2000
   -0.3725    0.6199    0.8606 C   0  0  0  0  0  0  0  0  0  0  0  0
    0.5155    1.1760    0.0257 C   0  0  0  0  0  0  0  0  0  0  0  0
    1.1426    2.4483    0.1355 C   0  0  0  0  0  0  0  0  0  0  0  0
    1.0178    3.3721    1.1945 C   0  0  0  0  0  0  0  0  0  0  0  0
    1.7365    4.4801    1.0179 N   0  0  0  0  0  0  0  0  0  0  0  0
    2.3505    4.2895   -0.1732 N   0  0  0  0  0  0  0  0  0  0  0  0
    3.2376    5.1562   -0.8008 C   0  0  0  0  0  0  0  0  0  0  0  0
    3.7789    4.8356   -1.9855 C   0  0  0  0  0  0  0  0  0  0  0  0
    4.7288    5.7006   -2.6791 C   0  0  0  0  0  0  0  0  0  0  0  0
    6.0985    5.5663   -2.4508 C   0  0  0  0  0  0  0  0  0  0  0  0
    6.9599    6.4210   -3.1177 C   0  0  0  0  0  0  0  0  0  0  0  0
    6.5494    7.3782   -3.9761 N   0  0  0  0  0  0  0  0  0  0  0  0
    5.2191    7.4915   -4.1755 C   0  0  0  0  0  0  0  0  0  0  0  0
    4.2777    6.6861   -3.5570 C   0  0  0  0  0  0  0  0  0  0  0  0
    3.3367    3.5182   -2.5382 C   0  0  0  0  0  0  0  0  0  0  0  0
    2.5122    2.6840   -1.9769 N   0  0  0  0  0  0  0  0  0  0  0  0
    2.0046    3.0617   -0.7576 C   0  0  0  0  0  0  0  0  0  0  0  0
    0.8081    0.2794   -1.1390 C   0  0  0  0  0  0  0  0  0  0  0  0
    0.1476   -1.0431   -0.7397 C   0  0  0  0  0  0  0  0  0  0  0  0
   -0.8187   -0.7249    0.3975 C   0  0  0  0  0  0  0  0  0  0  0  0
   -0.7594    1.0763    1.7610 H   0  0  0  0  0  0  0  0  0  0  0  0
    0.4285    3.2808    2.0980 H   0  0  0  0  0  0  0  0  0  0  0  0
    3.4507    6.0727   -0.2658 H   0  0  0  0  0  0  0  0  0  0  0  0
    6.4939    4.8212   -1.7683 H   0  0  0  0  0  0  0  0  0  0  0  0
    8.0350    6.3588   -2.9733 H   0  0  0  0  0  0  0  0  0  0  0  0
    4.9201    8.2748   -4.8667 H   0  0  0  0  0  0  0  0  0  0  0  0
    3.2215    6.8334   -3.7573 H   0  0  0  0  0  0  0  0  0  0  0  0
    3.7656    3.2505   -3.5189 H   0  0  0  0  0  0  0  0  0  0  0  0
    1.8796    0.1215   -1.2986 H   0  0  0  0  0  0  0  0  0  0  0  0
    0.3603    0.6723   -2.0587 H   0  0  0  0  0  0  0  0  0  0  0  0
    0.9114   -1.7503   -0.3914 H   0  0  0  0  0  0  0  0  0  0  0  0
   -0.3622   -1.5159   -1.5859 H   0  0  0  0  0  0  0  0  0  0  0  0
   -0.7445   -1.4692    1.1962 H   0  0  0  0  0  0  0  0  0  0  0  0
   -1.8552   -0.6845    0.0481 H   0  0  0  0  0  0  0  0  0  0  0  0
  1  2  2  0  0  0  0
  1 20  1  0  0  0  0
  1 21  1  0  0  0  0
  2  3  1  0  0  0  0
  2 18  1  0  0  0  0
  3  4  1  0  0  0  0
  3 17  2  0  0  0  0
  4  5  2  0  0  0  0
  4 22  1  0  0  0  0
  5  6  1  0  0  0  0
  6  7  1  0  0  0  0
  6 17  1  0  0  0  0
  7  8  2  0  0  0  0
  7 23  1  0  0  0  0
  8  9  1  0  0  0  0
  8 15  1  0  0  0  0
  9 10  1  0  0  0  0
  9 14  2  0  0  0  0
 10 11  2  0  0  0  0
 10 24  1  0  0  0  0
 11 12  1  0  0  0  0
 11 25  1  0  0  0  0
 12 13  2  0  0  0  0
 13 14  1  0  0  0  0
 13 26  1  0  0  0  0
 14 27  1  0  0  0  0
 15 16  2  0  0  0  0
 15 28  1  0  0  0  0
 16 17  1  0  0  0  0
 18 19  1  0  0  0  0
 18 29  1  0  0  0  0
 18 30  1  0  0  0  0
 19 20  1  0  0  0  0
 19 31  1  0  0  0  0
 19 32  1  0  0  0  0
 20 33  1  0  0  0  0
 20 34  1  0  0  0  0
M  END
$$$$
