CHEMBL1681934
 OpenBabel04072215363D

 45 46  0  0  0  0  0  0  0  0999 V2000
    8.4816    0.7654   -8.2402 C   0  0  0  0  0  0  0  0  0  0  0  0
    8.0670   -0.0650   -7.1566 O   0  0  0  0  0  0  0  0  0  0  0  0
    7.0491    0.6086   -6.4750 N   0  0  0  0  0  0  0  0  0  0  0  0
    6.6114   -0.1047   -5.4834 C   0  0  0  0  0  0  0  0  0  0  0  0
    5.5218    0.4053   -4.6373 C   0  0  0  0  0  0  0  0  0  0  0  0
    4.5894    1.3155   -5.1313 C   0  0  0  0  0  0  0  0  0  0  0  0
    4.5303    1.6806   -6.4765 N   0  0  0  0  0  0  0  0  0  0  0  0
    3.5964    1.8220   -4.3825 N   0  0  0  0  0  0  0  0  0  0  0  0
    3.5556    1.4330   -3.1062 C   0  0  0  0  0  0  0  0  0  0  0  0
    4.4119    0.5924   -2.5220 N   0  0  0  0  0  0  0  0  0  0  0  0
    5.3712    0.0527   -3.3096 C   0  0  0  0  0  0  0  0  0  0  0  0
    6.2426   -0.8755   -2.7232 O   0  0  0  0  0  0  0  0  0  0  0  0
    5.7777   -1.5082   -1.5809 C   0  0  0  0  0  0  0  0  0  0  0  0
    4.5040   -2.0715   -1.5398 C   0  0  0  0  0  0  0  0  0  0  0  0
    3.9887   -2.5616   -0.3415 C   0  0  0  0  0  0  0  0  0  0  0  0
    4.7366   -2.5366    0.8389 C   0  0  0  0  0  0  0  0  0  0  0  0
    4.1493   -2.9267    2.0797 N   0  0  0  0  0  0  0  0  0  0  0  0
    2.7902   -2.8655    2.3185 C   0  0  0  0  0  0  0  0  0  0  0  0
    1.9638   -2.3920    1.5526 O   0  0  0  0  0  0  0  0  0  0  0  0
    2.3977   -3.4480    3.5046 N   0  0  0  0  0  0  0  0  0  0  0  0
    0.9669   -3.4896    3.8167 C   0  0  0  0  0  0  0  0  0  0  0  0
    0.6297   -4.6424    4.7536 C   0  0  0  0  0  0  0  0  0  0  0  0
    0.4811   -2.1588    4.3857 C   0  0  0  0  0  0  0  0  0  0  0  0
    6.0758   -2.1135    0.7524 C   0  0  0  0  0  0  0  0  0  0  0  0
    7.1099   -2.1612    2.1402 Cl  0  0  0  0  0  0  0  0  0  0  0  0
    6.5954   -1.5922   -0.4518 C   0  0  0  0  0  0  0  0  0  0  0  0
    9.3460    0.3069   -8.7262 H   0  0  0  0  0  0  0  0  0  0  0  0
    8.7688    1.7559   -7.8711 H   0  0  0  0  0  0  0  0  0  0  0  0
    7.6729    0.8643   -8.9724 H   0  0  0  0  0  0  0  0  0  0  0  0
    7.0444   -1.0918   -5.2443 H   0  0  0  0  0  0  0  0  0  0  0  0
    5.4620    1.8467   -6.8596 H   0  0  0  0  0  0  0  0  0  0  0  0
    3.8816    2.4509   -6.5949 H   0  0  0  0  0  0  0  0  0  0  0  0
    2.7479    1.8206   -2.4953 H   0  0  0  0  0  0  0  0  0  0  0  0
    3.8597   -2.0665   -2.4145 H   0  0  0  0  0  0  0  0  0  0  0  0
    2.9716   -2.9421   -0.3604 H   0  0  0  0  0  0  0  0  0  0  0  0
    4.7664   -2.9921    2.8761 H   0  0  0  0  0  0  0  0  0  0  0  0
    3.0609   -3.4784    4.2624 H   0  0  0  0  0  0  0  0  0  0  0  0
    0.4276   -3.6704    2.8780 H   0  0  0  0  0  0  0  0  0  0  0  0
    1.1216   -4.5321    5.7251 H   0  0  0  0  0  0  0  0  0  0  0  0
    0.9436   -5.5992    4.3219 H   0  0  0  0  0  0  0  0  0  0  0  0
   -0.4523   -4.6927    4.9213 H   0  0  0  0  0  0  0  0  0  0  0  0
    0.9673   -1.9329    5.3398 H   0  0  0  0  0  0  0  0  0  0  0  0
   -0.6021   -2.1821    4.5483 H   0  0  0  0  0  0  0  0  0  0  0  0
    0.6945   -1.3311    3.7010 H   0  0  0  0  0  0  0  0  0  0  0  0
    7.6148   -1.2193   -0.4917 H   0  0  0  0  0  0  0  0  0  0  0  0
  1  2  1  0  0  0  0
  1 27  1  0  0  0  0
  1 28  1  0  0  0  0
  1 29  1  0  0  0  0
  2  3  1  0  0  0  0
  3  4  2  0  0  0  0
  4  5  1  0  0  0  0
  4 30  1  0  0  0  0
  5  6  1  0  0  0  0
  5 11  2  0  0  0  0
  6  7  1  0  0  0  0
  6  8  2  0  0  0  0
  7 31  1  0  0  0  0
  7 32  1  0  0  0  0
  8  9  1  0  0  0  0
  9 10  2  0  0  0  0
  9 33  1  0  0  0  0
 10 11  1  0  0  0  0
 11 12  1  0  0  0  0
 12 13  1  0  0  0  0
 13 14  1  0  0  0  0
 13 26  2  0  0  0  0
 14 15  2  0  0  0  0
 14 34  1  0  0  0  0
 15 16  1  0  0  0  0
 15 35  1  0  0  0  0
 16 17  1  0  0  0  0
 16 24  2  0  0  0  0
 17 18  1  0  0  0  0
 17 36  1  0  0  0  0
 18 19  2  0  0  0  0
 18 20  1  0  0  0  0
 20 21  1  0  0  0  0
 20 37  1  0  0  0  0
 21 22  1  0  0  0  0
 21 23  1  0  0  0  0
 21 38  1  0  0  0  0
 22 39  1  0  0  0  0
 22 40  1  0  0  0  0
 22 41  1  0  0  0  0
 23 42  1  0  0  0  0
 23 43  1  0  0  0  0
 23 44  1  0  0  0  0
 24 25  1  0  0  0  0
 24 26  1  0  0  0  0
 26 45  1  0  0  0  0
M  END
$$$$
