CHEMBL3905411
 OpenBabel04072215373D

 36 37  0  0  0  0  0  0  0  0999 V2000
   10.6834    0.9903   -0.3496 C   0  0  0  0  0  0  0  0  0  0  0  0
    9.4111    0.1675   -0.2281 C   0  0  0  0  0  0  0  0  0  0  0  0
    8.6452    0.5074    1.0507 C   0  0  0  0  0  0  0  0  0  0  0  0
    7.3295   -0.2574    1.1589 C   0  0  0  0  0  0  0  0  0  0  0  0
    7.5218   -1.6876    1.3285 N   0  0  0  0  0  0  0  0  0  0  0  0
    6.5283   -2.6250    1.4335 C   0  0  0  0  0  0  0  0  0  0  0  0
    4.9118   -2.3874    1.0995 S   0  0  0  0  0  0  0  0  0  0  0  0
    6.9426   -3.8431    1.9120 N   0  0  0  0  0  0  0  0  0  0  0  0
    8.3136   -4.1926    1.9435 N   0  0  0  0  0  0  0  0  0  0  0  0
    8.4846   -5.6150    1.9847 C   0  0  0  0  0  0  0  0  0  0  0  0
    7.3910   -6.4170    2.0657 N   0  0  0  0  0  0  0  0  0  0  0  0
    7.5165   -7.7708    2.1427 N   0  0  0  0  0  0  0  0  0  0  0  0
    8.7476   -8.3130    2.1190 C   0  0  0  0  0  0  0  0  0  0  0  0
    9.9089   -7.5614    2.0198 C   0  0  0  0  0  0  0  0  0  0  0  0
   11.1802   -8.1665    1.9767 C   0  0  0  0  0  0  0  0  0  0  0  0
   12.3304   -7.3919    1.8616 C   0  0  0  0  0  0  0  0  0  0  0  0
   12.2302   -6.0051    1.7928 C   0  0  0  0  0  0  0  0  0  0  0  0
   10.9744   -5.3949    1.8366 C   0  0  0  0  0  0  0  0  0  0  0  0
    9.7894   -6.1594    1.9528 C   0  0  0  0  0  0  0  0  0  0  0  0
   11.2187    0.7213   -1.2656 H   0  0  0  0  0  0  0  0  0  0  0  0
   11.3500    0.8104    0.4998 H   0  0  0  0  0  0  0  0  0  0  0  0
   10.4571    2.0605   -0.3900 H   0  0  0  0  0  0  0  0  0  0  0  0
    9.6744   -0.8959   -0.2405 H   0  0  0  0  0  0  0  0  0  0  0  0
    8.7767    0.3552   -1.1020 H   0  0  0  0  0  0  0  0  0  0  0  0
    8.4242    1.5818    1.0650 H   0  0  0  0  0  0  0  0  0  0  0  0
    9.2720    0.2965    1.9261 H   0  0  0  0  0  0  0  0  0  0  0  0
    6.7022   -0.0758    0.2796 H   0  0  0  0  0  0  0  0  0  0  0  0
    6.7798    0.0937    2.0397 H   0  0  0  0  0  0  0  0  0  0  0  0
    8.4566   -2.0534    1.4464 H   0  0  0  0  0  0  0  0  0  0  0  0
    6.2740   -4.6166    1.9406 H   0  0  0  0  0  0  0  0  0  0  0  0
    8.7613   -3.8215    2.7828 H   0  0  0  0  0  0  0  0  0  0  0  0
    8.7639   -9.3978    2.1776 H   0  0  0  0  0  0  0  0  0  0  0  0
   11.2776   -9.2508    2.0198 H   0  0  0  0  0  0  0  0  0  0  0  0
   13.3068   -7.8688    1.8161 H   0  0  0  0  0  0  0  0  0  0  0  0
   13.1276   -5.3993    1.6931 H   0  0  0  0  0  0  0  0  0  0  0  0
   10.9276   -4.3109    1.7563 H   0  0  0  0  0  0  0  0  0  0  0  0
  1  2  1  0  0  0  0
  1 20  1  0  0  0  0
  1 21  1  0  0  0  0
  1 22  1  0  0  0  0
  2  3  1  0  0  0  0
  2 23  1  0  0  0  0
  2 24  1  0  0  0  0
  3  4  1  0  0  0  0
  3 25  1  0  0  0  0
  3 26  1  0  0  0  0
  4  5  1  0  0  0  0
  4 27  1  0  0  0  0
  4 28  1  0  0  0  0
  5  6  1  0  0  0  0
  5 29  1  0  0  0  0
  6  7  2  0  0  0  0
  6  8  1  0  0  0  0
  8  9  1  0  0  0  0
  8 30  1  0  0  0  0
  9 10  1  0  0  0  0
  9 31  1  0  0  0  0
 10 11  1  0  0  0  0
 10 19  2  0  0  0  0
 11 12  2  0  0  0  0
 12 13  1  0  0  0  0
 13 14  2  0  0  0  0
 13 32  1  0  0  0  0
 14 15  1  0  0  0  0
 14 19  1  0  0  0  0
 15 16  2  0  0  0  0
 15 33  1  0  0  0  0
 16 17  1  0  0  0  0
 16 34  1  0  0  0  0
 17 18  2  0  0  0  0
 17 35  1  0  0  0  0
 18 19  1  0  0  0  0
 18 36  1  0  0  0  0
M  END
$$$$
