CHEMBL598837
 OpenBabel04072215383D

 43 46  0  0  0  0  0  0  0  0999 V2000
    0.6923    3.4617    1.4898 C   0  0  0  0  0  0  0  0  0  0  0  0
    2.0300    2.8503    1.8611 C   0  0  0  0  0  0  0  0  0  0  0  0
    3.0234    3.4379    1.0293 O   0  0  0  0  0  0  0  0  0  0  0  0
    4.3069    3.0097    1.2096 C   0  0  0  0  0  0  0  0  0  0  0  0
    4.7501    2.0591    2.1279 C   0  0  0  0  0  0  0  0  0  0  0  0
    6.1049    1.6881    2.1714 C   0  0  0  0  0  0  0  0  0  0  0  0
    7.0377    2.2417    1.2858 C   0  0  0  0  0  0  0  0  0  0  0  0
    8.3740    1.7917    1.3093 N   0  0  0  0  0  0  0  0  0  0  0  0
    9.3270    1.8805    0.2853 C   0  0  0  0  0  0  0  0  0  0  0  0
    9.2110    2.8459   -0.6343 N   0  0  0  0  0  0  0  0  0  0  0  0
   10.0441    2.8493   -1.6713 C   0  0  0  0  0  0  0  0  0  0  0  0
   11.0336    1.9192   -1.8229 C   0  0  0  0  0  0  0  0  0  0  0  0
   11.1507    0.9778   -0.8143 C   0  0  0  0  0  0  0  0  0  0  0  0
   10.2953    0.9510    0.2456 N   0  0  0  0  0  0  0  0  0  0  0  0
   12.2332   -0.0360   -0.8596 C   0  0  0  0  0  0  0  0  0  0  0  0
   11.8587   -1.3131   -0.5687 N   0  0  0  0  0  0  0  0  0  0  0  0
   12.8050   -2.2769   -0.6105 C   0  0  0  0  0  0  0  0  0  0  0  0
   14.1391   -2.0369   -0.8837 C   0  0  0  0  0  0  0  0  0  0  0  0
   14.5290   -0.7328   -1.1534 C   0  0  0  0  0  0  0  0  0  0  0  0
   13.5661    0.2768   -1.2059 C   0  0  0  0  0  0  0  0  0  0  0  0
   14.0203    1.5272   -1.6664 N   0  0  0  0  0  0  0  0  0  0  0  0
   13.3474    2.3785   -2.5012 C   0  0  0  0  0  0  0  0  0  0  0  0
   13.9011    3.3962   -2.9048 O   0  0  0  0  0  0  0  0  0  0  0  0
   11.9715    1.9740   -2.9738 C   0  0  0  0  0  0  0  0  0  0  0  0
    6.5780    3.2511    0.4291 C   0  0  0  0  0  0  0  0  0  0  0  0
    5.2323    3.6144    0.3714 C   0  0  0  0  0  0  0  0  0  0  0  0
   -0.1024    3.0701    2.1301 H   0  0  0  0  0  0  0  0  0  0  0  0
    0.4455    3.2437    0.4452 H   0  0  0  0  0  0  0  0  0  0  0  0
    0.7249    4.5519    1.5881 H   0  0  0  0  0  0  0  0  0  0  0  0
    1.9885    1.7673    1.6980 H   0  0  0  0  0  0  0  0  0  0  0  0
    2.2449    3.0682    2.9130 H   0  0  0  0  0  0  0  0  0  0  0  0
    4.0693    1.5758    2.8196 H   0  0  0  0  0  0  0  0  0  0  0  0
    6.4149    0.9365    2.8932 H   0  0  0  0  0  0  0  0  0  0  0  0
    8.5498    0.9461    1.8339 H   0  0  0  0  0  0  0  0  0  0  0  0
    9.8768    3.6448   -2.3888 H   0  0  0  0  0  0  0  0  0  0  0  0
   12.4477   -3.2852   -0.4199 H   0  0  0  0  0  0  0  0  0  0  0  0
   14.8562   -2.8497   -0.9154 H   0  0  0  0  0  0  0  0  0  0  0  0
   15.5671   -0.5282   -1.4032 H   0  0  0  0  0  0  0  0  0  0  0  0
   15.0035    1.7551   -1.5889 H   0  0  0  0  0  0  0  0  0  0  0  0
   12.0199    1.0072   -3.4901 H   0  0  0  0  0  0  0  0  0  0  0  0
   11.6285    2.6974   -3.7223 H   0  0  0  0  0  0  0  0  0  0  0  0
    7.2458    3.7827   -0.2385 H   0  0  0  0  0  0  0  0  0  0  0  0
    4.9150    4.3692   -0.3434 H   0  0  0  0  0  0  0  0  0  0  0  0
  1  2  1  0  0  0  0
  1 27  1  0  0  0  0
  1 28  1  0  0  0  0
  1 29  1  0  0  0  0
  2  3  1  0  0  0  0
  2 30  1  0  0  0  0
  2 31  1  0  0  0  0
  3  4  1  0  0  0  0
  4  5  1  0  0  0  0
  4 26  2  0  0  0  0
  5  6  2  0  0  0  0
  5 32  1  0  0  0  0
  6  7  1  0  0  0  0
  6 33  1  0  0  0  0
  7  8  1  0  0  0  0
  7 25  2  0  0  0  0
  8  9  1  0  0  0  0
  8 34  1  0  0  0  0
  9 10  1  0  0  0  0
  9 14  2  0  0  0  0
 10 11  2  0  0  0  0
 11 12  1  0  0  0  0
 11 35  1  0  0  0  0
 12 13  2  0  0  0  0
 12 24  1  0  0  0  0
 13 14  1  0  0  0  0
 13 15  1  0  0  0  0
 15 16  1  0  0  0  0
 15 20  2  0  0  0  0
 16 17  2  0  0  0  0
 17 18  1  0  0  0  0
 17 36  1  0  0  0  0
 18 19  2  0  0  0  0
 18 37  1  0  0  0  0
 19 20  1  0  0  0  0
 19 38  1  0  0  0  0
 20 21  1  0  0  0  0
 21 22  1  0  0  0  0
 21 39  1  0  0  0  0
 22 23  2  0  0  0  0
 22 24  1  0  0  0  0
 24 40  1  0  0  0  0
 24 41  1  0  0  0  0
 25 26  1  0  0  0  0
 25 42  1  0  0  0  0
 26 43  1  0  0  0  0
M  END
$$$$
