CHEMBL1972934
 OpenBabel04072215363D

 15 16  0  0  0  0  0  0  0  0999 V2000
    0.9976    0.0625   -0.0425 N   0  0  0  0  0  0  0  0  0  0  0  0
    2.3709    0.0077   -0.0687 C   0  0  0  0  0  0  0  0  0  0  0  0
    3.0349    1.1778   -0.0778 N   0  0  0  0  0  0  0  0  0  0  0  0
    4.3781    1.1491   -0.0884 C   0  0  0  0  0  0  0  0  0  0  0  0
    5.1752    0.0759   -0.0942 N   0  0  0  0  0  0  0  0  0  0  0  0
    4.4766   -1.0713   -0.0894 C   0  0  0  0  0  0  0  0  0  0  0  0
    5.2702   -2.5815   -0.0937 S   0  0  0  0  0  0  0  0  0  0  0  0
    3.7877   -3.4307   -0.0841 C   0  0  0  0  0  0  0  0  0  0  0  0
    2.7053   -2.5771   -0.0775 C   0  0  0  0  0  0  0  0  0  0  0  0
    3.0955   -1.1943   -0.0789 C   0  0  0  0  0  0  0  0  0  0  0  0
    0.5798    0.9805   -0.0883 H   0  0  0  0  0  0  0  0  0  0  0  0
    0.4302   -0.7671   -0.0949 H   0  0  0  0  0  0  0  0  0  0  0  0
    4.8754    2.1146   -0.0921 H   0  0  0  0  0  0  0  0  0  0  0  0
    3.7766   -4.5131   -0.0838 H   0  0  0  0  0  0  0  0  0  0  0  0
    1.6795   -2.9218   -0.0708 H   0  0  0  0  0  0  0  0  0  0  0  0
  1  2  1  0  0  0  0
  1 11  1  0  0  0  0
  1 12  1  0  0  0  0
  2  3  1  0  0  0  0
  2 10  2  0  0  0  0
  3  4  2  0  0  0  0
  4  5  1  0  0  0  0
  4 13  1  0  0  0  0
  5  6  2  0  0  0  0
  6  7  1  0  0  0  0
  6 10  1  0  0  0  0
  7  8  1  0  0  0  0
  8  9  2  0  0  0  0
  8 14  1  0  0  0  0
  9 10  1  0  0  0  0
  9 15  1  0  0  0  0
M  END
$$$$
