CHEMBL2386789
 OpenBabel04072215363D

 74 78  0  0  0  0  0  0  0  0999 V2000
    2.4274   -0.4104   -0.0793 C   0  0  0  0  0  0  0  0  0  0  0  0
    1.0557    0.0363   -0.3022 N   0  0  0  0  0  0  0  0  0  0  0  0
    0.1545   -1.1194   -0.5190 C   0  0  0  0  0  0  0  0  0  0  0  0
   -1.3169   -0.6872   -0.7409 C   0  0  0  0  0  0  0  0  0  0  0  0
   -1.7519    0.1245    0.4060 N   0  0  0  0  0  0  0  0  0  0  0  0
   -3.0239    0.0615    0.9258 C   0  0  0  0  0  0  0  0  0  0  0  0
   -3.2454    0.3666    2.2803 C   0  0  0  0  0  0  0  0  0  0  0  0
   -4.5116    0.2819    2.8699 C   0  0  0  0  0  0  0  0  0  0  0  0
   -5.5985   -0.1150    2.0976 C   0  0  0  0  0  0  0  0  0  0  0  0
   -6.9751   -0.1895    2.6343 C   0  0  0  0  0  0  0  0  0  0  0  0
   -7.9405   -0.0548    1.9050 O   0  0  0  0  0  0  0  0  0  0  0  0
   -7.1349   -0.4263    4.0498 N   0  0  0  0  0  0  0  0  0  0  0  0
   -8.3892   -0.5250    4.6430 C   0  0  0  0  0  0  0  0  0  0  0  0
   -9.5998   -0.7287    4.0434 C   0  0  0  0  0  0  0  0  0  0  0  0
  -10.5675   -0.7513    5.0898 C   0  0  0  0  0  0  0  0  0  0  0  0
  -12.0017   -0.9734    4.9351 C   0  0  0  0  0  0  0  0  0  0  0  0
  -12.5021   -1.2928    3.6663 C   0  0  0  0  0  0  0  0  0  0  0  0
  -13.8520   -1.5151    3.4655 C   0  0  0  0  0  0  0  0  0  0  0  0
  -14.7387   -1.4125    4.5221 C   0  0  0  0  0  0  0  0  0  0  0  0
  -16.1075   -1.5993    4.3455 N   0  0  0  0  0  0  0  0  0  0  0  0
  -16.7901   -1.9016    3.1917 C   0  0  0  0  0  0  0  0  0  0  0  0
  -16.3148   -2.0543    2.0680 O   0  0  0  0  0  0  0  0  0  0  0  0
  -18.1312   -2.1214    3.3488 N   0  0  0  0  0  0  0  0  0  0  0  0
  -18.8615   -1.8513    4.4794 C   0  0  0  0  0  0  0  0  0  0  0  0
  -20.1873   -2.2497    4.6933 C   0  0  0  0  0  0  0  0  0  0  0  0
  -20.4936   -1.7543    5.9390 C   0  0  0  0  0  0  0  0  0  0  0  0
  -21.7398   -1.7690    6.7616 C   0  0  0  0  0  0  0  0  0  0  0  0
  -22.1033   -3.2242    7.0935 C   0  0  0  0  0  0  0  0  0  0  0  0
  -21.5797   -0.9732    8.0688 C   0  0  0  0  0  0  0  0  0  0  0  0
  -22.8625   -1.1298    5.9292 C   0  0  0  0  0  0  0  0  0  0  0  0
  -19.4111   -1.1145    6.4445 O   0  0  0  0  0  0  0  0  0  0  0  0
  -18.3913   -1.1736    5.5324 N   0  0  0  0  0  0  0  0  0  0  0  0
  -14.2635   -1.1098    5.8051 C   0  0  0  0  0  0  0  0  0  0  0  0
  -12.8949   -0.8900    6.0083 C   0  0  0  0  0  0  0  0  0  0  0  0
   -9.9753   -0.5590    6.2743 N   0  0  0  0  0  0  0  0  0  0  0  0
   -8.6675   -0.4613    5.9861 N   0  0  0  0  0  0  0  0  0  0  0  0
   -5.4087   -0.4213    0.7464 C   0  0  0  0  0  0  0  0  0  0  0  0
   -4.1311   -0.3462    0.1768 C   0  0  0  0  0  0  0  0  0  0  0  0
   -0.8919    1.2948    0.6637 C   0  0  0  0  0  0  0  0  0  0  0  0
    0.5684    0.8267    0.8507 C   0  0  0  0  0  0  0  0  0  0  0  0
    2.7946   -0.9611   -0.9519 H   0  0  0  0  0  0  0  0  0  0  0  0
    2.5189   -1.0556    0.8017 H   0  0  0  0  0  0  0  0  0  0  0  0
    3.0912    0.4510    0.0526 H   0  0  0  0  0  0  0  0  0  0  0  0
    0.1924   -1.7931    0.3492 H   0  0  0  0  0  0  0  0  0  0  0  0
    0.4851   -1.6923   -1.3928 H   0  0  0  0  0  0  0  0  0  0  0  0
   -1.9207   -1.5961   -0.8439 H   0  0  0  0  0  0  0  0  0  0  0  0
   -1.4076   -0.1120   -1.6710 H   0  0  0  0  0  0  0  0  0  0  0  0
   -2.4008    0.6468    2.9067 H   0  0  0  0  0  0  0  0  0  0  0  0
   -4.6019    0.5626    3.9131 H   0  0  0  0  0  0  0  0  0  0  0  0
   -6.3209   -0.5224    4.6381 H   0  0  0  0  0  0  0  0  0  0  0  0
   -9.7885   -0.8694    2.9916 H   0  0  0  0  0  0  0  0  0  0  0  0
  -11.8640   -1.3776    2.7963 H   0  0  0  0  0  0  0  0  0  0  0  0
  -14.1744   -1.7625    2.4620 H   0  0  0  0  0  0  0  0  0  0  0  0
  -16.6864   -1.4654    5.1684 H   0  0  0  0  0  0  0  0  0  0  0  0
  -18.5912   -2.5204    2.5445 H   0  0  0  0  0  0  0  0  0  0  0  0
  -20.8318   -2.8201    4.0428 H   0  0  0  0  0  0  0  0  0  0  0  0
  -21.3453   -3.6891    7.7358 H   0  0  0  0  0  0  0  0  0  0  0  0
  -22.1784   -3.8367    6.1869 H   0  0  0  0  0  0  0  0  0  0  0  0
  -23.0659   -3.2789    7.6117 H   0  0  0  0  0  0  0  0  0  0  0  0
  -20.8141   -1.4117    8.7205 H   0  0  0  0  0  0  0  0  0  0  0  0
  -22.5203   -0.9509    8.6294 H   0  0  0  0  0  0  0  0  0  0  0  0
  -21.2864    0.0660    7.8741 H   0  0  0  0  0  0  0  0  0  0  0  0
  -23.0045   -1.6554    4.9771 H   0  0  0  0  0  0  0  0  0  0  0  0
  -22.6282   -0.0848    5.6903 H   0  0  0  0  0  0  0  0  0  0  0  0
  -23.8142   -1.1515    6.4675 H   0  0  0  0  0  0  0  0  0  0  0  0
  -14.9434   -1.0440    6.6527 H   0  0  0  0  0  0  0  0  0  0  0  0
  -12.5408   -0.6480    7.0111 H   0  0  0  0  0  0  0  0  0  0  0  0
   -8.0299   -0.3214    6.7456 H   0  0  0  0  0  0  0  0  0  0  0  0
   -6.2476   -0.7158    0.1186 H   0  0  0  0  0  0  0  0  0  0  0  0
   -4.0269   -0.5823   -0.8815 H   0  0  0  0  0  0  0  0  0  0  0  0
   -1.1936    1.8574    1.5536 H   0  0  0  0  0  0  0  0  0  0  0  0
   -0.9588    1.9923   -0.1819 H   0  0  0  0  0  0  0  0  0  0  0  0
    0.6273    0.2299    1.7717 H   0  0  0  0  0  0  0  0  0  0  0  0
    1.2009    1.7109    0.9899 H   0  0  0  0  0  0  0  0  0  0  0  0
  1  2  1  0  0  0  0
  1 41  1  0  0  0  0
  1 42  1  0  0  0  0
  1 43  1  0  0  0  0
  2  3  1  0  0  0  0
  2 40  1  0  0  0  0
  3  4  1  0  0  0  0
  3 44  1  0  0  0  0
  3 45  1  0  0  0  0
  4  5  1  0  0  0  0
  4 46  1  0  0  0  0
  4 47  1  0  0  0  0
  5  6  1  0  0  0  0
  5 39  1  0  0  0  0
  6  7  1  0  0  0  0
  6 38  2  0  0  0  0
  7  8  2  0  0  0  0
  7 48  1  0  0  0  0
  8  9  1  0  0  0  0
  8 49  1  0  0  0  0
  9 10  1  0  0  0  0
  9 37  2  0  0  0  0
 10 11  2  0  0  0  0
 10 12  1  0  0  0  0
 12 13  1  0  0  0  0
 12 50  1  0  0  0  0
 13 14  2  0  0  0  0
 13 36  1  0  0  0  0
 14 15  1  0  0  0  0
 14 51  1  0  0  0  0
 15 16  1  0  0  0  0
 15 35  2  0  0  0  0
 16 17  1  0  0  0  0
 16 34  2  0  0  0  0
 17 18  2  0  0  0  0
 17 52  1  0  0  0  0
 18 19  1  0  0  0  0
 18 53  1  0  0  0  0
 19 20  1  0  0  0  0
 19 33  2  0  0  0  0
 20 21  1  0  0  0  0
 20 54  1  0  0  0  0
 21 22  2  0  0  0  0
 21 23  1  0  0  0  0
 23 24  1  0  0  0  0
 23 55  1  0  0  0  0
 24 25  1  0  0  0  0
 24 32  2  0  0  0  0
 25 26  2  0  0  0  0
 25 56  1  0  0  0  0
 26 27  1  0  0  0  0
 26 31  1  0  0  0  0
 27 28  1  0  0  0  0
 27 29  1  0  0  0  0
 27 30  1  0  0  0  0
 28 57  1  0  0  0  0
 28 58  1  0  0  0  0
 28 59  1  0  0  0  0
 29 60  1  0  0  0  0
 29 61  1  0  0  0  0
 29 62  1  0  0  0  0
 30 63  1  0  0  0  0
 30 64  1  0  0  0  0
 30 65  1  0  0  0  0
 31 32  1  0  0  0  0
 33 34  1  0  0  0  0
 33 66  1  0  0  0  0
 34 67  1  0  0  0  0
 35 36  1  0  0  0  0
 36 68  1  0  0  0  0
 37 38  1  0  0  0  0
 37 69  1  0  0  0  0
 38 70  1  0  0  0  0
 39 40  1  0  0  0  0
 39 71  1  0  0  0  0
 39 72  1  0  0  0  0
 40 73  1  0  0  0  0
 40 74  1  0  0  0  0
M  END
$$$$
