CHEMBL4103605
 OpenBabel04072215383D

 46 49  0  0  0  0  0  0  0  0999 V2000
    2.3905   -0.4350    1.5839 C   0  0  0  0  0  0  0  0  0  0  0  0
    0.8945   -0.3230    1.5461 C   0  0  0  0  0  0  0  0  0  0  0  0
    0.2840    0.8575    1.9802 C   0  0  0  0  0  0  0  0  0  0  0  0
   -1.0971    0.9750    1.9514 C   0  0  0  0  0  0  0  0  0  0  0  0
   -1.8794   -0.0848    1.4940 C   0  0  0  0  0  0  0  0  0  0  0  0
   -1.3056   -1.2769    1.0448 C   0  0  0  0  0  0  0  0  0  0  0  0
   -2.0718   -2.3764    0.5747 N   0  0  0  0  0  0  0  0  0  0  0  0
   -3.4529   -2.3813    0.4255 C   0  0  0  0  0  0  0  0  0  0  0  0
   -4.1859   -1.4094    0.6208 O   0  0  0  0  0  0  0  0  0  0  0  0
   -3.9557   -3.6215    0.0570 N   0  0  0  0  0  0  0  0  0  0  0  0
   -5.3565   -3.7682   -0.1189 C   0  0  0  0  0  0  0  0  0  0  0  0
   -6.0983   -2.8499   -0.8641 C   0  0  0  0  0  0  0  0  0  0  0  0
   -7.5005   -2.9167   -0.8829 C   0  0  0  0  0  0  0  0  0  0  0  0
   -8.1987   -3.9256   -0.2128 C   0  0  0  0  0  0  0  0  0  0  0  0
   -9.6843   -3.9702   -0.1973 C   0  0  0  0  0  0  0  0  0  0  0  0
  -10.4251   -3.5464   -1.3239 C   0  0  0  0  0  0  0  0  0  0  0  0
  -11.8135   -3.5752   -1.3204 C   0  0  0  0  0  0  0  0  0  0  0  0
  -12.5752   -3.9887   -0.2958 N   0  0  0  0  0  0  0  0  0  0  0  0
  -11.8492   -4.3745    0.7687 C   0  0  0  0  0  0  0  0  0  0  0  0
  -12.3863   -4.8305    1.9307 N   0  0  0  0  0  0  0  0  0  0  0  0
  -11.4819   -5.1483    2.8625 N   0  0  0  0  0  0  0  0  0  0  0  0
  -10.3048   -4.8669    2.2765 C   0  0  0  0  0  0  0  0  0  0  0  0
   -9.0851   -5.0857    3.0981 C   0  0  0  0  0  0  0  0  0  0  0  0
  -10.4623   -4.3968    0.9221 C   0  0  0  0  0  0  0  0  0  0  0  0
   -7.4167   -4.9080    0.4118 C   0  0  0  0  0  0  0  0  0  0  0  0
   -6.0210   -4.8193    0.4993 C   0  0  0  0  0  0  0  0  0  0  0  0
    0.0934   -1.3856    1.0762 C   0  0  0  0  0  0  0  0  0  0  0  0
    2.8457    0.4771    1.9912 H   0  0  0  0  0  0  0  0  0  0  0  0
    2.7869   -0.5776    0.5747 H   0  0  0  0  0  0  0  0  0  0  0  0
    2.6975   -1.2680    2.2231 H   0  0  0  0  0  0  0  0  0  0  0  0
    0.8773    1.6937    2.3421 H   0  0  0  0  0  0  0  0  0  0  0  0
   -1.5795    1.8907    2.2819 H   0  0  0  0  0  0  0  0  0  0  0  0
   -2.9509    0.0762    1.5071 H   0  0  0  0  0  0  0  0  0  0  0  0
   -1.5727   -3.1807    0.2253 H   0  0  0  0  0  0  0  0  0  0  0  0
   -3.4730   -4.4068    0.4681 H   0  0  0  0  0  0  0  0  0  0  0  0
   -5.5978   -2.0477   -1.4030 H   0  0  0  0  0  0  0  0  0  0  0  0
   -8.0226   -2.1392   -1.4436 H   0  0  0  0  0  0  0  0  0  0  0  0
   -9.9288   -3.1937   -2.2233 H   0  0  0  0  0  0  0  0  0  0  0  0
  -12.3632   -3.2453   -2.1957 H   0  0  0  0  0  0  0  0  0  0  0  0
  -13.3709   -4.9381    2.1385 H   0  0  0  0  0  0  0  0  0  0  0  0
   -9.3364   -5.2261    4.1556 H   0  0  0  0  0  0  0  0  0  0  0  0
   -8.4050   -4.2328    3.0329 H   0  0  0  0  0  0  0  0  0  0  0  0
   -8.5702   -5.9996    2.7906 H   0  0  0  0  0  0  0  0  0  0  0  0
   -7.8952   -5.7717    0.8609 H   0  0  0  0  0  0  0  0  0  0  0  0
   -5.4855   -5.5412    1.1077 H   0  0  0  0  0  0  0  0  0  0  0  0
    0.5814   -2.2972    0.7406 H   0  0  0  0  0  0  0  0  0  0  0  0
  1  2  1  0  0  0  0
  1 28  1  0  0  0  0
  1 29  1  0  0  0  0
  1 30  1  0  0  0  0
  2  3  1  0  0  0  0
  2 27  2  0  0  0  0
  3  4  2  0  0  0  0
  3 31  1  0  0  0  0
  4  5  1  0  0  0  0
  4 32  1  0  0  0  0
  5  6  2  0  0  0  0
  5 33  1  0  0  0  0
  6  7  1  0  0  0  0
  6 27  1  0  0  0  0
  7  8  1  0  0  0  0
  7 34  1  0  0  0  0
  8  9  2  0  0  0  0
  8 10  1  0  0  0  0
 10 11  1  0  0  0  0
 10 35  1  0  0  0  0
 11 12  1  0  0  0  0
 11 26  2  0  0  0  0
 12 13  2  0  0  0  0
 12 36  1  0  0  0  0
 13 14  1  0  0  0  0
 13 37  1  0  0  0  0
 14 15  1  0  0  0  0
 14 25  2  0  0  0  0
 15 16  1  0  0  0  0
 15 24  2  0  0  0  0
 16 17  2  0  0  0  0
 16 38  1  0  0  0  0
 17 18  1  0  0  0  0
 17 39  1  0  0  0  0
 18 19  2  0  0  0  0
 19 20  1  0  0  0  0
 19 24  1  0  0  0  0
 20 21  1  0  0  0  0
 20 40  1  0  0  0  0
 21 22  2  0  0  0  0
 22 23  1  0  0  0  0
 22 24  1  0  0  0  0
 23 41  1  0  0  0  0
 23 42  1  0  0  0  0
 23 43  1  0  0  0  0
 25 26  1  0  0  0  0
 25 44  1  0  0  0  0
 26 45  1  0  0  0  0
 27 46  1  0  0  0  0
M  END
$$$$
