CHEMBL3911738
 OpenBabel04072215373D

 71 73  0  0  0  0  0  0  0  0999 V2000
    0.4649    4.3068    0.0970 C   0  0  0  0  0  0  0  0  0  0  0  0
    1.7494    4.4019   -0.4292 O   0  0  0  0  0  0  0  0  0  0  0  0
    2.7242    3.4532   -0.3039 C   0  0  0  0  0  0  0  0  0  0  0  0
    2.4570    2.2383    0.3569 C   0  0  0  0  0  0  0  0  0  0  0  0
    3.4276    1.2525    0.4528 C   0  0  0  0  0  0  0  0  0  0  0  0
    3.1208    0.0965    1.1001 O   0  0  0  0  0  0  0  0  0  0  0  0
    3.9854   -0.9638    1.2900 C   0  0  0  0  0  0  0  0  0  0  0  0
    4.6812    1.4689   -0.1302 C   0  0  0  0  0  0  0  0  0  0  0  0
    5.0193    2.6653   -0.8039 C   0  0  0  0  0  0  0  0  0  0  0  0
    6.2931    2.7490   -1.4988 N   0  0  0  0  0  0  0  0  0  0  0  0
    6.7932    1.4708   -2.1133 C   0  0  0  0  0  0  0  0  0  0  0  0
    5.8613    0.6691   -3.1012 C   0  0  0  0  0  0  0  0  0  0  0  0
    5.4697    1.2375   -4.4952 C   0  0  0  0  0  0  0  0  0  0  0  0
    4.7215    0.1976   -5.2489 N   0  0  0  0  0  0  0  0  0  0  0  0
    4.2527    0.6528   -6.5711 C   0  0  0  0  0  0  0  0  0  0  0  0
    3.4591   -0.4462   -7.3288 C   0  0  0  0  0  0  0  0  0  0  0  0
    3.3954   -1.6350   -6.6141 F   0  0  0  0  0  0  0  0  0  0  0  0
    2.1647   -0.0152   -7.5662 F   0  0  0  0  0  0  0  0  0  0  0  0
    4.0508   -0.7114   -8.5537 F   0  0  0  0  0  0  0  0  0  0  0  0
    7.2680    3.8687   -1.5803 C   0  0  0  0  0  0  0  0  0  0  0  0
    7.8382    3.9680   -2.8447 C   0  0  0  0  0  0  0  0  0  0  0  0
    8.9835    4.6400   -3.0780 C   0  0  0  0  0  0  0  0  0  0  0  0
    9.6205    5.3272   -2.1001 C   0  0  0  0  0  0  0  0  0  0  0  0
   10.8143    5.7966   -2.4481 N   0  0  0  0  0  0  0  0  0  0  0  0
   11.5508    6.5416   -1.6446 C   0  0  0  0  0  0  0  0  0  0  0  0
   11.0666    6.9808   -0.4093 C   0  0  0  0  0  0  0  0  0  0  0  0
   11.9038    8.2114    0.0704 C   0  0  0  0  0  0  0  0  0  0  0  0
   11.6798    9.1487    1.0630 C   0  0  0  0  0  0  0  0  0  0  0  0
   12.5574   10.1867    0.9135 N   0  0  0  0  0  0  0  0  0  0  0  0
   13.3783    9.9355   -0.1003 N   0  0  0  0  0  0  0  0  0  0  0  0
   14.3272   10.9263   -0.7063 C   0  0  0  0  0  0  0  0  0  0  0  0
   15.8280   10.6041   -0.5776 C   0  0  0  0  0  0  0  0  0  0  0  0
   14.0105   11.1592   -2.2056 C   0  0  0  0  0  0  0  0  0  0  0  0
   13.0598    8.7247   -0.5977 C   0  0  0  0  0  0  0  0  0  0  0  0
    9.8365    6.4106    0.0359 N   0  0  0  0  0  0  0  0  0  0  0  0
    9.1026    5.5152   -0.8017 C   0  0  0  0  0  0  0  0  0  0  0  0
    7.8653    4.7190   -0.5081 C   0  0  0  0  0  0  0  0  0  0  0  0
    4.0167    3.6727   -0.8695 C   0  0  0  0  0  0  0  0  0  0  0  0
    1.8871   -1.8072   -1.8207 Cl  0  0  0  0  0  0  0  0  0  0  0  0
   -0.1261    5.2058   -0.1738 H   0  0  0  0  0  0  0  0  0  0  0  0
    0.5079    4.2390    1.2060 H   0  0  0  0  0  0  0  0  0  0  0  0
   -0.0712    3.4157   -0.3031 H   0  0  0  0  0  0  0  0  0  0  0  0
    1.4866    2.0331    0.7960 H   0  0  0  0  0  0  0  0  0  0  0  0
    3.4790   -1.7525    1.8806 H   0  0  0  0  0  0  0  0  0  0  0  0
    4.8833   -0.6237    1.8497 H   0  0  0  0  0  0  0  0  0  0  0  0
    4.2921   -1.3927    0.3108 H   0  0  0  0  0  0  0  0  0  0  0  0
    5.3978    0.6774   -0.0619 H   0  0  0  0  0  0  0  0  0  0  0  0
    7.0532    0.7654   -1.3042 H   0  0  0  0  0  0  0  0  0  0  0  0
    7.7756    1.5729   -2.6188 H   0  0  0  0  0  0  0  0  0  0  0  0
    4.9334    0.3660   -2.5810 H   0  0  0  0  0  0  0  0  0  0  0  0
    6.4220   -0.2646   -3.3338 H   0  0  0  0  0  0  0  0  0  0  0  0
    6.3847    1.5069   -5.0686 H   0  0  0  0  0  0  0  0  0  0  0  0
    4.8374    2.1428   -4.3710 H   0  0  0  0  0  0  0  0  0  0  0  0
    3.8850   -0.0957   -4.6914 H   0  0  0  0  0  0  0  0  0  0  0  0
    5.1214    0.9565   -7.1964 H   0  0  0  0  0  0  0  0  0  0  0  0
    3.6025    1.5420   -6.4547 H   0  0  0  0  0  0  0  0  0  0  0  0
    7.4301    3.4231   -3.6797 H   0  0  0  0  0  0  0  0  0  0  0  0
    9.4207    4.5886   -4.0630 H   0  0  0  0  0  0  0  0  0  0  0  0
   12.4648    6.8457   -2.0932 H   0  0  0  0  0  0  0  0  0  0  0  0
   10.8782    9.1630    1.7861 H   0  0  0  0  0  0  0  0  0  0  0  0
   14.1794   11.9036   -0.1957 H   0  0  0  0  0  0  0  0  0  0  0  0
   16.1123    9.6708   -1.1024 H   0  0  0  0  0  0  0  0  0  0  0  0
   16.1384   10.5660    0.4832 H   0  0  0  0  0  0  0  0  0  0  0  0
   16.4192   11.4333   -1.0461 H   0  0  0  0  0  0  0  0  0  0  0  0
   14.2096   10.2441   -2.8055 H   0  0  0  0  0  0  0  0  0  0  0  0
   14.6524   11.9699   -2.6231 H   0  0  0  0  0  0  0  0  0  0  0  0
   12.9527   11.4624   -2.3456 H   0  0  0  0  0  0  0  0  0  0  0  0
   13.5909    8.3520   -1.4561 H   0  0  0  0  0  0  0  0  0  0  0  0
    7.4547    4.6969    0.5003 H   0  0  0  0  0  0  0  0  0  0  0  0
    4.2023    4.5907   -1.4139 H   0  0  0  0  0  0  0  0  0  0  0  0
    1.8857   -2.0103   -0.4607 H   0  0  0  0  0  0  0  0  0  0  0  0
  1  2  1  0  0  0  0
  1 40  1  0  0  0  0
  1 41  1  0  0  0  0
  1 42  1  0  0  0  0
  2  3  1  0  0  0  0
  3  4  1  0  0  0  0
  3 38  2  0  0  0  0
  4  5  2  0  0  0  0
  4 43  1  0  0  0  0
  5  6  1  0  0  0  0
  5  8  1  0  0  0  0
  6  7  1  0  0  0  0
  7 44  1  0  0  0  0
  7 45  1  0  0  0  0
  7 46  1  0  0  0  0
  8  9  2  0  0  0  0
  8 47  1  0  0  0  0
  9 10  1  0  0  0  0
  9 38  1  0  0  0  0
 10 11  1  0  0  0  0
 10 20  1  0  0  0  0
 11 12  1  0  0  0  0
 11 48  1  0  0  0  0
 11 49  1  0  0  0  0
 12 13  1  0  0  0  0
 12 50  1  0  0  0  0
 12 51  1  0  0  0  0
 13 14  1  0  0  0  0
 13 52  1  0  0  0  0
 13 53  1  0  0  0  0
 14 15  1  0  0  0  0
 14 54  1  0  0  0  0
 15 16  1  0  0  0  0
 15 55  1  0  0  0  0
 15 56  1  0  0  0  0
 16 17  1  0  0  0  0
 16 18  1  0  0  0  0
 16 19  1  0  0  0  0
 20 21  1  0  0  0  0
 20 37  2  0  0  0  0
 21 22  2  0  0  0  0
 21 57  1  0  0  0  0
 22 23  1  0  0  0  0
 22 58  1  0  0  0  0
 23 24  1  0  0  0  0
 23 36  2  0  0  0  0
 24 25  2  0  0  0  0
 25 26  1  0  0  0  0
 25 59  1  0  0  0  0
 26 27  1  0  0  0  0
 26 35  2  0  0  0  0
 27 28  1  0  0  0  0
 27 34  2  0  0  0  0
 28 29  2  0  0  0  0
 28 60  1  0  0  0  0
 29 30  1  0  0  0  0
 30 31  1  0  0  0  0
 30 34  1  0  0  0  0
 31 32  1  0  0  0  0
 31 33  1  0  0  0  0
 31 61  1  0  0  0  0
 32 62  1  0  0  0  0
 32 63  1  0  0  0  0
 32 64  1  0  0  0  0
 33 65  1  0  0  0  0
 33 66  1  0  0  0  0
 33 67  1  0  0  0  0
 34 68  1  0  0  0  0
 35 36  1  0  0  0  0
 36 37  1  0  0  0  0
 37 69  1  0  0  0  0
 38 70  1  0  0  0  0
 39 71  1  0  0  0  0
M  END
$$$$
