CHEMBL2016905
 OpenBabel04072215363D

 64 69  0  0  0  0  0  0  0  0999 V2000
    1.2854    1.1749   -0.1326 O   0  0  0  0  0  0  0  0  0  0  0  0
    2.4786    0.8881   -0.1693 C   0  0  0  0  0  0  0  0  0  0  0  0
    3.1928    0.7104    1.1278 C   0  0  0  0  0  0  0  0  0  0  0  0
    2.5769    0.0315    2.1848 C   0  0  0  0  0  0  0  0  0  0  0  0
    3.2418   -0.1260    3.4077 C   0  0  0  0  0  0  0  0  0  0  0  0
    4.5364    0.3875    3.5863 C   0  0  0  0  0  0  0  0  0  0  0  0
    5.2338    0.3537    4.9304 C   0  0  0  0  0  0  0  0  0  0  0  0
    5.4092   -0.9775    5.5485 N   0  0  0  0  0  0  0  0  0  0  0  0
    6.3138   -1.8211    4.7468 C   0  0  0  0  0  0  0  0  0  0  0  0
    6.6443   -3.1493    5.4363 C   0  0  0  0  0  0  0  0  0  0  0  0
    7.2280   -2.9201    6.8230 C   0  0  0  0  0  0  0  0  0  0  0  0
    6.2696   -2.0695    7.6420 C   0  0  0  0  0  0  0  0  0  0  0  0
    5.9392   -0.7691    6.9128 C   0  0  0  0  0  0  0  0  0  0  0  0
    5.1412    1.0704    2.5205 C   0  0  0  0  0  0  0  0  0  0  0  0
    4.4628    1.2603    1.3189 C   0  0  0  0  0  0  0  0  0  0  0  0
    3.1914    0.7005   -1.3780 N   0  0  0  0  0  0  0  0  0  0  0  0
    2.3706    0.8313   -2.6137 C   0  0  0  0  0  0  0  0  0  0  0  0
    3.1118    0.8188   -3.9815 C   0  0  0  0  0  0  0  0  0  0  0  0
    4.3580    0.0299   -3.8974 C   0  0  0  0  0  0  0  0  0  0  0  0
    5.0336   -0.5802   -4.9278 N   0  0  0  0  0  0  0  0  0  0  0  0
    5.9272   -1.3721   -4.3283 C   0  0  0  0  0  0  0  0  0  0  0  0
    6.3273   -2.7333   -4.6335 C   0  0  0  0  0  0  0  0  0  0  0  0
    5.5049   -3.3504   -5.5139 C   0  0  0  0  0  0  0  0  0  0  0  0
    4.2839   -3.8594   -4.8257 C   0  0  0  0  0  0  0  0  0  0  0  0
    3.0205   -3.6061   -5.3632 C   0  0  0  0  0  0  0  0  0  0  0  0
    1.9068   -3.7423   -4.5469 C   0  0  0  0  0  0  0  0  0  0  0  0
    0.7099   -3.3549   -5.0081 F   0  0  0  0  0  0  0  0  0  0  0  0
    2.0161   -4.2033   -3.2353 C   0  0  0  0  0  0  0  0  0  0  0  0
    3.2655   -4.5463   -2.7170 C   0  0  0  0  0  0  0  0  0  0  0  0
    4.3954   -4.3267   -3.5032 C   0  0  0  0  0  0  0  0  0  0  0  0
    5.6716   -4.3765   -2.9275 N   0  0  0  0  0  0  0  0  0  0  0  0
    6.6868   -3.5920   -3.4326 C   0  0  0  0  0  0  0  0  0  0  0  0
    7.7384   -3.4264   -2.8180 O   0  0  0  0  0  0  0  0  0  0  0  0
    6.0838   -0.9531   -3.0187 N   0  0  0  0  0  0  0  0  0  0  0  0
    4.8996   -0.3488   -2.7025 C   0  0  0  0  0  0  0  0  0  0  0  0
    4.2886   -0.2742   -1.3773 C   0  0  0  0  0  0  0  0  0  0  0  0
    1.5646   -0.3600    2.0696 H   0  0  0  0  0  0  0  0  0  0  0  0
    2.7434   -0.6279    4.2370 H   0  0  0  0  0  0  0  0  0  0  0  0
    4.6332    0.9898    5.5950 H   0  0  0  0  0  0  0  0  0  0  0  0
    6.2116    0.8479    4.8428 H   0  0  0  0  0  0  0  0  0  0  0  0
    7.2508   -1.2918    4.5305 H   0  0  0  0  0  0  0  0  0  0  0  0
    5.8438   -2.0583    3.7853 H   0  0  0  0  0  0  0  0  0  0  0  0
    7.3580   -3.7147    4.8263 H   0  0  0  0  0  0  0  0  0  0  0  0
    5.7372   -3.7613    5.5179 H   0  0  0  0  0  0  0  0  0  0  0  0
    8.1968   -2.4114    6.7389 H   0  0  0  0  0  0  0  0  0  0  0  0
    7.4086   -3.8767    7.3255 H   0  0  0  0  0  0  0  0  0  0  0  0
    6.7179   -1.8406    8.6157 H   0  0  0  0  0  0  0  0  0  0  0  0
    5.3480   -2.6314    7.8364 H   0  0  0  0  0  0  0  0  0  0  0  0
    6.8429   -0.1449    6.8827 H   0  0  0  0  0  0  0  0  0  0  0  0
    5.1941   -0.2286    7.5100 H   0  0  0  0  0  0  0  0  0  0  0  0
    6.1385    1.4900    2.6315 H   0  0  0  0  0  0  0  0  0  0  0  0
    4.9328    1.8411    0.5274 H   0  0  0  0  0  0  0  0  0  0  0  0
    1.8010    1.7678   -2.5406 H   0  0  0  0  0  0  0  0  0  0  0  0
    1.6322    0.0190   -2.5901 H   0  0  0  0  0  0  0  0  0  0  0  0
    3.3562    1.8395   -4.2761 H   0  0  0  0  0  0  0  0  0  0  0  0
    2.4403    0.4075   -4.7456 H   0  0  0  0  0  0  0  0  0  0  0  0
    5.2529   -2.8279   -6.4380 H   0  0  0  0  0  0  0  0  0  0  0  0
    2.9049   -3.1845   -6.3556 H   0  0  0  0  0  0  0  0  0  0  0  0
    1.1282   -4.2405   -2.6113 H   0  0  0  0  0  0  0  0  0  0  0  0
    3.3503   -4.8545   -1.6795 H   0  0  0  0  0  0  0  0  0  0  0  0
    5.8180   -4.7729   -2.0109 H   0  0  0  0  0  0  0  0  0  0  0  0
    6.7259   -1.3735   -2.3575 H   0  0  0  0  0  0  0  0  0  0  0  0
    5.0564   -0.0323   -0.6450 H   0  0  0  0  0  0  0  0  0  0  0  0
    3.8620   -1.2479   -1.1064 H   0  0  0  0  0  0  0  0  0  0  0  0
  1  2  2  0  0  0  0
  2  3  1  0  0  0  0
  2 16  1  0  0  0  0
  3  4  1  0  0  0  0
  3 15  2  0  0  0  0
  4  5  2  0  0  0  0
  4 37  1  0  0  0  0
  5  6  1  0  0  0  0
  5 38  1  0  0  0  0
  6  7  1  0  0  0  0
  6 14  2  0  0  0  0
  7  8  1  0  0  0  0
  7 39  1  0  0  0  0
  7 40  1  0  0  0  0
  8  9  1  0  0  0  0
  8 13  1  0  0  0  0
  9 10  1  0  0  0  0
  9 41  1  0  0  0  0
  9 42  1  0  0  0  0
 10 11  1  0  0  0  0
 10 43  1  0  0  0  0
 10 44  1  0  0  0  0
 11 12  1  0  0  0  0
 11 45  1  0  0  0  0
 11 46  1  0  0  0  0
 12 13  1  0  0  0  0
 12 47  1  0  0  0  0
 12 48  1  0  0  0  0
 13 49  1  0  0  0  0
 13 50  1  0  0  0  0
 14 15  1  0  0  0  0
 14 51  1  0  0  0  0
 15 52  1  0  0  0  0
 16 17  1  0  0  0  0
 16 36  1  0  0  0  0
 17 18  1  0  0  0  0
 17 53  1  0  0  0  0
 17 54  1  0  0  0  0
 18 19  1  0  0  0  0
 18 55  1  0  0  0  0
 18 56  1  0  0  0  0
 19 20  1  0  0  0  0
 19 35  2  0  0  0  0
 20 21  2  0  0  0  0
 21 22  1  0  0  0  0
 21 34  1  0  0  0  0
 22 23  2  0  0  0  0
 22 32  1  0  0  0  0
 23 24  1  0  0  0  0
 23 57  1  0  0  0  0
 24 25  1  0  0  0  0
 24 30  2  0  0  0  0
 25 26  2  0  0  0  0
 25 58  1  0  0  0  0
 26 27  1  0  0  0  0
 26 28  1  0  0  0  0
 28 29  2  0  0  0  0
 28 59  1  0  0  0  0
 29 30  1  0  0  0  0
 29 60  1  0  0  0  0
 30 31  1  0  0  0  0
 31 32  1  0  0  0  0
 31 61  1  0  0  0  0
 32 33  2  0  0  0  0
 34 35  1  0  0  0  0
 34 62  1  0  0  0  0
 35 36  1  0  0  0  0
 36 63  1  0  0  0  0
 36 64  1  0  0  0  0
M  END
$$$$
