CHEMBL3938869
 OpenBabel04072215373D

 52 56  0  0  1  0  0  0  0  0999 V2000
    3.3490   -2.3549    0.6781 C   0  0  0  0  0  0  0  0  0  0  0  0
    3.2483   -0.9521    0.4144 O   0  0  0  0  0  0  0  0  0  0  0  0
    3.5946   -0.2045    1.5116 C   0  0  0  0  0  0  0  0  0  0  0  0
    4.7087    0.6247    1.3768 C   0  0  0  0  0  0  0  0  0  0  0  0
    5.1925    1.3665    2.4788 C   0  0  0  0  0  0  0  0  0  0  0  0
    6.2786    2.2707    2.4340 C   0  0  0  0  0  0  0  0  0  0  0  0
    6.7555    2.6759    1.1529 N   0  0  0  0  0  0  0  0  0  0  0  0
    7.8384    3.5256    0.8033 C   0  0  0  0  0  0  0  0  0  0  0  0
    8.9811    3.6768    1.5929 C   0  0  0  0  0  0  0  0  0  0  0  0
   10.0635    4.4568    1.1650 C   0  0  0  0  0  0  0  0  0  0  0  0
   10.0273    5.0805   -0.0847 C   0  0  0  0  0  0  0  0  0  0  0  0
   11.5377    6.1137   -0.5936 Br  0  0  0  0  0  0  0  0  0  0  0  0
    8.9109    4.9187   -0.9046 C   0  0  0  0  0  0  0  0  0  0  0  0
    8.7856    5.6395   -2.4696 Cl  0  0  0  0  0  0  0  0  0  0  0  0
    7.8313    4.1355   -0.4646 C   0  0  0  0  0  0  0  0  0  0  0  0
    6.8128    2.7883    3.5564 N   0  0  0  0  0  0  0  0  0  0  0  0
    6.2131    2.4597    4.7056 C   0  0  0  0  0  0  0  0  0  0  0  0
    5.0907    1.7344    4.8375 N   0  0  0  0  0  0  0  0  0  0  0  0
    4.5759    1.2005    3.7245 C   0  0  0  0  0  0  0  0  0  0  0  0
    3.3918    0.4582    3.7987 C   0  0  0  0  0  0  0  0  0  0  0  0
    2.8539   -0.2051    2.6961 C   0  0  0  0  0  0  0  0  0  0  0  0
    1.7478   -0.9973    2.7339 O   0  0  0  0  0  0  0  0  0  0  0  0
    0.4819   -0.5955    3.2501 C   0  0  2  0  0  0  0  0  0  0  0  0
   -0.0113    0.8363    3.1119 C   0  0  0  0  0  0  0  0  0  0  0  0
   -0.4750    1.2919    4.3939 O   0  0  0  0  0  0  0  0  0  0  0  0
   -0.4481    0.2136    5.3396 C   0  0  1  0  0  0  0  0  0  0  0  0
    0.1873   -1.0000    4.6825 C   0  0  2  0  0  0  0  0  0  0  0  0
    1.3444   -1.3614    5.4348 O   0  0  0  0  0  0  0  0  0  0  0  0
    1.2659   -0.7071    6.7036 C   0  0  0  0  0  0  0  0  0  0  0  0
    0.4798    0.5670    6.4819 C   0  0  2  0  0  0  0  0  0  0  0  0
   -0.1968    1.0447    7.7457 C   0  0  0  0  0  0  0  0  0  0  0  0
   -1.5173    1.2617    7.5819 F   0  0  0  0  0  0  0  0  0  0  0  0
   -0.0645    0.1614    8.7605 F   0  0  0  0  0  0  0  0  0  0  0  0
    0.3548    2.2061    8.1685 F   0  0  0  0  0  0  0  0  0  0  0  0
    3.1176   -2.8892   -0.2482 H   0  0  0  0  0  0  0  0  0  0  0  0
    2.6282   -2.7003    1.4251 H   0  0  0  0  0  0  0  0  0  0  0  0
    4.3637   -2.6345    0.9873 H   0  0  0  0  0  0  0  0  0  0  0  0
    5.2394    0.6432    0.4275 H   0  0  0  0  0  0  0  0  0  0  0  0
    5.9431    2.9063    0.5854 H   0  0  0  0  0  0  0  0  0  0  0  0
    9.0533    3.1819    2.5590 H   0  0  0  0  0  0  0  0  0  0  0  0
   10.9292    4.5590    1.8141 H   0  0  0  0  0  0  0  0  0  0  0  0
    6.9743    4.0036   -1.1240 H   0  0  0  0  0  0  0  0  0  0  0  0
    6.6744    2.8218    5.6192 H   0  0  0  0  0  0  0  0  0  0  0  0
    2.9282    0.3619    4.7705 H   0  0  0  0  0  0  0  0  0  0  0  0
   -0.2126   -1.1769    2.6274 H   0  0  0  0  0  0  0  0  0  0  0  0
   -0.8872    0.8634    2.4495 H   0  0  0  0  0  0  0  0  0  0  0  0
    0.7147    1.5457    2.7104 H   0  0  0  0  0  0  0  0  0  0  0  0
   -1.4752   -0.0006    5.6457 H   0  0  0  0  0  0  0  0  0  0  0  0
   -0.5052   -1.8512    4.7075 H   0  0  0  0  0  0  0  0  0  0  0  0
    2.2814   -0.5009    7.0526 H   0  0  0  0  0  0  0  0  0  0  0  0
    0.7897   -1.4035    7.3998 H   0  0  0  0  0  0  0  0  0  0  0  0
    1.1636    1.3550    6.1427 H   0  0  0  0  0  0  0  0  0  0  0  0
  1  2  1  0  0  0  0
  1 35  1  0  0  0  0
  1 36  1  0  0  0  0
  1 37  1  0  0  0  0
  2  3  1  0  0  0  0
  3  4  1  0  0  0  0
  3 21  2  0  0  0  0
  4  5  2  0  0  0  0
  4 38  1  0  0  0  0
  5  6  1  0  0  0  0
  5 19  1  0  0  0  0
  6  7  1  0  0  0  0
  6 16  2  0  0  0  0
  7  8  1  0  0  0  0
  7 39  1  0  0  0  0
  8  9  1  0  0  0  0
  8 15  2  0  0  0  0
  9 10  2  0  0  0  0
  9 40  1  0  0  0  0
 10 11  1  0  0  0  0
 10 41  1  0  0  0  0
 11 12  1  0  0  0  0
 11 13  2  0  0  0  0
 13 14  1  0  0  0  0
 13 15  1  0  0  0  0
 15 42  1  0  0  0  0
 16 17  1  0  0  0  0
 17 18  2  0  0  0  0
 17 43  1  0  0  0  0
 18 19  1  0  0  0  0
 19 20  2  0  0  0  0
 20 21  1  0  0  0  0
 20 44  1  0  0  0  0
 21 22  1  0  0  0  0
 22 23  1  0  0  0  0
 23 24  1  0  0  0  0
 23 27  1  0  0  0  0
 23 45  1  6  0  0  0
 24 25  1  0  0  0  0
 24 46  1  0  0  0  0
 24 47  1  0  0  0  0
 25 26  1  0  0  0  0
 26 27  1  0  0  0  0
 26 30  1  0  0  0  0
 26 48  1  1  0  0  0
 27 28  1  0  0  0  0
 27 49  1  1  0  0  0
 28 29  1  0  0  0  0
 29 30  1  0  0  0  0
 29 50  1  0  0  0  0
 29 51  1  0  0  0  0
 30 31  1  0  0  0  0
 30 52  1  6  0  0  0
 31 32  1  0  0  0  0
 31 33  1  0  0  0  0
 31 34  1  0  0  0  0
M  END
$$$$
