CHEMBL250842
 OpenBabel04072215363D

 37 39  0  0  0  0  0  0  0  0999 V2000
    1.1212   -0.3125   -0.1110 O   0  0  0  0  0  0  0  0  0  0  0  0
    2.2140    0.2182   -0.3031 C   0  0  0  0  0  0  0  0  0  0  0  0
    2.8908    0.1677   -1.5187 N   0  0  0  0  0  0  0  0  0  0  0  0
    2.4670   -0.4171   -2.7278 C   0  0  0  0  0  0  0  0  0  0  0  0
    1.1475   -0.7930   -2.9868 C   0  0  0  0  0  0  0  0  0  0  0  0
    0.8089   -1.4073   -4.1985 C   0  0  0  0  0  0  0  0  0  0  0  0
    1.7912   -1.6501   -5.1539 C   0  0  0  0  0  0  0  0  0  0  0  0
    1.3832   -2.4516   -6.6204 Cl  0  0  0  0  0  0  0  0  0  0  0  0
    3.1047   -1.2516   -4.9236 C   0  0  0  0  0  0  0  0  0  0  0  0
    3.4379   -0.6234   -3.7189 C   0  0  0  0  0  0  0  0  0  0  0  0
    2.9328    0.9177    0.7693 C   0  0  0  0  0  0  0  0  0  0  0  0
    4.4119    1.7433    0.4432 S   0  0  0  0  0  0  0  0  0  0  0  0
    4.5566    2.2839    2.0503 C   0  0  0  0  0  0  0  0  0  0  0  0
    3.5208    1.8374    2.8354 C   0  0  0  0  0  0  0  0  0  0  0  0
    2.5973    1.0243    2.1133 C   0  0  0  0  0  0  0  0  0  0  0  0
    1.4927    0.4582    2.6733 N   0  0  0  0  0  0  0  0  0  0  0  0
    1.4298    0.0513    4.0725 C   0  0  0  0  0  0  0  0  0  0  0  0
    0.3866    0.8151    4.8529 C   0  0  0  0  0  0  0  0  0  0  0  0
   -0.1930    0.2322    5.9902 C   0  0  0  0  0  0  0  0  0  0  0  0
   -1.0966    0.9719    6.7404 C   0  0  0  0  0  0  0  0  0  0  0  0
   -1.4536    2.2395    6.4492 N   0  0  0  0  0  0  0  0  0  0  0  0
   -0.8825    2.7890    5.3560 C   0  0  0  0  0  0  0  0  0  0  0  0
    0.0317    2.1331    4.5461 C   0  0  0  0  0  0  0  0  0  0  0  0
    3.8392    0.5217   -1.4954 H   0  0  0  0  0  0  0  0  0  0  0  0
    0.3530   -0.6070   -2.2701 H   0  0  0  0  0  0  0  0  0  0  0  0
   -0.2224   -1.6971   -4.3815 H   0  0  0  0  0  0  0  0  0  0  0  0
    3.8742   -1.4370   -5.6692 H   0  0  0  0  0  0  0  0  0  0  0  0
    4.4722   -0.3296   -3.5576 H   0  0  0  0  0  0  0  0  0  0  0  0
    5.3866    2.9100    2.3478 H   0  0  0  0  0  0  0  0  0  0  0  0
    3.4341    2.0982    3.8825 H   0  0  0  0  0  0  0  0  0  0  0  0
    0.8659   -0.0834    2.0700 H   0  0  0  0  0  0  0  0  0  0  0  0
    2.3935    0.1611    4.5845 H   0  0  0  0  0  0  0  0  0  0  0  0
    1.1889   -1.0184    4.0980 H   0  0  0  0  0  0  0  0  0  0  0  0
    0.0560   -0.7786    6.2974 H   0  0  0  0  0  0  0  0  0  0  0  0
   -1.5656    0.5514    7.6254 H   0  0  0  0  0  0  0  0  0  0  0  0
   -1.1795    3.8124    5.1450 H   0  0  0  0  0  0  0  0  0  0  0  0
    0.4592    2.6447    3.6916 H   0  0  0  0  0  0  0  0  0  0  0  0
  1  2  2  0  0  0  0
  2  3  1  0  0  0  0
  2 11  1  0  0  0  0
  3  4  1  0  0  0  0
  3 24  1  0  0  0  0
  4  5  1  0  0  0  0
  4 10  2  0  0  0  0
  5  6  2  0  0  0  0
  5 25  1  0  0  0  0
  6  7  1  0  0  0  0
  6 26  1  0  0  0  0
  7  8  1  0  0  0  0
  7  9  2  0  0  0  0
  9 10  1  0  0  0  0
  9 27  1  0  0  0  0
 10 28  1  0  0  0  0
 11 12  1  0  0  0  0
 11 15  2  0  0  0  0
 12 13  1  0  0  0  0
 13 14  2  0  0  0  0
 13 29  1  0  0  0  0
 14 15  1  0  0  0  0
 14 30  1  0  0  0  0
 15 16  1  0  0  0  0
 16 17  1  0  0  0  0
 16 31  1  0  0  0  0
 17 18  1  0  0  0  0
 17 32  1  0  0  0  0
 17 33  1  0  0  0  0
 18 19  1  0  0  0  0
 18 23  2  0  0  0  0
 19 20  2  0  0  0  0
 19 34  1  0  0  0  0
 20 21  1  0  0  0  0
 20 35  1  0  0  0  0
 21 22  2  0  0  0  0
 22 23  1  0  0  0  0
 22 36  1  0  0  0  0
 23 37  1  0  0  0  0
M  END
$$$$
