CHEMBL4068360
 OpenBabel04072215383D

 50 54  0  0  0  0  0  0  0  0999 V2000
    3.0348   -1.1428    1.2921 C   0  0  0  0  0  0  0  0  0  0  0  0
    2.6365    0.1512    1.8411 N   0  0  0  0  0  0  0  0  0  0  0  0
    3.4376    0.4972    3.0241 C   0  0  0  0  0  0  0  0  0  0  0  0
    4.9095    0.7066    2.7294 C   0  0  0  0  0  0  0  0  0  0  0  0
    5.2954    1.6602    1.8066 C   0  0  0  0  0  0  0  0  0  0  0  0
    6.6499    1.8653    1.6622 C   0  0  0  0  0  0  0  0  0  0  0  0
    7.1861    2.8358    0.8425 O   0  0  0  0  0  0  0  0  0  0  0  0
    6.5242    4.0309    0.6516 C   0  0  0  0  0  0  0  0  0  0  0  0
    5.7415    4.6748    1.6110 C   0  0  0  0  0  0  0  0  0  0  0  0
    5.0396    5.8536    1.3111 C   0  0  0  0  0  0  0  0  0  0  0  0
    5.2011    6.4201    0.0366 C   0  0  0  0  0  0  0  0  0  0  0  0
    6.0445    5.8225   -0.9157 C   0  0  0  0  0  0  0  0  0  0  0  0
    5.9940    6.6060   -2.0935 C   0  0  0  0  0  0  0  0  0  0  0  0
    5.0677    7.5942   -1.8847 C   0  0  0  0  0  0  0  0  0  0  0  0
    4.5732    7.5017   -0.5932 N   0  0  0  0  0  0  0  0  0  0  0  0
    3.4925    8.2792   -0.1388 C   0  0  0  0  0  0  0  0  0  0  0  0
    2.5320    8.3951   -0.8910 O   0  0  0  0  0  0  0  0  0  0  0  0
    3.7812    8.9569    1.0311 N   0  0  0  0  0  0  0  0  0  0  0  0
    2.8651    9.8646    1.5582 C   0  0  0  0  0  0  0  0  0  0  0  0
    3.1480   10.9216    2.4708 C   0  0  0  0  0  0  0  0  0  0  0  0
    1.9412   11.5687    2.6449 C   0  0  0  0  0  0  0  0  0  0  0  0
    1.5953   12.8126    3.4466 C   0  0  0  0  0  0  0  0  0  0  0  0
    2.6126   13.9217    3.5999 C   0  0  0  0  0  0  0  0  0  0  0  0
    2.2568   13.0812    4.7781 C   0  0  0  0  0  0  0  0  0  0  0  0
    0.9940   10.9107    1.9273 O   0  0  0  0  0  0  0  0  0  0  0  0
    1.5628    9.8553    1.2626 N   0  0  0  0  0  0  0  0  0  0  0  0
    6.7144    4.6239   -0.5986 C   0  0  0  0  0  0  0  0  0  0  0  0
    7.5698    1.0995    2.2775 N   0  0  0  0  0  0  0  0  0  0  0  0
    7.0927    0.1582    3.1010 C   0  0  0  0  0  0  0  0  0  0  0  0
    5.8021   -0.0628    3.3875 N   0  0  0  0  0  0  0  0  0  0  0  0
    2.4107   -1.3712    0.4228 H   0  0  0  0  0  0  0  0  0  0  0  0
    2.9046   -1.9450    2.0254 H   0  0  0  0  0  0  0  0  0  0  0  0
    4.0726   -1.1378    0.9462 H   0  0  0  0  0  0  0  0  0  0  0  0
    1.6587    0.0968    2.1221 H   0  0  0  0  0  0  0  0  0  0  0  0
    3.3119   -0.2611    3.8072 H   0  0  0  0  0  0  0  0  0  0  0  0
    3.0497    1.4341    3.4399 H   0  0  0  0  0  0  0  0  0  0  0  0
    4.5554    2.2198    1.2497 H   0  0  0  0  0  0  0  0  0  0  0  0
    5.6312    4.2493    2.6056 H   0  0  0  0  0  0  0  0  0  0  0  0
    4.3607    6.2793    2.0459 H   0  0  0  0  0  0  0  0  0  0  0  0
    6.5268    6.4268   -3.0177 H   0  0  0  0  0  0  0  0  0  0  0  0
    4.6901    8.3655   -2.5446 H   0  0  0  0  0  0  0  0  0  0  0  0
    4.7324    8.9931    1.3696 H   0  0  0  0  0  0  0  0  0  0  0  0
    4.0986   11.2076    2.8909 H   0  0  0  0  0  0  0  0  0  0  0  0
    0.5536   13.1077    3.3591 H   0  0  0  0  0  0  0  0  0  0  0  0
    2.2431   14.9415    3.5695 H   0  0  0  0  0  0  0  0  0  0  0  0
    3.5999   13.8072    3.1700 H   0  0  0  0  0  0  0  0  0  0  0  0
    1.6439   13.5303    5.5541 H   0  0  0  0  0  0  0  0  0  0  0  0
    2.9907   12.3806    5.1563 H   0  0  0  0  0  0  0  0  0  0  0  0
    7.3432    4.1387   -1.3416 H   0  0  0  0  0  0  0  0  0  0  0  0
    7.8192   -0.4842    3.5867 H   0  0  0  0  0  0  0  0  0  0  0  0
  1  2  1  0  0  0  0
  1 31  1  0  0  0  0
  1 32  1  0  0  0  0
  1 33  1  0  0  0  0
  2  3  1  0  0  0  0
  2 34  1  0  0  0  0
  3  4  1  0  0  0  0
  3 35  1  0  0  0  0
  3 36  1  0  0  0  0
  4  5  1  0  0  0  0
  4 30  2  0  0  0  0
  5  6  2  0  0  0  0
  5 37  1  0  0  0  0
  6  7  1  0  0  0  0
  6 28  1  0  0  0  0
  7  8  1  0  0  0  0
  8  9  1  0  0  0  0
  8 27  2  0  0  0  0
  9 10  2  0  0  0  0
  9 38  1  0  0  0  0
 10 11  1  0  0  0  0
 10 39  1  0  0  0  0
 11 12  2  0  0  0  0
 11 15  1  0  0  0  0
 12 13  1  0  0  0  0
 12 27  1  0  0  0  0
 13 14  2  0  0  0  0
 13 40  1  0  0  0  0
 14 15  1  0  0  0  0
 14 41  1  0  0  0  0
 15 16  1  0  0  0  0
 16 17  2  0  0  0  0
 16 18  1  0  0  0  0
 18 19  1  0  0  0  0
 18 42  1  0  0  0  0
 19 20  1  0  0  0  0
 19 26  2  0  0  0  0
 20 21  2  0  0  0  0
 20 43  1  0  0  0  0
 21 22  1  0  0  0  0
 21 25  1  0  0  0  0
 22 23  1  0  0  0  0
 22 24  1  0  0  0  0
 22 44  1  0  0  0  0
 23 24  1  0  0  0  0
 23 45  1  0  0  0  0
 23 46  1  0  0  0  0
 24 47  1  0  0  0  0
 24 48  1  0  0  0  0
 25 26  1  0  0  0  0
 27 49  1  0  0  0  0
 28 29  2  0  0  0  0
 29 30  1  0  0  0  0
 29 50  1  0  0  0  0
M  END
$$$$
