CHEMBL3702664
 OpenBabel04072215373D

 57 60  0  0  0  0  0  0  0  0999 V2000
    2.4556   -0.0585    0.0555 C   0  0  0  0  0  0  0  0  0  0  0  0
    0.9553   -0.0104    0.0736 C   0  0  0  0  0  0  0  0  0  0  0  0
    0.2690    1.2121    0.1003 C   0  0  0  0  0  0  0  0  0  0  0  0
   -1.1264    1.2148    0.0891 C   0  0  0  0  0  0  0  0  0  0  0  0
   -1.9398    2.4572    0.1844 C   0  0  0  0  0  0  0  0  0  0  0  0
   -2.9976    2.3731    0.8030 O   0  0  0  0  0  0  0  0  0  0  0  0
   -1.4754    3.5783   -0.4928 N   0  0  0  0  0  0  0  0  0  0  0  0
   -2.1520    4.8281   -0.5523 C   0  0  0  0  0  0  0  0  0  0  0  0
   -3.1763    5.1713    0.3337 C   0  0  0  0  0  0  0  0  0  0  0  0
   -3.8629    6.3781    0.2070 C   0  0  0  0  0  0  0  0  0  0  0  0
   -3.5336    7.2643   -0.8118 C   0  0  0  0  0  0  0  0  0  0  0  0
   -2.5008    6.9604   -1.7102 C   0  0  0  0  0  0  0  0  0  0  0  0
   -2.1903    7.9017   -2.8671 C   0  0  0  0  0  0  0  0  0  0  0  0
   -3.3914    8.0229   -3.8151 C   0  0  0  0  0  0  0  0  0  0  0  0
   -1.7533    9.2910   -2.3926 C   0  0  0  0  0  0  0  0  0  0  0  0
   -1.7970    5.7492   -1.5532 C   0  0  0  0  0  0  0  0  0  0  0  0
   -1.8254   -0.0040    0.0321 C   0  0  0  0  0  0  0  0  0  0  0  0
   -1.1689   -1.2396   -0.0321 C   0  0  0  0  0  0  0  0  0  0  0  0
   -1.8522   -2.4203   -0.2561 N   0  0  0  0  0  0  0  0  0  0  0  0
   -3.0518   -2.4219   -1.0986 C   0  0  0  0  0  0  0  0  0  0  0  0
   -2.9229   -3.5817   -2.0785 C   0  0  0  0  0  0  0  0  0  0  0  0
   -2.6297   -4.8657   -1.3536 C   0  0  0  0  0  0  0  0  0  0  0  0
   -2.9348   -6.0061   -2.0122 N   0  0  0  0  0  0  0  0  0  0  0  0
   -2.6815   -7.1550   -1.3854 C   0  0  0  0  0  0  0  0  0  0  0  0
   -2.9694   -8.3194   -2.0669 N   0  0  0  0  0  0  0  0  0  0  0  0
   -2.1250   -7.2560   -0.1761 N   0  0  0  0  0  0  0  0  0  0  0  0
   -1.8249   -6.0970    0.4479 C   0  0  0  0  0  0  0  0  0  0  0  0
   -2.0389   -4.8509   -0.1000 C   0  0  0  0  0  0  0  0  0  0  0  0
   -1.7034   -3.5777    0.6313 C   0  0  0  0  0  0  0  0  0  0  0  0
    0.2286   -1.2172    0.0290 C   0  0  0  0  0  0  0  0  0  0  0  0
    2.8920    0.9446    0.0783 H   0  0  0  0  0  0  0  0  0  0  0  0
    2.8018   -0.5525   -0.8594 H   0  0  0  0  0  0  0  0  0  0  0  0
    2.8297   -0.6115    0.9234 H   0  0  0  0  0  0  0  0  0  0  0  0
    0.8230    2.1444    0.1597 H   0  0  0  0  0  0  0  0  0  0  0  0
   -0.6967    3.4558   -1.1267 H   0  0  0  0  0  0  0  0  0  0  0  0
   -3.4693    4.5162    1.1477 H   0  0  0  0  0  0  0  0  0  0  0  0
   -4.6684    6.6121    0.8979 H   0  0  0  0  0  0  0  0  0  0  0  0
   -4.1048    8.1852   -0.9054 H   0  0  0  0  0  0  0  0  0  0  0  0
   -1.3583    7.4809   -3.4472 H   0  0  0  0  0  0  0  0  0  0  0  0
   -4.2678    8.4513   -3.3152 H   0  0  0  0  0  0  0  0  0  0  0  0
   -3.6796    7.0417   -4.2089 H   0  0  0  0  0  0  0  0  0  0  0  0
   -3.1515    8.6703   -4.6653 H   0  0  0  0  0  0  0  0  0  0  0  0
   -2.5458    9.8064   -1.8385 H   0  0  0  0  0  0  0  0  0  0  0  0
   -1.4897    9.9238   -3.2491 H   0  0  0  0  0  0  0  0  0  0  0  0
   -0.8756    9.2273   -1.7417 H   0  0  0  0  0  0  0  0  0  0  0  0
   -0.9972    5.5098   -2.2497 H   0  0  0  0  0  0  0  0  0  0  0  0
   -2.9137    0.0264    0.0357 H   0  0  0  0  0  0  0  0  0  0  0  0
   -3.1578   -1.5005   -1.6831 H   0  0  0  0  0  0  0  0  0  0  0  0
   -3.9478   -2.5245   -0.4735 H   0  0  0  0  0  0  0  0  0  0  0  0
   -2.0962   -3.3898   -2.7742 H   0  0  0  0  0  0  0  0  0  0  0  0
   -3.8433   -3.6770   -2.6649 H   0  0  0  0  0  0  0  0  0  0  0  0
   -2.9607   -8.1305   -3.0589 H   0  0  0  0  0  0  0  0  0  0  0  0
   -2.3749   -9.0639   -1.7306 H   0  0  0  0  0  0  0  0  0  0  0  0
   -1.3955   -6.2176    1.4384 H   0  0  0  0  0  0  0  0  0  0  0  0
   -0.6870   -3.6533    1.0333 H   0  0  0  0  0  0  0  0  0  0  0  0
   -2.3939   -3.4696    1.4797 H   0  0  0  0  0  0  0  0  0  0  0  0
    0.7770   -2.1559   -0.0300 H   0  0  0  0  0  0  0  0  0  0  0  0
  1  2  1  0  0  0  0
  1 31  1  0  0  0  0
  1 32  1  0  0  0  0
  1 33  1  0  0  0  0
  2  3  1  0  0  0  0
  2 30  2  0  0  0  0
  3  4  2  0  0  0  0
  3 34  1  0  0  0  0
  4  5  1  0  0  0  0
  4 17  1  0  0  0  0
  5  6  2  0  0  0  0
  5  7  1  0  0  0  0
  7  8  1  0  0  0  0
  7 35  1  0  0  0  0
  8  9  1  0  0  0  0
  8 16  2  0  0  0  0
  9 10  2  0  0  0  0
  9 36  1  0  0  0  0
 10 11  1  0  0  0  0
 10 37  1  0  0  0  0
 11 12  2  0  0  0  0
 11 38  1  0  0  0  0
 12 13  1  0  0  0  0
 12 16  1  0  0  0  0
 13 14  1  0  0  0  0
 13 15  1  0  0  0  0
 13 39  1  0  0  0  0
 14 40  1  0  0  0  0
 14 41  1  0  0  0  0
 14 42  1  0  0  0  0
 15 43  1  0  0  0  0
 15 44  1  0  0  0  0
 15 45  1  0  0  0  0
 16 46  1  0  0  0  0
 17 18  2  0  0  0  0
 17 47  1  0  0  0  0
 18 19  1  0  0  0  0
 18 30  1  0  0  0  0
 19 20  1  0  0  0  0
 19 29  1  0  0  0  0
 20 21  1  0  0  0  0
 20 48  1  0  0  0  0
 20 49  1  0  0  0  0
 21 22  1  0  0  0  0
 21 50  1  0  0  0  0
 21 51  1  0  0  0  0
 22 23  1  0  0  0  0
 22 28  2  0  0  0  0
 23 24  2  0  0  0  0
 24 25  1  0  0  0  0
 24 26  1  0  0  0  0
 25 52  1  0  0  0  0
 25 53  1  0  0  0  0
 26 27  2  0  0  0  0
 27 28  1  0  0  0  0
 27 54  1  0  0  0  0
 28 29  1  0  0  0  0
 29 55  1  0  0  0  0
 29 56  1  0  0  0  0
 30 57  1  0  0  0  0
M  END
$$$$
