CHEMBL2113199
 OpenBabel04072215363D

 67 71  0  0  0  0  0  0  0  0999 V2000
    2.8808   -0.4720   -1.3131 C   0  0  0  0  0  0  0  0  0  0  0  0
    2.6123   -0.2039    0.0634 O   0  0  0  0  0  0  0  0  0  0  0  0
    3.2215    0.8437    0.6947 C   0  0  0  0  0  0  0  0  0  0  0  0
    4.3948    1.3899    0.1924 C   0  0  0  0  0  0  0  0  0  0  0  0
    5.0102    2.5019    0.7763 C   0  0  0  0  0  0  0  0  0  0  0  0
    6.1332    3.1290    0.2293 C   0  0  0  0  0  0  0  0  0  0  0  0
    6.6429    2.6954   -1.0237 N   0  0  0  0  0  0  0  0  0  0  0  0
    7.9296    2.9490   -1.4935 C   0  0  0  0  0  0  0  0  0  0  0  0
    8.9858    3.2857   -0.7590 C   0  0  0  0  0  0  0  0  0  0  0  0
   10.2994    3.6581   -1.3071 C   0  0  0  0  0  0  0  0  0  0  0  0
   11.1525    4.1217   -0.5651 O   0  0  0  0  0  0  0  0  0  0  0  0
   10.4981    3.4817   -2.7756 C   0  0  0  0  0  0  0  0  0  0  0  0
   11.6912    3.7790   -3.4061 O   0  0  0  0  0  0  0  0  0  0  0  0
   12.8925    3.6481   -2.6339 C   0  0  0  0  0  0  0  0  0  0  0  0
   14.0178    3.3228   -3.5905 C   0  0  0  0  0  0  0  0  0  0  0  0
   14.3319    4.1960   -4.6319 C   0  0  0  0  0  0  0  0  0  0  0  0
   15.3311    3.8382   -5.5321 C   0  0  0  0  0  0  0  0  0  0  0  0
   15.9953    2.6294   -5.3663 C   0  0  0  0  0  0  0  0  0  0  0  0
   15.6349    1.8261   -4.2985 C   0  0  0  0  0  0  0  0  0  0  0  0
   14.6652    2.1422   -3.4133 N   0  0  0  0  0  0  0  0  0  0  0  0
    9.4707    3.0662   -3.5236 C   0  0  0  0  0  0  0  0  0  0  0  0
    8.1296    2.7831   -2.9742 C   0  0  0  0  0  0  0  0  0  0  0  0
    7.2136    2.4217   -3.7058 O   0  0  0  0  0  0  0  0  0  0  0  0
    6.7572    4.1217    0.8878 N   0  0  0  0  0  0  0  0  0  0  0  0
    6.2533    4.4792    2.0684 C   0  0  0  0  0  0  0  0  0  0  0  0
    5.1497    3.9893    2.6389 N   0  0  0  0  0  0  0  0  0  0  0  0
    4.5252    3.0061    1.9877 C   0  0  0  0  0  0  0  0  0  0  0  0
    3.3877    2.4266    2.5321 C   0  0  0  0  0  0  0  0  0  0  0  0
    2.7147    1.3583    1.9075 C   0  0  0  0  0  0  0  0  0  0  0  0
    1.6165    0.9356    2.6266 O   0  0  0  0  0  0  0  0  0  0  0  0
    0.9428   -0.1899    2.0839 C   0  0  0  0  0  0  0  0  0  0  0  0
   -0.1996   -0.6742    2.9639 C   0  0  0  0  0  0  0  0  0  0  0  0
   -0.8356   -1.8924    2.2704 C   0  0  0  0  0  0  0  0  0  0  0  0
   -1.9775   -2.4774    2.9863 N   0  0  0  0  0  0  0  0  0  0  0  0
   -1.6258   -3.0062    4.3118 C   0  0  0  0  0  0  0  0  0  0  0  0
   -1.0995   -4.4008    4.0429 C   0  0  0  0  0  0  0  0  0  0  0  0
   -2.0594   -4.9027    2.9836 C   0  0  0  0  0  0  0  0  0  0  0  0
   -2.5206   -3.6423    2.2503 C   0  0  0  0  0  0  0  0  0  0  0  0
    3.2325   -1.5052   -1.4020 H   0  0  0  0  0  0  0  0  0  0  0  0
    3.6048    0.1780   -1.8067 H   0  0  0  0  0  0  0  0  0  0  0  0
    1.9485   -0.3713   -1.8722 H   0  0  0  0  0  0  0  0  0  0  0  0
    4.9051    0.9209   -0.6412 H   0  0  0  0  0  0  0  0  0  0  0  0
    5.9435    2.7483   -1.7669 H   0  0  0  0  0  0  0  0  0  0  0  0
    8.9313    3.3660    0.3198 H   0  0  0  0  0  0  0  0  0  0  0  0
   12.8157    2.8370   -1.9000 H   0  0  0  0  0  0  0  0  0  0  0  0
   13.1145    4.5925   -2.1236 H   0  0  0  0  0  0  0  0  0  0  0  0
   13.7925    5.1302   -4.7527 H   0  0  0  0  0  0  0  0  0  0  0  0
   15.5828    4.4943   -6.3603 H   0  0  0  0  0  0  0  0  0  0  0  0
   16.7740    2.3190   -6.0535 H   0  0  0  0  0  0  0  0  0  0  0  0
   16.1272    0.8744   -4.1223 H   0  0  0  0  0  0  0  0  0  0  0  0
    9.5852    2.9258   -4.5941 H   0  0  0  0  0  0  0  0  0  0  0  0
    6.8068    5.2296    2.6196 H   0  0  0  0  0  0  0  0  0  0  0  0
    3.0130    2.8109    3.4786 H   0  0  0  0  0  0  0  0  0  0  0  0
    1.6526   -1.0212    2.0039 H   0  0  0  0  0  0  0  0  0  0  0  0
    0.5215    0.0902    1.1130 H   0  0  0  0  0  0  0  0  0  0  0  0
   -0.9335    0.1257    3.1142 H   0  0  0  0  0  0  0  0  0  0  0  0
    0.2044   -0.9201    3.9511 H   0  0  0  0  0  0  0  0  0  0  0  0
   -0.0609   -2.6456    2.0714 H   0  0  0  0  0  0  0  0  0  0  0  0
   -1.1912   -1.5555    1.2861 H   0  0  0  0  0  0  0  0  0  0  0  0
   -2.5466   -3.0650    4.9053 H   0  0  0  0  0  0  0  0  0  0  0  0
   -0.9278   -2.3945    4.8859 H   0  0  0  0  0  0  0  0  0  0  0  0
   -1.0969   -5.0273    4.9387 H   0  0  0  0  0  0  0  0  0  0  0  0
   -0.0778   -4.3703    3.6452 H   0  0  0  0  0  0  0  0  0  0  0  0
   -2.9177   -5.3875    3.4647 H   0  0  0  0  0  0  0  0  0  0  0  0
   -1.5865   -5.6312    2.3184 H   0  0  0  0  0  0  0  0  0  0  0  0
   -3.6153   -3.5915    2.2682 H   0  0  0  0  0  0  0  0  0  0  0  0
   -2.2257   -3.6684    1.1939 H   0  0  0  0  0  0  0  0  0  0  0  0
  1  2  1  0  0  0  0
  1 39  1  0  0  0  0
  1 40  1  0  0  0  0
  1 41  1  0  0  0  0
  2  3  1  0  0  0  0
  3  4  1  0  0  0  0
  3 29  2  0  0  0  0
  4  5  2  0  0  0  0
  4 42  1  0  0  0  0
  5  6  1  0  0  0  0
  5 27  1  0  0  0  0
  6  7  1  0  0  0  0
  6 24  2  0  0  0  0
  7  8  1  0  0  0  0
  7 43  1  0  0  0  0
  8  9  2  0  0  0  0
  8 22  1  0  0  0  0
  9 10  1  0  0  0  0
  9 44  1  0  0  0  0
 10 11  2  0  0  0  0
 10 12  1  0  0  0  0
 12 13  1  0  0  0  0
 12 21  2  0  0  0  0
 13 14  1  0  0  0  0
 14 15  1  0  0  0  0
 14 45  1  0  0  0  0
 14 46  1  0  0  0  0
 15 16  1  0  0  0  0
 15 20  2  0  0  0  0
 16 17  2  0  0  0  0
 16 47  1  0  0  0  0
 17 18  1  0  0  0  0
 17 48  1  0  0  0  0
 18 19  2  0  0  0  0
 18 49  1  0  0  0  0
 19 20  1  0  0  0  0
 19 50  1  0  0  0  0
 21 22  1  0  0  0  0
 21 51  1  0  0  0  0
 22 23  2  0  0  0  0
 24 25  1  0  0  0  0
 25 26  2  0  0  0  0
 25 52  1  0  0  0  0
 26 27  1  0  0  0  0
 27 28  2  0  0  0  0
 28 29  1  0  0  0  0
 28 53  1  0  0  0  0
 29 30  1  0  0  0  0
 30 31  1  0  0  0  0
 31 32  1  0  0  0  0
 31 54  1  0  0  0  0
 31 55  1  0  0  0  0
 32 33  1  0  0  0  0
 32 56  1  0  0  0  0
 32 57  1  0  0  0  0
 33 34  1  0  0  0  0
 33 58  1  0  0  0  0
 33 59  1  0  0  0  0
 34 35  1  0  0  0  0
 34 38  1  0  0  0  0
 35 36  1  0  0  0  0
 35 60  1  0  0  0  0
 35 61  1  0  0  0  0
 36 37  1  0  0  0  0
 36 62  1  0  0  0  0
 36 63  1  0  0  0  0
 37 38  1  0  0  0  0
 37 64  1  0  0  0  0
 37 65  1  0  0  0  0
 38 66  1  0  0  0  0
 38 67  1  0  0  0  0
M  END
$$$$
