CHEMBL1254590
 OpenBabel04072215363D

 37 39  0  0  0  0  0  0  0  0999 V2000
    1.3791    0.0845    0.5657 C   0  0  0  0  0  0  0  0  0  0  0  0
    2.7309    0.0667    0.0523 N   0  0  0  0  0  0  0  0  0  0  0  0
    3.2195    1.2469   -0.4659 C   0  0  0  0  0  0  0  0  0  0  0  0
    2.4984    2.2323   -0.5739 O   0  0  0  0  0  0  0  0  0  0  0  0
    4.5456    1.1537   -0.8405 N   0  0  0  0  0  0  0  0  0  0  0  0
    5.3009    2.2364   -1.3519 C   0  0  0  0  0  0  0  0  0  0  0  0
    4.9068    3.5606   -1.1624 C   0  0  0  0  0  0  0  0  0  0  0  0
    5.5912    4.6112   -1.7693 C   0  0  0  0  0  0  0  0  0  0  0  0
    6.7453    4.3705   -2.5104 C   0  0  0  0  0  0  0  0  0  0  0  0
    7.4565    5.3628   -3.1571 O   0  0  0  0  0  0  0  0  0  0  0  0
    7.4275    6.6443   -2.6113 C   0  0  0  0  0  0  0  0  0  0  0  0
    7.3852    6.7965   -1.2663 N   0  0  0  0  0  0  0  0  0  0  0  0
    7.2939    8.0390   -0.7689 C   0  0  0  0  0  0  0  0  0  0  0  0
    7.2883    9.1920   -1.4448 N   0  0  0  0  0  0  0  0  0  0  0  0
    7.3977    9.0341   -2.7819 C   0  0  0  0  0  0  0  0  0  0  0  0
    7.4478   10.0252   -3.7832 C   0  0  0  0  0  0  0  0  0  0  0  0
    7.5506    9.3790   -4.9943 C   0  0  0  0  0  0  0  0  0  0  0  0
    7.5515    8.0250   -4.7510 N   0  0  0  0  0  0  0  0  0  0  0  0
    7.6358    7.0161   -5.7816 C   0  0  0  0  0  0  0  0  0  0  0  0
    7.4711    7.7891   -3.3982 C   0  0  0  0  0  0  0  0  0  0  0  0
    7.1786    3.0496   -2.6730 C   0  0  0  0  0  0  0  0  0  0  0  0
    6.4630    1.9855   -2.0895 C   0  0  0  0  0  0  0  0  0  0  0  0
    1.1273   -0.9004    0.9611 H   0  0  0  0  0  0  0  0  0  0  0  0
    0.6897    0.3521   -0.2419 H   0  0  0  0  0  0  0  0  0  0  0  0
    1.3018    0.8366    1.3583 H   0  0  0  0  0  0  0  0  0  0  0  0
    3.3969   -0.5303    0.5182 H   0  0  0  0  0  0  0  0  0  0  0  0
    4.8976    0.2222   -1.0031 H   0  0  0  0  0  0  0  0  0  0  0  0
    4.0543    3.8201   -0.5431 H   0  0  0  0  0  0  0  0  0  0  0  0
    5.1977    5.6133   -1.6331 H   0  0  0  0  0  0  0  0  0  0  0  0
    7.2034    8.1137    0.3102 H   0  0  0  0  0  0  0  0  0  0  0  0
    7.4158   11.0941   -3.6278 H   0  0  0  0  0  0  0  0  0  0  0  0
    7.6195    9.7731   -6.0007 H   0  0  0  0  0  0  0  0  0  0  0  0
    7.7265    7.4994   -6.7597 H   0  0  0  0  0  0  0  0  0  0  0  0
    6.7247    6.4133   -5.7542 H   0  0  0  0  0  0  0  0  0  0  0  0
    8.5196    6.4006   -5.5961 H   0  0  0  0  0  0  0  0  0  0  0  0
    8.0671    2.8409   -3.2621 H   0  0  0  0  0  0  0  0  0  0  0  0
    6.8167    0.9702   -2.2474 H   0  0  0  0  0  0  0  0  0  0  0  0
  1  2  1  0  0  0  0
  1 23  1  0  0  0  0
  1 24  1  0  0  0  0
  1 25  1  0  0  0  0
  2  3  1  0  0  0  0
  2 26  1  0  0  0  0
  3  4  2  0  0  0  0
  3  5  1  0  0  0  0
  5  6  1  0  0  0  0
  5 27  1  0  0  0  0
  6  7  1  0  0  0  0
  6 22  2  0  0  0  0
  7  8  2  0  0  0  0
  7 28  1  0  0  0  0
  8  9  1  0  0  0  0
  8 29  1  0  0  0  0
  9 10  1  0  0  0  0
  9 21  2  0  0  0  0
 10 11  1  0  0  0  0
 11 12  1  0  0  0  0
 11 20  2  0  0  0  0
 12 13  2  0  0  0  0
 13 14  1  0  0  0  0
 13 30  1  0  0  0  0
 14 15  2  0  0  0  0
 15 16  1  0  0  0  0
 15 20  1  0  0  0  0
 16 17  2  0  0  0  0
 16 31  1  0  0  0  0
 17 18  1  0  0  0  0
 17 32  1  0  0  0  0
 18 19  1  0  0  0  0
 18 20  1  0  0  0  0
 19 33  1  0  0  0  0
 19 34  1  0  0  0  0
 19 35  1  0  0  0  0
 21 22  1  0  0  0  0
 21 36  1  0  0  0  0
 22 37  1  0  0  0  0
M  END
$$$$
