CHEMBL605841
 OpenBabel04072215383D

 38 41  0  0  0  0  0  0  0  0999 V2000
    1.0975   -0.4675    0.5378 O   0  0  0  0  0  0  0  0  0  0  0  0
    2.2367   -0.1609    0.1857 C   0  0  0  0  0  0  0  0  0  0  0  0
    2.9236   -0.8680   -0.9622 C   0  0  0  0  0  0  0  0  0  0  0  0
    4.1684   -1.5329   -0.4955 C   0  0  0  0  0  0  0  0  0  0  0  0
    4.3024   -2.9013   -0.4262 C   0  0  0  0  0  0  0  0  0  0  0  0
    5.3953   -3.5209    0.0483 N   0  0  0  0  0  0  0  0  0  0  0  0
    6.4105   -2.7379    0.4340 C   0  0  0  0  0  0  0  0  0  0  0  0
    7.5295   -3.3882    0.9496 N   0  0  0  0  0  0  0  0  0  0  0  0
    8.8502   -2.9286    1.0140 C   0  0  0  0  0  0  0  0  0  0  0  0
    9.6928   -3.3782    2.0382 C   0  0  0  0  0  0  0  0  0  0  0  0
   10.9781   -2.8454    2.1951 C   0  0  0  0  0  0  0  0  0  0  0  0
   11.4265   -1.8692    1.3113 C   0  0  0  0  0  0  0  0  0  0  0  0
   12.6532   -1.2913    1.4449 O   0  0  0  0  0  0  0  0  0  0  0  0
   10.6244   -1.4356    0.2683 C   0  0  0  0  0  0  0  0  0  0  0  0
    9.3399   -1.9562    0.1309 C   0  0  0  0  0  0  0  0  0  0  0  0
    6.3712   -1.3934    0.3840 N   0  0  0  0  0  0  0  0  0  0  0  0
    5.2446   -0.7950   -0.0529 C   0  0  0  0  0  0  0  0  0  0  0  0
    5.2321    0.6841   -0.0220 C   0  0  0  0  0  0  0  0  0  0  0  0
    6.3840    1.3936   -0.4217 C   0  0  0  0  0  0  0  0  0  0  0  0
    6.4313    2.7902   -0.3976 C   0  0  0  0  0  0  0  0  0  0  0  0
    5.3475    3.5135    0.0832 C   0  0  0  0  0  0  0  0  0  0  0  0
    4.2113    2.8411    0.5254 C   0  0  0  0  0  0  0  0  0  0  0  0
    4.1237    1.4435    0.4242 C   0  0  0  0  0  0  0  0  0  0  0  0
    2.8725    0.8971    0.7724 N   0  0  0  0  0  0  0  0  0  0  0  0
    3.1404   -0.1474   -1.7614 H   0  0  0  0  0  0  0  0  0  0  0  0
    2.2283   -1.5963   -1.3933 H   0  0  0  0  0  0  0  0  0  0  0  0
    3.5066   -3.5667   -0.7505 H   0  0  0  0  0  0  0  0  0  0  0  0
    7.3735   -4.3802    1.0428 H   0  0  0  0  0  0  0  0  0  0  0  0
    9.3367   -4.1168    2.7539 H   0  0  0  0  0  0  0  0  0  0  0  0
   11.5999   -3.1879    3.0156 H   0  0  0  0  0  0  0  0  0  0  0  0
   13.0307   -1.5688    2.2949 H   0  0  0  0  0  0  0  0  0  0  0  0
   10.9810   -0.6816   -0.4261 H   0  0  0  0  0  0  0  0  0  0  0  0
    8.7181   -1.5985   -0.6854 H   0  0  0  0  0  0  0  0  0  0  0  0
    7.2625    0.8480   -0.7648 H   0  0  0  0  0  0  0  0  0  0  0  0
    7.3187    3.3108   -0.7514 H   0  0  0  0  0  0  0  0  0  0  0  0
    5.3774    4.5995    0.1022 H   0  0  0  0  0  0  0  0  0  0  0  0
    3.3678    3.4265    0.8846 H   0  0  0  0  0  0  0  0  0  0  0  0
    2.2600    1.4384    1.3716 H   0  0  0  0  0  0  0  0  0  0  0  0
  1  2  2  0  0  0  0
  2  3  1  0  0  0  0
  2 24  1  0  0  0  0
  3  4  1  0  0  0  0
  3 25  1  0  0  0  0
  3 26  1  0  0  0  0
  4  5  1  0  0  0  0
  4 17  2  0  0  0  0
  5  6  2  0  0  0  0
  5 27  1  0  0  0  0
  6  7  1  0  0  0  0
  7  8  1  0  0  0  0
  7 16  2  0  0  0  0
  8  9  1  0  0  0  0
  8 28  1  0  0  0  0
  9 10  1  0  0  0  0
  9 15  2  0  0  0  0
 10 11  2  0  0  0  0
 10 29  1  0  0  0  0
 11 12  1  0  0  0  0
 11 30  1  0  0  0  0
 12 13  1  0  0  0  0
 12 14  2  0  0  0  0
 13 31  1  0  0  0  0
 14 15  1  0  0  0  0
 14 32  1  0  0  0  0
 15 33  1  0  0  0  0
 16 17  1  0  0  0  0
 17 18  1  0  0  0  0
 18 19  1  0  0  0  0
 18 23  2  0  0  0  0
 19 20  2  0  0  0  0
 19 34  1  0  0  0  0
 20 21  1  0  0  0  0
 20 35  1  0  0  0  0
 21 22  2  0  0  0  0
 21 36  1  0  0  0  0
 22 23  1  0  0  0  0
 22 37  1  0  0  0  0
 23 24  1  0  0  0  0
 24 38  1  0  0  0  0
M  END
$$$$
