CHEMBL231153
 OpenBabel04072215363D

 28 30  0  0  0  0  0  0  0  0999 V2000
    2.4371    0.0134   -0.2022 N   0  0  0  0  0  0  0  0  0  0  0  0
    1.0427    0.0298   -0.0966 C   0  0  0  0  0  0  0  0  0  0  0  0
    0.3062    1.0931   -0.6153 C   0  0  0  0  0  0  0  0  0  0  0  0
   -1.0946    1.0806   -0.5777 C   0  0  0  0  0  0  0  0  0  0  0  0
   -1.7935   -0.0336   -0.0882 C   0  0  0  0  0  0  0  0  0  0  0  0
   -3.2655   -0.0409   -0.0282 C   0  0  0  0  0  0  0  0  0  0  0  0
   -3.9803    0.5329   -1.0661 C   0  0  0  0  0  0  0  0  0  0  0  0
   -5.6599    0.4623   -0.8503 S   0  0  0  0  0  0  0  0  0  0  0  0
   -5.5023   -0.3843    0.6366 C   0  0  0  0  0  0  0  0  0  0  0  0
   -6.5700   -0.8266    1.4262 C   0  0  0  0  0  0  0  0  0  0  0  0
   -6.2331   -1.4907    2.5803 C   0  0  0  0  0  0  0  0  0  0  0  0
   -4.9715   -1.6986    2.9840 N   0  0  0  0  0  0  0  0  0  0  0  0
   -3.9349   -1.2584    2.2363 C   0  0  0  0  0  0  0  0  0  0  0  0
   -2.6925   -1.5013    2.8077 N   0  0  0  0  0  0  0  0  0  0  0  0
   -4.1622   -0.5922    0.9974 C   0  0  0  0  0  0  0  0  0  0  0  0
   -1.0467   -1.1475    0.3069 C   0  0  0  0  0  0  0  0  0  0  0  0
    0.3529   -1.1093    0.3149 C   0  0  0  0  0  0  0  0  0  0  0  0
    2.8583    0.9367   -0.2282 H   0  0  0  0  0  0  0  0  0  0  0  0
    2.8871   -0.5922    0.4779 H   0  0  0  0  0  0  0  0  0  0  0  0
    0.8135    1.9509   -1.0479 H   0  0  0  0  0  0  0  0  0  0  0  0
   -1.6236    1.9549   -0.9514 H   0  0  0  0  0  0  0  0  0  0  0  0
   -3.5959    1.0007   -1.9624 H   0  0  0  0  0  0  0  0  0  0  0  0
   -7.6030   -0.6624    1.1447 H   0  0  0  0  0  0  0  0  0  0  0  0
   -7.0001   -1.8787    3.2449 H   0  0  0  0  0  0  0  0  0  0  0  0
   -2.8289   -1.7971    3.7686 H   0  0  0  0  0  0  0  0  0  0  0  0
   -2.0342   -0.7440    2.6774 H   0  0  0  0  0  0  0  0  0  0  0  0
   -1.5406   -2.0655    0.6149 H   0  0  0  0  0  0  0  0  0  0  0  0
    0.8970   -1.9886    0.6505 H   0  0  0  0  0  0  0  0  0  0  0  0
  1  2  1  0  0  0  0
  1 18  1  0  0  0  0
  1 19  1  0  0  0  0
  2  3  1  0  0  0  0
  2 17  2  0  0  0  0
  3  4  2  0  0  0  0
  3 20  1  0  0  0  0
  4  5  1  0  0  0  0
  4 21  1  0  0  0  0
  5  6  1  0  0  0  0
  5 16  2  0  0  0  0
  6  7  2  0  0  0  0
  6 15  1  0  0  0  0
  7  8  1  0  0  0  0
  7 22  1  0  0  0  0
  8  9  1  0  0  0  0
  9 10  1  0  0  0  0
  9 15  2  0  0  0  0
 10 11  2  0  0  0  0
 10 23  1  0  0  0  0
 11 12  1  0  0  0  0
 11 24  1  0  0  0  0
 12 13  2  0  0  0  0
 13 14  1  0  0  0  0
 13 15  1  0  0  0  0
 14 25  1  0  0  0  0
 14 26  1  0  0  0  0
 16 17  1  0  0  0  0
 16 27  1  0  0  0  0
 17 28  1  0  0  0  0
M  END
$$$$
