CHEMBL357803
 OpenBabel04072215363D

 41 43  0  0  0  0  0  0  0  0999 V2000
    2.6300    0.5271    0.0219 C   0  0  0  0  0  0  0  0  0  0  0  0
    1.1722    0.2404   -0.0105 C   0  0  0  0  0  0  0  0  0  0  0  0
    0.7353   -1.0592   -0.0119 N   0  0  0  0  0  0  0  0  0  0  0  0
   -0.6316   -1.1168   -0.0142 C   0  0  0  0  0  0  0  0  0  0  0  0
   -1.3319   -2.3523    0.0035 C   0  0  0  0  0  0  0  0  0  0  0  0
   -0.8583   -3.6079    0.0165 C   0  0  0  0  0  0  0  0  0  0  0  0
    0.5501   -4.1578    0.0158 C   0  0  0  0  0  0  0  0  0  0  0  0
    1.6000   -3.5454    0.0047 O   0  0  0  0  0  0  0  0  0  0  0  0
    0.4034   -5.5363    0.0279 N   0  0  0  0  0  0  0  0  0  0  0  0
   -0.9355   -5.9083    0.0351 C   0  0  0  0  0  0  0  0  0  0  0  0
   -1.4448   -7.1908    0.0418 C   0  0  0  0  0  0  0  0  0  0  0  0
   -2.8351   -7.3321    0.0477 C   0  0  0  0  0  0  0  0  0  0  0  0
   -3.6676   -6.1990    0.0451 C   0  0  0  0  0  0  0  0  0  0  0  0
   -5.5460   -6.4201    0.0494 Br  0  0  0  0  0  0  0  0  0  0  0  0
   -3.1342   -4.9080    0.0372 C   0  0  0  0  0  0  0  0  0  0  0  0
   -1.7554   -4.7775    0.0307 C   0  0  0  0  0  0  0  0  0  0  0  0
   -1.0934    0.1951   -0.0243 C   0  0  0  0  0  0  0  0  0  0  0  0
   -2.5175    0.6468   -0.0154 C   0  0  0  0  0  0  0  0  0  0  0  0
    0.0558    1.0611   -0.0259 C   0  0  0  0  0  0  0  0  0  0  0  0
    0.0260    2.5640   -0.0079 C   0  0  0  0  0  0  0  0  0  0  0  0
    0.6577    3.1858   -1.2485 C   0  0  0  0  0  0  0  0  0  0  0  0
    0.5523    4.6889   -1.2250 C   0  0  0  0  0  0  0  0  0  0  0  0
    0.0076    5.3509   -0.3572 O   0  0  0  0  0  0  0  0  0  0  0  0
    1.1449    5.2581   -2.3025 O   0  0  0  0  0  0  0  0  0  0  0  0
    3.2179   -0.3974    0.0515 H   0  0  0  0  0  0  0  0  0  0  0  0
    2.8865    1.1159    0.9071 H   0  0  0  0  0  0  0  0  0  0  0  0
    2.9377    1.0769   -0.8716 H   0  0  0  0  0  0  0  0  0  0  0  0
    1.3550   -1.8634    0.0037 H   0  0  0  0  0  0  0  0  0  0  0  0
   -2.4119   -2.2375    0.0079 H   0  0  0  0  0  0  0  0  0  0  0  0
    1.1928   -6.1666    0.0298 H   0  0  0  0  0  0  0  0  0  0  0  0
   -0.7984   -8.0623    0.0463 H   0  0  0  0  0  0  0  0  0  0  0  0
   -3.2711   -8.3280    0.0527 H   0  0  0  0  0  0  0  0  0  0  0  0
   -3.7858   -4.0414    0.0356 H   0  0  0  0  0  0  0  0  0  0  0  0
   -3.2223   -0.1886    0.0129 H   0  0  0  0  0  0  0  0  0  0  0  0
   -2.7348    1.2320   -0.9146 H   0  0  0  0  0  0  0  0  0  0  0  0
   -2.7133    1.2694    0.8635 H   0  0  0  0  0  0  0  0  0  0  0  0
    0.5316    2.9202    0.8982 H   0  0  0  0  0  0  0  0  0  0  0  0
   -1.0119    2.9108    0.0734 H   0  0  0  0  0  0  0  0  0  0  0  0
    0.1592    2.8178   -2.1523 H   0  0  0  0  0  0  0  0  0  0  0  0
    1.7202    2.9309   -1.3019 H   0  0  0  0  0  0  0  0  0  0  0  0
    1.5403    4.6106   -2.9169 H   0  0  0  0  0  0  0  0  0  0  0  0
  1  2  1  0  0  0  0
  1 25  1  0  0  0  0
  1 26  1  0  0  0  0
  1 27  1  0  0  0  0
  2  3  1  0  0  0  0
  2 19  2  0  0  0  0
  3  4  1  0  0  0  0
  3 28  1  0  0  0  0
  4  5  1  0  0  0  0
  4 17  2  0  0  0  0
  5  6  2  0  0  0  0
  5 29  1  0  0  0  0
  6  7  1  0  0  0  0
  6 16  1  0  0  0  0
  7  8  2  0  0  0  0
  7  9  1  0  0  0  0
  9 10  1  0  0  0  0
  9 30  1  0  0  0  0
 10 11  1  0  0  0  0
 10 16  2  0  0  0  0
 11 12  2  0  0  0  0
 11 31  1  0  0  0  0
 12 13  1  0  0  0  0
 12 32  1  0  0  0  0
 13 14  1  0  0  0  0
 13 15  2  0  0  0  0
 15 16  1  0  0  0  0
 15 33  1  0  0  0  0
 17 18  1  0  0  0  0
 17 19  1  0  0  0  0
 18 34  1  0  0  0  0
 18 35  1  0  0  0  0
 18 36  1  0  0  0  0
 19 20  1  0  0  0  0
 20 21  1  0  0  0  0
 20 37  1  0  0  0  0
 20 38  1  0  0  0  0
 21 22  1  0  0  0  0
 21 39  1  0  0  0  0
 21 40  1  0  0  0  0
 22 23  2  0  0  0  0
 22 24  1  0  0  0  0
 24 41  1  0  0  0  0
M  END
$$$$
