CHEMBL478612
 OpenBabel04072215383D

 51 54  0  0  0  0  0  0  0  0999 V2000
    3.1789   -2.5787   -3.6179 C   0  0  0  0  0  0  0  0  0  0  0  0
    4.0191   -1.5613   -2.9374 C   0  0  0  0  0  0  0  0  0  0  0  0
    3.8374   -0.2575   -2.9940 N   0  0  0  0  0  0  0  0  0  0  0  0
    4.8471    0.2916   -2.2470 C   0  0  0  0  0  0  0  0  0  0  0  0
    5.1345    1.6359   -1.9876 C   0  0  0  0  0  0  0  0  0  0  0  0
    6.2530    1.9545   -1.1983 C   0  0  0  0  0  0  0  0  0  0  0  0
    7.0891    0.9684   -0.6464 C   0  0  0  0  0  0  0  0  0  0  0  0
    8.2109    1.2753    0.1616 N   0  0  0  0  0  0  0  0  0  0  0  0
    8.2370    2.5577    0.8737 C   0  0  0  0  0  0  0  0  0  0  0  0
    9.4384    0.5556    0.1521 C   0  0  0  0  0  0  0  0  0  0  0  0
   10.2648    0.5656    1.2624 C   0  0  0  0  0  0  0  0  0  0  0  0
   11.3907   -0.2070    1.2127 C   0  0  0  0  0  0  0  0  0  0  0  0
   11.7286   -0.9140    0.1359 N   0  0  0  0  0  0  0  0  0  0  0  0
   10.9313   -0.8477   -0.9344 C   0  0  0  0  0  0  0  0  0  0  0  0
   11.3115   -1.5263   -2.0934 N   0  0  0  0  0  0  0  0  0  0  0  0
   12.6086   -1.9285   -2.4507 C   0  0  0  0  0  0  0  0  0  0  0  0
   12.8082   -3.0789   -3.2191 C   0  0  0  0  0  0  0  0  0  0  0  0
   14.1000   -3.5802   -3.4412 C   0  0  0  0  0  0  0  0  0  0  0  0
   15.2084   -2.9381   -2.8934 C   0  0  0  0  0  0  0  0  0  0  0  0
   15.0156   -1.7844   -2.1399 C   0  0  0  0  0  0  0  0  0  0  0  0
   16.3675   -1.0082   -1.3104 S   0  0  0  0  0  0  0  0  0  0  0  0
   16.2675   -1.7944    0.1501 N   0  0  0  0  0  0  0  0  0  0  0  0
   17.6010   -1.4361   -1.9344 O   0  0  0  0  0  0  0  0  0  0  0  0
   16.0530    0.3796   -1.0766 O   0  0  0  0  0  0  0  0  0  0  0  0
   13.7326   -1.2680   -1.9414 C   0  0  0  0  0  0  0  0  0  0  0  0
    9.7757   -0.1669   -0.9445 N   0  0  0  0  0  0  0  0  0  0  0  0
    6.7759   -0.3859   -0.9094 C   0  0  0  0  0  0  0  0  0  0  0  0
    5.6649   -0.6933   -1.7091 C   0  0  0  0  0  0  0  0  0  0  0  0
    5.1129   -1.8693   -2.1568 N   0  0  0  0  0  0  0  0  0  0  0  0
    5.5918   -3.2024   -1.8836 C   0  0  0  0  0  0  0  0  0  0  0  0
    2.3769   -2.0948   -4.1843 H   0  0  0  0  0  0  0  0  0  0  0  0
    2.7188   -3.2532   -2.8897 H   0  0  0  0  0  0  0  0  0  0  0  0
    3.7764   -3.1696   -4.3189 H   0  0  0  0  0  0  0  0  0  0  0  0
    4.5075    2.4137   -2.4082 H   0  0  0  0  0  0  0  0  0  0  0  0
    6.4647    3.0105   -1.0599 H   0  0  0  0  0  0  0  0  0  0  0  0
    7.2807    3.0894    0.8691 H   0  0  0  0  0  0  0  0  0  0  0  0
    8.9974    3.2243    0.4502 H   0  0  0  0  0  0  0  0  0  0  0  0
    8.4485    2.4149    1.9389 H   0  0  0  0  0  0  0  0  0  0  0  0
   10.0430    1.1073    2.1702 H   0  0  0  0  0  0  0  0  0  0  0  0
   12.0661   -0.2830    2.0586 H   0  0  0  0  0  0  0  0  0  0  0  0
   10.6193   -1.4523   -2.8259 H   0  0  0  0  0  0  0  0  0  0  0  0
   11.9556   -3.6295   -3.6052 H   0  0  0  0  0  0  0  0  0  0  0  0
   14.2336   -4.4970   -4.0101 H   0  0  0  0  0  0  0  0  0  0  0  0
   16.2062   -3.3497   -3.0327 H   0  0  0  0  0  0  0  0  0  0  0  0
   16.8452   -2.6147    0.2962 H   0  0  0  0  0  0  0  0  0  0  0  0
   15.6686   -1.3984    0.8662 H   0  0  0  0  0  0  0  0  0  0  0  0
   13.6185   -0.3626   -1.3511 H   0  0  0  0  0  0  0  0  0  0  0  0
    7.3872   -1.1782   -0.4903 H   0  0  0  0  0  0  0  0  0  0  0  0
    6.4730   -3.1676   -1.2405 H   0  0  0  0  0  0  0  0  0  0  0  0
    5.8525   -3.6780   -2.8326 H   0  0  0  0  0  0  0  0  0  0  0  0
    4.7969   -3.7599   -1.3813 H   0  0  0  0  0  0  0  0  0  0  0  0
  1  2  1  0  0  0  0
  1 31  1  0  0  0  0
  1 32  1  0  0  0  0
  1 33  1  0  0  0  0
  2  3  2  0  0  0  0
  2 29  1  0  0  0  0
  3  4  1  0  0  0  0
  4  5  1  0  0  0  0
  4 28  2  0  0  0  0
  5  6  2  0  0  0  0
  5 34  1  0  0  0  0
  6  7  1  0  0  0  0
  6 35  1  0  0  0  0
  7  8  1  0  0  0  0
  7 27  2  0  0  0  0
  8  9  1  0  0  0  0
  8 10  1  0  0  0  0
  9 36  1  0  0  0  0
  9 37  1  0  0  0  0
  9 38  1  0  0  0  0
 10 11  1  0  0  0  0
 10 26  2  0  0  0  0
 11 12  2  0  0  0  0
 11 39  1  0  0  0  0
 12 13  1  0  0  0  0
 12 40  1  0  0  0  0
 13 14  2  0  0  0  0
 14 15  1  0  0  0  0
 14 26  1  0  0  0  0
 15 16  1  0  0  0  0
 15 41  1  0  0  0  0
 16 17  1  0  0  0  0
 16 25  2  0  0  0  0
 17 18  2  0  0  0  0
 17 42  1  0  0  0  0
 18 19  1  0  0  0  0
 18 43  1  0  0  0  0
 19 20  2  0  0  0  0
 19 44  1  0  0  0  0
 20 21  1  0  0  0  0
 20 25  1  0  0  0  0
 21 22  1  0  0  0  0
 21 23  2  0  0  0  0
 21 24  2  0  0  0  0
 22 45  1  0  0  0  0
 22 46  1  0  0  0  0
 25 47  1  0  0  0  0
 27 28  1  0  0  0  0
 27 48  1  0  0  0  0
 28 29  1  0  0  0  0
 29 30  1  0  0  0  0
 30 49  1  0  0  0  0
 30 50  1  0  0  0  0
 30 51  1  0  0  0  0
M  END
$$$$
