CHEMBL302281
 OpenBabel04072215363D

 49 52  0  0  0  0  0  0  0  0999 V2000
    2.8210    1.4276    0.4016 C   0  0  0  0  0  0  0  0  0  0  0  0
    2.4487    0.0045   -0.0868 C   0  0  0  0  0  0  0  0  0  0  0  0
    0.9104   -0.0199   -0.2302 C   0  0  0  0  0  0  0  0  0  0  0  0
    3.1083   -0.1886   -1.4653 C   0  0  0  0  0  0  0  0  0  0  0  0
    2.9006   -1.0476    0.8519 N   0  0  0  0  0  0  0  0  0  0  0  0
    3.6292   -0.8471    2.0011 C   0  0  0  0  0  0  0  0  0  0  0  0
    3.8005   -2.0561    2.6569 C   0  0  0  0  0  0  0  0  0  0  0  0
    4.4961   -2.1427    3.9382 C   0  0  0  0  0  0  0  0  0  0  0  0
    4.4184   -1.0926    4.8640 C   0  0  0  0  0  0  0  0  0  0  0  0
    5.0051   -1.2063    6.1247 C   0  0  0  0  0  0  0  0  0  0  0  0
    5.5939   -2.4101    6.5157 C   0  0  0  0  0  0  0  0  0  0  0  0
    6.0728   -2.6679    7.7795 O   0  0  0  0  0  0  0  0  0  0  0  0
    5.4865   -2.0484    8.8610 C   0  0  0  0  0  0  0  0  0  0  0  0
    4.1174   -1.7738    8.9646 C   0  0  0  0  0  0  0  0  0  0  0  0
    3.6321   -1.0505   10.0538 C   0  0  0  0  0  0  0  0  0  0  0  0
    4.4975   -0.6710   11.0788 C   0  0  0  0  0  0  0  0  0  0  0  0
    5.8454   -1.0266   11.0210 C   0  0  0  0  0  0  0  0  0  0  0  0
    6.3401   -1.7153    9.9134 C   0  0  0  0  0  0  0  0  0  0  0  0
    5.7514   -3.4273    5.5777 C   0  0  0  0  0  0  0  0  0  0  0  0
    5.2361   -3.2783    4.2870 C   0  0  0  0  0  0  0  0  0  0  0  0
    3.1582   -3.0563    1.8503 C   0  0  0  0  0  0  0  0  0  0  0  0
    2.9107   -4.4433    1.9187 C   0  0  0  0  0  0  0  0  0  0  0  0
    3.2559   -5.2683    2.9829 N   0  0  0  0  0  0  0  0  0  0  0  0
    2.2717   -5.0488    0.8973 N   0  0  0  0  0  0  0  0  0  0  0  0
    1.8717   -4.2986   -0.1356 C   0  0  0  0  0  0  0  0  0  0  0  0
    2.0033   -2.9782   -0.2954 N   0  0  0  0  0  0  0  0  0  0  0  0
    2.6506   -2.4009    0.7293 C   0  0  0  0  0  0  0  0  0  0  0  0
    2.4740    2.1918   -0.3037 H   0  0  0  0  0  0  0  0  0  0  0  0
    3.9056    1.5494    0.4991 H   0  0  0  0  0  0  0  0  0  0  0  0
    2.3646    1.6511    1.3730 H   0  0  0  0  0  0  0  0  0  0  0  0
    0.5658    0.7821   -0.8936 H   0  0  0  0  0  0  0  0  0  0  0  0
    0.4212    0.1179    0.7419 H   0  0  0  0  0  0  0  0  0  0  0  0
    0.5407   -0.9583   -0.6536 H   0  0  0  0  0  0  0  0  0  0  0  0
    2.8034    0.6023   -2.1598 H   0  0  0  0  0  0  0  0  0  0  0  0
    2.8363   -1.1424   -1.9275 H   0  0  0  0  0  0  0  0  0  0  0  0
    4.2003   -0.1611   -1.3852 H   0  0  0  0  0  0  0  0  0  0  0  0
    3.9691    0.1400    2.2833 H   0  0  0  0  0  0  0  0  0  0  0  0
    3.8812   -0.1771    4.6298 H   0  0  0  0  0  0  0  0  0  0  0  0
    4.9488   -0.3611    6.8050 H   0  0  0  0  0  0  0  0  0  0  0  0
    3.4265   -2.0798    8.1852 H   0  0  0  0  0  0  0  0  0  0  0  0
    2.5801   -0.7818   10.0993 H   0  0  0  0  0  0  0  0  0  0  0  0
    4.1196   -0.1047   11.9254 H   0  0  0  0  0  0  0  0  0  0  0  0
    6.5143   -0.7550   11.8335 H   0  0  0  0  0  0  0  0  0  0  0  0
    7.3925   -1.9800    9.8627 H   0  0  0  0  0  0  0  0  0  0  0  0
    6.2629   -4.3465    5.8507 H   0  0  0  0  0  0  0  0  0  0  0  0
    5.4029   -4.0763    3.5675 H   0  0  0  0  0  0  0  0  0  0  0  0
    3.1804   -4.8155    3.8844 H   0  0  0  0  0  0  0  0  0  0  0  0
    2.7678   -6.1519    2.8996 H   0  0  0  0  0  0  0  0  0  0  0  0
    1.3685   -4.8314   -0.9372 H   0  0  0  0  0  0  0  0  0  0  0  0
  1  2  1  0  0  0  0
  1 28  1  0  0  0  0
  1 29  1  0  0  0  0
  1 30  1  0  0  0  0
  2  3  1  0  0  0  0
  2  4  1  0  0  0  0
  2  5  1  0  0  0  0
  3 31  1  0  0  0  0
  3 32  1  0  0  0  0
  3 33  1  0  0  0  0
  4 34  1  0  0  0  0
  4 35  1  0  0  0  0
  4 36  1  0  0  0  0
  5  6  1  0  0  0  0
  5 27  1  0  0  0  0
  6  7  2  0  0  0  0
  6 37  1  0  0  0  0
  7  8  1  0  0  0  0
  7 21  1  0  0  0  0
  8  9  1  0  0  0  0
  8 20  2  0  0  0  0
  9 10  2  0  0  0  0
  9 38  1  0  0  0  0
 10 11  1  0  0  0  0
 10 39  1  0  0  0  0
 11 12  1  0  0  0  0
 11 19  2  0  0  0  0
 12 13  1  0  0  0  0
 13 14  1  0  0  0  0
 13 18  2  0  0  0  0
 14 15  2  0  0  0  0
 14 40  1  0  0  0  0
 15 16  1  0  0  0  0
 15 41  1  0  0  0  0
 16 17  2  0  0  0  0
 16 42  1  0  0  0  0
 17 18  1  0  0  0  0
 17 43  1  0  0  0  0
 18 44  1  0  0  0  0
 19 20  1  0  0  0  0
 19 45  1  0  0  0  0
 20 46  1  0  0  0  0
 21 22  1  0  0  0  0
 21 27  2  0  0  0  0
 22 23  1  0  0  0  0
 22 24  2  0  0  0  0
 23 47  1  0  0  0  0
 23 48  1  0  0  0  0
 24 25  1  0  0  0  0
 25 26  2  0  0  0  0
 25 49  1  0  0  0  0
 26 27  1  0  0  0  0
M  END
$$$$
