CHEMBL3740721
 OpenBabel04072215373D

 62 66  0  0  0  0  0  0  0  0999 V2000
    4.9462   -6.2881    3.1758 C   0  0  0  0  0  0  0  0  0  0  0  0
    4.0759   -5.8551    1.6818 S   0  0  0  0  0  0  0  0  0  0  0  0
    4.9794   -6.0503    0.5607 O   0  0  0  0  0  0  0  0  0  0  0  0
    2.8109   -6.5738    1.7063 O   0  0  0  0  0  0  0  0  0  0  0  0
    3.6980   -4.1090    1.8678 C   0  0  0  0  0  0  0  0  0  0  0  0
    4.9336   -3.3059    2.1737 C   0  0  0  0  0  0  0  0  0  0  0  0
    5.0312   -2.5910    3.3729 C   0  0  0  0  0  0  0  0  0  0  0  0
    6.1867   -1.8735    3.6680 C   0  0  0  0  0  0  0  0  0  0  0  0
    7.2541   -1.8620    2.7675 C   0  0  0  0  0  0  0  0  0  0  0  0
    7.1821   -2.5378    1.5470 C   0  0  0  0  0  0  0  0  0  0  0  0
    8.2262   -2.5894    0.6169 N   0  0  0  0  0  0  0  0  0  0  0  0
    9.4288   -1.8973    0.5105 C   0  0  0  0  0  0  0  0  0  0  0  0
    9.9958   -1.9298   -0.7058 N   0  0  0  0  0  0  0  0  0  0  0  0
   11.0931   -1.1761   -0.8906 C   0  0  0  0  0  0  0  0  0  0  0  0
   11.6615   -0.4150    0.0969 C   0  0  0  0  0  0  0  0  0  0  0  0
   11.0665   -0.5144    1.3342 C   0  0  0  0  0  0  0  0  0  0  0  0
   11.5179    0.1424    2.4625 O   0  0  0  0  0  0  0  0  0  0  0  0
   12.8412    0.4980    2.5046 C   0  0  0  0  0  0  0  0  0  0  0  0
   13.1436    1.8286    2.7810 C   0  0  0  0  0  0  0  0  0  0  0  0
   14.4612    2.2693    2.6397 C   0  0  0  0  0  0  0  0  0  0  0  0
   15.4861    1.3543    2.3273 C   0  0  0  0  0  0  0  0  0  0  0  0
   16.8415    1.6940    2.2081 C   0  0  0  0  0  0  0  0  0  0  0  0
   17.5142    1.1251    0.8903 C   0  0  0  0  0  0  0  0  0  0  0  0
   16.8277    0.8097   -0.0762 O   0  0  0  0  0  0  0  0  0  0  0  0
   18.9071    1.0068    0.9573 N   0  0  0  0  0  0  0  0  0  0  0  0
   19.8036    0.3528    0.0774 C   0  0  0  0  0  0  0  0  0  0  0  0
   19.4331   -0.3820   -1.0529 C   0  0  0  0  0  0  0  0  0  0  0  0
   20.4067   -0.9961   -1.8647 C   0  0  0  0  0  0  0  0  0  0  0  0
   21.7612   -0.8979   -1.5489 C   0  0  0  0  0  0  0  0  0  0  0  0
   22.1450   -0.1969   -0.4135 C   0  0  0  0  0  0  0  0  0  0  0  0
   21.1839    0.4121    0.3875 C   0  0  0  0  0  0  0  0  0  0  0  0
   17.5278    1.2365    3.3154 C   0  0  0  0  0  0  0  0  0  0  0  0
   17.3030   -0.0920    3.6698 C   0  0  0  0  0  0  0  0  0  0  0  0
   16.2068   -0.7716    3.1104 C   0  0  0  0  0  0  0  0  0  0  0  0
   15.1902    0.0033    2.5320 C   0  0  0  0  0  0  0  0  0  0  0  0
   13.8673   -0.4436    2.4202 C   0  0  0  0  0  0  0  0  0  0  0  0
    9.9466   -1.2251    1.5444 N   0  0  0  0  0  0  0  0  0  0  0  0
    6.0013   -3.2401    1.2625 C   0  0  0  0  0  0  0  0  0  0  0  0
    5.1821   -7.3552    3.1361 H   0  0  0  0  0  0  0  0  0  0  0  0
    4.2989   -6.0875    4.0325 H   0  0  0  0  0  0  0  0  0  0  0  0
    5.8749   -5.7190    3.2502 H   0  0  0  0  0  0  0  0  0  0  0  0
    2.9680   -4.0366    2.6816 H   0  0  0  0  0  0  0  0  0  0  0  0
    3.2238   -3.7653    0.9453 H   0  0  0  0  0  0  0  0  0  0  0  0
    4.2130   -2.5821    4.0890 H   0  0  0  0  0  0  0  0  0  0  0  0
    6.2713   -1.3246    4.6029 H   0  0  0  0  0  0  0  0  0  0  0  0
    8.1458   -1.3110    3.0500 H   0  0  0  0  0  0  0  0  0  0  0  0
    8.0261   -3.0245   -0.2728 H   0  0  0  0  0  0  0  0  0  0  0  0
   11.5099   -1.1973   -1.8933 H   0  0  0  0  0  0  0  0  0  0  0  0
   12.5253    0.2025   -0.1043 H   0  0  0  0  0  0  0  0  0  0  0  0
   12.3612    2.5136    3.0977 H   0  0  0  0  0  0  0  0  0  0  0  0
   14.6983    3.3102    2.8484 H   0  0  0  0  0  0  0  0  0  0  0  0
   19.3520    1.3998    1.7681 H   0  0  0  0  0  0  0  0  0  0  0  0
   18.3882   -0.5044   -1.3309 H   0  0  0  0  0  0  0  0  0  0  0  0
   20.1033   -1.5594   -2.7448 H   0  0  0  0  0  0  0  0  0  0  0  0
   22.5098   -1.3641   -2.1850 H   0  0  0  0  0  0  0  0  0  0  0  0
   23.1994   -0.1208   -0.1511 H   0  0  0  0  0  0  0  0  0  0  0  0
   21.5112    0.9370    1.2798 H   0  0  0  0  0  0  0  0  0  0  0  0
   18.2178    1.8837    3.8429 H   0  0  0  0  0  0  0  0  0  0  0  0
   17.9249   -0.5720    4.4179 H   0  0  0  0  0  0  0  0  0  0  0  0
   16.0326   -1.8116    3.3647 H   0  0  0  0  0  0  0  0  0  0  0  0
   13.6345   -1.5040    2.4036 H   0  0  0  0  0  0  0  0  0  0  0  0
    5.9212   -3.7558    0.3058 H   0  0  0  0  0  0  0  0  0  0  0  0
  1  2  1  0  0  0  0
  1 39  1  0  0  0  0
  1 40  1  0  0  0  0
  1 41  1  0  0  0  0
  2  3  2  0  0  0  0
  2  4  2  0  0  0  0
  2  5  1  0  0  0  0
  5  6  1  0  0  0  0
  5 42  1  0  0  0  0
  5 43  1  0  0  0  0
  6  7  1  0  0  0  0
  6 38  2  0  0  0  0
  7  8  2  0  0  0  0
  7 44  1  0  0  0  0
  8  9  1  0  0  0  0
  8 45  1  0  0  0  0
  9 10  2  0  0  0  0
  9 46  1  0  0  0  0
 10 11  1  0  0  0  0
 10 38  1  0  0  0  0
 11 12  1  0  0  0  0
 11 47  1  0  0  0  0
 12 13  1  0  0  0  0
 12 37  2  0  0  0  0
 13 14  2  0  0  0  0
 14 15  1  0  0  0  0
 14 48  1  0  0  0  0
 15 16  2  0  0  0  0
 15 49  1  0  0  0  0
 16 17  1  0  0  0  0
 16 37  1  0  0  0  0
 17 18  1  0  0  0  0
 18 19  1  0  0  0  0
 18 36  2  0  0  0  0
 19 20  2  0  0  0  0
 19 50  1  0  0  0  0
 20 21  1  0  0  0  0
 20 51  1  0  0  0  0
 21 22  1  0  0  0  0
 21 35  2  0  0  0  0
 22 23  1  0  0  0  0
 22 32  2  0  0  0  0
 23 24  2  0  0  0  0
 23 25  1  0  0  0  0
 25 26  1  0  0  0  0
 25 52  1  0  0  0  0
 26 27  1  0  0  0  0
 26 31  2  0  0  0  0
 27 28  2  0  0  0  0
 27 53  1  0  0  0  0
 28 29  1  0  0  0  0
 28 54  1  0  0  0  0
 29 30  2  0  0  0  0
 29 55  1  0  0  0  0
 30 31  1  0  0  0  0
 30 56  1  0  0  0  0
 31 57  1  0  0  0  0
 32 33  1  0  0  0  0
 32 58  1  0  0  0  0
 33 34  2  0  0  0  0
 33 59  1  0  0  0  0
 34 35  1  0  0  0  0
 34 60  1  0  0  0  0
 35 36  1  0  0  0  0
 36 61  1  0  0  0  0
 38 62  1  0  0  0  0
M  END
$$$$
