CHEMBL3422066
 OpenBabel04072215363D

 74 79  0  0  0  0  0  0  0  0999 V2000
    2.7167    1.0564    0.6792 O   0  0  0  0  0  0  0  0  0  0  0  0
    2.2914    0.0228    0.1568 C   0  0  0  0  0  0  0  0  0  0  0  0
    0.7876   -0.1941    0.0426 C   0  0  0  0  0  0  0  0  0  0  0  0
    0.1293   -0.2795   -1.3879 C   0  0  0  0  0  0  0  0  0  0  0  0
    0.7443   -1.4648   -2.0607 N   0  0  0  0  0  0  0  0  0  0  0  0
    0.9235   -1.5059   -3.5230 C   0  0  0  0  0  0  0  0  0  0  0  0
   -0.2483   -2.1423   -4.2864 C   0  0  0  0  0  0  0  0  0  0  0  0
   -0.5062   -3.4669   -3.8042 O   0  0  0  0  0  0  0  0  0  0  0  0
   -0.7981   -3.4339   -2.4008 C   0  0  0  0  0  0  0  0  0  0  0  0
    0.3661   -2.8206   -1.6090 C   0  0  0  0  0  0  0  0  0  0  0  0
    0.3711    1.0757   -2.1308 C   0  0  0  0  0  0  0  0  0  0  0  0
   -0.5303    1.3289   -3.3537 C   0  0  0  0  0  0  0  0  0  0  0  0
   -2.0157    1.2082   -3.0515 C   0  0  0  0  0  0  0  0  0  0  0  0
   -2.3660   -0.0422   -2.2575 C   0  0  0  0  0  0  0  0  0  0  0  0
   -1.4140   -0.3158   -1.0964 C   0  0  0  0  0  0  0  0  0  0  0  0
    3.0677   -1.0194   -0.2971 N   0  0  0  0  0  0  0  0  0  0  0  0
    4.4786   -1.0989   -0.2394 C   0  0  0  0  0  0  0  0  0  0  0  0
    5.2655   -0.3271    0.6185 C   0  0  0  0  0  0  0  0  0  0  0  0
    6.6617   -0.3720    0.5966 C   0  0  0  0  0  0  0  0  0  0  0  0
    7.2594   -1.2448   -0.3220 C   0  0  0  0  0  0  0  0  0  0  0  0
    8.5706   -1.5194   -0.6021 N   0  0  0  0  0  0  0  0  0  0  0  0
    8.7472   -2.4629   -1.5367 N   0  0  0  0  0  0  0  0  0  0  0  0
    7.4990   -2.7949   -1.9150 C   0  0  0  0  0  0  0  0  0  0  0  0
    7.2693   -3.7686   -2.9789 C   0  0  0  0  0  0  0  0  0  0  0  0
    8.1709   -4.8111   -3.2070 C   0  0  0  0  0  0  0  0  0  0  0  0
    7.9525   -5.7280   -4.2437 C   0  0  0  0  0  0  0  0  0  0  0  0
    6.8414   -5.6149   -5.0883 C   0  0  0  0  0  0  0  0  0  0  0  0
    6.6034   -6.4691   -6.1419 N   0  0  0  0  0  0  0  0  0  0  0  0
    7.0381   -7.8692   -6.1558 C   0  0  0  0  0  0  0  0  0  0  0  0
    8.1289   -8.1103   -7.2083 C   0  0  0  0  0  0  0  0  0  0  0  0
    7.7424   -7.6202   -8.5031 O   0  0  0  0  0  0  0  0  0  0  0  0
    7.4887   -6.2079   -8.4381 C   0  0  0  0  0  0  0  0  0  0  0  0
    6.3361   -5.8881   -7.4739 C   0  0  0  0  0  0  0  0  0  0  0  0
    5.9409   -4.5746   -4.8343 C   0  0  0  0  0  0  0  0  0  0  0  0
    6.1491   -3.6621   -3.8050 C   0  0  0  0  0  0  0  0  0  0  0  0
    6.5216   -2.0651   -1.1622 C   0  0  0  0  0  0  0  0  0  0  0  0
    5.1083   -2.0056   -1.1005 C   0  0  0  0  0  0  0  0  0  0  0  0
    0.3337    0.6390    0.6011 H   0  0  0  0  0  0  0  0  0  0  0  0
    0.5425   -1.0822    0.6374 H   0  0  0  0  0  0  0  0  0  0  0  0
    1.7975   -2.1447   -3.7096 H   0  0  0  0  0  0  0  0  0  0  0  0
    1.2240   -0.5486   -3.9483 H   0  0  0  0  0  0  0  0  0  0  0  0
   -0.0241   -2.2033   -5.3527 H   0  0  0  0  0  0  0  0  0  0  0  0
   -1.1649   -1.5572   -4.2099 H   0  0  0  0  0  0  0  0  0  0  0  0
   -0.9721   -4.4626   -2.0713 H   0  0  0  0  0  0  0  0  0  0  0  0
   -1.7284   -2.8843   -2.2465 H   0  0  0  0  0  0  0  0  0  0  0  0
    1.2482   -3.4553   -1.7870 H   0  0  0  0  0  0  0  0  0  0  0  0
    0.1880   -2.8762   -0.5322 H   0  0  0  0  0  0  0  0  0  0  0  0
    1.4244    1.1770   -2.4197 H   0  0  0  0  0  0  0  0  0  0  0  0
    0.1839    1.9000   -1.4269 H   0  0  0  0  0  0  0  0  0  0  0  0
   -0.3124    0.6513   -4.1787 H   0  0  0  0  0  0  0  0  0  0  0  0
   -0.3209    2.3281   -3.7538 H   0  0  0  0  0  0  0  0  0  0  0  0
   -2.5755    1.2016   -3.9964 H   0  0  0  0  0  0  0  0  0  0  0  0
   -2.3481    2.0981   -2.5047 H   0  0  0  0  0  0  0  0  0  0  0  0
   -2.4281   -0.9050   -2.9154 H   0  0  0  0  0  0  0  0  0  0  0  0
   -3.3851    0.0717   -1.8665 H   0  0  0  0  0  0  0  0  0  0  0  0
   -1.6995   -1.2463   -0.5946 H   0  0  0  0  0  0  0  0  0  0  0  0
   -1.6348    0.4746   -0.3618 H   0  0  0  0  0  0  0  0  0  0  0  0
    2.5877   -1.6819   -0.9004 H   0  0  0  0  0  0  0  0  0  0  0  0
    4.8018    0.3236    1.3597 H   0  0  0  0  0  0  0  0  0  0  0  0
    7.2574    0.2520    1.2556 H   0  0  0  0  0  0  0  0  0  0  0  0
    9.3913   -1.0954   -0.1820 H   0  0  0  0  0  0  0  0  0  0  0  0
    9.0581   -4.9127   -2.5855 H   0  0  0  0  0  0  0  0  0  0  0  0
    8.6906   -6.5061   -4.4000 H   0  0  0  0  0  0  0  0  0  0  0  0
    6.1612   -8.4740   -6.4137 H   0  0  0  0  0  0  0  0  0  0  0  0
    7.3736   -8.2144   -5.1714 H   0  0  0  0  0  0  0  0  0  0  0  0
    8.3074   -9.1860   -7.3066 H   0  0  0  0  0  0  0  0  0  0  0  0
    9.0751   -7.6400   -6.9181 H   0  0  0  0  0  0  0  0  0  0  0  0
    7.2292   -5.8694   -9.4463 H   0  0  0  0  0  0  0  0  0  0  0  0
    8.4105   -5.6932   -8.1408 H   0  0  0  0  0  0  0  0  0  0  0  0
    5.4071   -6.3258   -7.8524 H   0  0  0  0  0  0  0  0  0  0  0  0
    6.2008   -4.7995   -7.4452 H   0  0  0  0  0  0  0  0  0  0  0  0
    5.0411   -4.4750   -5.4366 H   0  0  0  0  0  0  0  0  0  0  0  0
    5.4268   -2.8643   -3.6835 H   0  0  0  0  0  0  0  0  0  0  0  0
    4.5113   -2.6414   -1.7427 H   0  0  0  0  0  0  0  0  0  0  0  0
  1  2  2  0  0  0  0
  2  3  1  0  0  0  0
  2 16  1  0  0  0  0
  3  4  1  0  0  0  0
  3 38  1  0  0  0  0
  3 39  1  0  0  0  0
  4  5  1  0  0  0  0
  4 11  1  0  0  0  0
  4 15  1  0  0  0  0
  5  6  1  0  0  0  0
  5 10  1  0  0  0  0
  6  7  1  0  0  0  0
  6 40  1  0  0  0  0
  6 41  1  0  0  0  0
  7  8  1  0  0  0  0
  7 42  1  0  0  0  0
  7 43  1  0  0  0  0
  8  9  1  0  0  0  0
  9 10  1  0  0  0  0
  9 44  1  0  0  0  0
  9 45  1  0  0  0  0
 10 46  1  0  0  0  0
 10 47  1  0  0  0  0
 11 12  1  0  0  0  0
 11 48  1  0  0  0  0
 11 49  1  0  0  0  0
 12 13  1  0  0  0  0
 12 50  1  0  0  0  0
 12 51  1  0  0  0  0
 13 14  1  0  0  0  0
 13 52  1  0  0  0  0
 13 53  1  0  0  0  0
 14 15  1  0  0  0  0
 14 54  1  0  0  0  0
 14 55  1  0  0  0  0
 15 56  1  0  0  0  0
 15 57  1  0  0  0  0
 16 17  1  0  0  0  0
 16 58  1  0  0  0  0
 17 18  1  0  0  0  0
 17 37  2  0  0  0  0
 18 19  2  0  0  0  0
 18 59  1  0  0  0  0
 19 20  1  0  0  0  0
 19 60  1  0  0  0  0
 20 21  1  0  0  0  0
 20 36  2  0  0  0  0
 21 22  1  0  0  0  0
 21 61  1  0  0  0  0
 22 23  2  0  0  0  0
 23 24  1  0  0  0  0
 23 36  1  0  0  0  0
 24 25  1  0  0  0  0
 24 35  2  0  0  0  0
 25 26  2  0  0  0  0
 25 62  1  0  0  0  0
 26 27  1  0  0  0  0
 26 63  1  0  0  0  0
 27 28  1  0  0  0  0
 27 34  2  0  0  0  0
 28 29  1  0  0  0  0
 28 33  1  0  0  0  0
 29 30  1  0  0  0  0
 29 64  1  0  0  0  0
 29 65  1  0  0  0  0
 30 31  1  0  0  0  0
 30 66  1  0  0  0  0
 30 67  1  0  0  0  0
 31 32  1  0  0  0  0
 32 33  1  0  0  0  0
 32 68  1  0  0  0  0
 32 69  1  0  0  0  0
 33 70  1  0  0  0  0
 33 71  1  0  0  0  0
 34 35  1  0  0  0  0
 34 72  1  0  0  0  0
 35 73  1  0  0  0  0
 36 37  1  0  0  0  0
 37 74  1  0  0  0  0
M  END
$$$$
