CHEMBL78160
 OpenBabel04072215383D

 43 46  0  0  1  0  0  0  0  0999 V2000
    0.9438   -0.4203    0.0692 C   0  0  0  0  0  0  0  0  0  0  0  0
    2.4013    0.0525   -0.0470 C   0  0  3  0  0  0  0  0  0  0  0  0
    2.5309    1.1500   -1.1054 C   0  0  0  0  0  0  0  0  0  0  0  0
    1.8041    2.3466   -1.0339 C   0  0  0  0  0  0  0  0  0  0  0  0
    1.9773    3.3037   -2.0221 C   0  0  0  0  0  0  0  0  0  0  0  0
    2.7973    3.1485   -3.0816 N   0  0  0  0  0  0  0  0  0  0  0  0
    3.4874    1.9913   -3.1418 C   0  0  0  0  0  0  0  0  0  0  0  0
    3.3934    0.9803   -2.1950 C   0  0  0  0  0  0  0  0  0  0  0  0
    2.9373    0.4183    1.3357 C   0  0  0  0  0  0  0  0  0  0  0  0
    2.7726    1.7054    1.7007 N   0  0  0  0  0  0  0  0  0  0  0  0
    3.1283    2.1318    2.9396 N   0  0  0  0  0  0  0  0  0  0  0  0
    3.6194    1.2774    3.8593 C   0  0  0  0  0  0  0  0  0  0  0  0
    3.9900    1.7885    5.1383 N   0  0  0  0  0  0  0  0  0  0  0  0
    3.6478    3.0963    5.5574 C   0  0  0  0  0  0  0  0  0  0  0  0
    2.3194    3.5436    5.4638 C   0  0  0  0  0  0  0  0  0  0  0  0
    1.9834    4.8651    5.7554 C   0  0  0  0  0  0  0  0  0  0  0  0
    2.9756    5.7497    6.1621 C   0  0  0  0  0  0  0  0  0  0  0  0
    2.5805    7.3978    6.4554 Cl  0  0  0  0  0  0  0  0  0  0  0  0
    4.2909    5.3128    6.3144 C   0  0  0  0  0  0  0  0  0  0  0  0
    4.6254    3.9850    6.0204 C   0  0  0  0  0  0  0  0  0  0  0  0
    3.7726   -0.0892    3.5578 C   0  0  0  0  0  0  0  0  0  0  0  0
    4.2050   -1.0417    4.5139 C   0  0  0  0  0  0  0  0  0  0  0  0
    4.3578   -2.3888    4.1895 C   0  0  0  0  0  0  0  0  0  0  0  0
    4.0895   -2.8176    2.8999 C   0  0  0  0  0  0  0  0  0  0  0  0
    3.6343   -1.9062    1.9462 C   0  0  0  0  0  0  0  0  0  0  0  0
    3.4479   -0.5331    2.2497 C   0  0  0  0  0  0  0  0  0  0  0  0
    0.5613   -0.7503   -0.9032 H   0  0  0  0  0  0  0  0  0  0  0  0
    0.2818    0.3725    0.4363 H   0  0  0  0  0  0  0  0  0  0  0  0
    0.8531   -1.2621    0.7648 H   0  0  0  0  0  0  0  0  0  0  0  0
    2.9863   -0.7918   -0.4274 H   0  0  0  0  0  0  0  0  0  0  0  0
    1.1308    2.5545   -0.2077 H   0  0  0  0  0  0  0  0  0  0  0  0
    1.4463    4.2503   -1.9784 H   0  0  0  0  0  0  0  0  0  0  0  0
    4.1435    1.8919   -4.0015 H   0  0  0  0  0  0  0  0  0  0  0  0
    3.9860    0.0802   -2.3180 H   0  0  0  0  0  0  0  0  0  0  0  0
    4.9698    1.5748    5.2962 H   0  0  0  0  0  0  0  0  0  0  0  0
    1.5424    2.8633    5.1221 H   0  0  0  0  0  0  0  0  0  0  0  0
    0.9562    5.1958    5.6333 H   0  0  0  0  0  0  0  0  0  0  0  0
    5.0642    6.0048    6.6337 H   0  0  0  0  0  0  0  0  0  0  0  0
    5.6612    3.6715    6.1144 H   0  0  0  0  0  0  0  0  0  0  0  0
    4.3986   -0.7406    5.5417 H   0  0  0  0  0  0  0  0  0  0  0  0
    4.6796   -3.0999    4.9464 H   0  0  0  0  0  0  0  0  0  0  0  0
    4.2182   -3.8644    2.6345 H   0  0  0  0  0  0  0  0  0  0  0  0
    3.4224   -2.2996    0.9551 H   0  0  0  0  0  0  0  0  0  0  0  0
  1  2  1  0  0  0  0
  1 27  1  0  0  0  0
  1 28  1  0  0  0  0
  1 29  1  0  0  0  0
  2  3  1  0  0  0  0
  2  9  1  0  0  0  0
  2 30  1  0  0  0  0
  3  4  1  0  0  0  0
  3  8  2  0  0  0  0
  4  5  2  0  0  0  0
  4 31  1  0  0  0  0
  5  6  1  0  0  0  0
  5 32  1  0  0  0  0
  6  7  2  0  0  0  0
  7  8  1  0  0  0  0
  7 33  1  0  0  0  0
  8 34  1  0  0  0  0
  9 10  1  0  0  0  0
  9 26  2  0  0  0  0
 10 11  2  0  0  0  0
 11 12  1  0  0  0  0
 12 13  1  0  0  0  0
 12 21  2  0  0  0  0
 13 14  1  0  0  0  0
 13 35  1  0  0  0  0
 14 15  1  0  0  0  0
 14 20  2  0  0  0  0
 15 16  2  0  0  0  0
 15 36  1  0  0  0  0
 16 17  1  0  0  0  0
 16 37  1  0  0  0  0
 17 18  1  0  0  0  0
 17 19  2  0  0  0  0
 19 20  1  0  0  0  0
 19 38  1  0  0  0  0
 20 39  1  0  0  0  0
 21 22  1  0  0  0  0
 21 26  1  0  0  0  0
 22 23  2  0  0  0  0
 22 40  1  0  0  0  0
 23 24  1  0  0  0  0
 23 41  1  0  0  0  0
 24 25  2  0  0  0  0
 24 42  1  0  0  0  0
 25 26  1  0  0  0  0
 25 43  1  0  0  0  0
M  END
$$$$
