CHEMBL1681948
 OpenBabel04072215363D

 49 51  0  0  0  0  0  0  0  0999 V2000
    9.5684    2.7716    7.2528 C   0  0  0  0  0  0  0  0  0  0  0  0
    8.9634    3.0454    5.9892 O   0  0  0  0  0  0  0  0  0  0  0  0
    7.9096    2.1403    5.8174 N   0  0  0  0  0  0  0  0  0  0  0  0
    7.3044    2.3685    4.6928 C   0  0  0  0  0  0  0  0  0  0  0  0
    6.1439    1.5577    4.2935 C   0  0  0  0  0  0  0  0  0  0  0  0
    5.3400    0.9184    5.2326 C   0  0  0  0  0  0  0  0  0  0  0  0
    5.4893    1.1011    6.6072 N   0  0  0  0  0  0  0  0  0  0  0  0
    4.2782    0.1678    4.8933 N   0  0  0  0  0  0  0  0  0  0  0  0
    4.0356    0.0329    3.5868 C   0  0  0  0  0  0  0  0  0  0  0  0
    4.7584    0.5695    2.6023 N   0  0  0  0  0  0  0  0  0  0  0  0
    5.7932    1.3611    2.9711 C   0  0  0  0  0  0  0  0  0  0  0  0
    6.5446    1.9631    1.9557 O   0  0  0  0  0  0  0  0  0  0  0  0
    5.9131    2.1171    0.7329 C   0  0  0  0  0  0  0  0  0  0  0  0
    4.6259    2.6352    0.6433 C   0  0  0  0  0  0  0  0  0  0  0  0
    3.9627    2.6770   -0.5798 C   0  0  0  0  0  0  0  0  0  0  0  0
    4.5728    2.2218   -1.7542 C   0  0  0  0  0  0  0  0  0  0  0  0
    3.8567    2.1401   -2.9844 N   0  0  0  0  0  0  0  0  0  0  0  0
    2.4693    2.1491   -3.0965 C   0  0  0  0  0  0  0  0  0  0  0  0
    1.7054    2.2813   -2.1423 O   0  0  0  0  0  0  0  0  0  0  0  0
    2.0255    1.9523   -4.3873 N   0  0  0  0  0  0  0  0  0  0  0  0
    0.6284    1.8974   -4.6517 C   0  0  0  0  0  0  0  0  0  0  0  0
   -0.2305    2.8762   -4.1312 C   0  0  0  0  0  0  0  0  0  0  0  0
   -1.6076    2.8074   -4.3378 C   0  0  0  0  0  0  0  0  0  0  0  0
   -2.1415    1.7577   -5.0796 C   0  0  0  0  0  0  0  0  0  0  0  0
   -1.2973    0.7841   -5.6112 C   0  0  0  0  0  0  0  0  0  0  0  0
    0.0936    0.8405   -5.4100 C   0  0  0  0  0  0  0  0  0  0  0  0
    0.9522   -0.2781   -5.9279 C   0  0  0  0  0  0  0  0  0  0  0  0
    5.9237    1.8238   -1.6751 C   0  0  0  0  0  0  0  0  0  0  0  0
    6.7829    1.3397   -3.0980 Cl  0  0  0  0  0  0  0  0  0  0  0  0
    6.5914    1.7662   -0.4391 C   0  0  0  0  0  0  0  0  0  0  0  0
   10.4476    3.4072    7.3652 H   0  0  0  0  0  0  0  0  0  0  0  0
    9.8820    1.7236    7.3046 H   0  0  0  0  0  0  0  0  0  0  0  0
    8.8663    2.9888    8.0638 H   0  0  0  0  0  0  0  0  0  0  0  0
    7.6449    3.1633    4.0051 H   0  0  0  0  0  0  0  0  0  0  0  0
    6.4717    1.0905    6.8834 H   0  0  0  0  0  0  0  0  0  0  0  0
    4.9013    0.4450    7.1072 H   0  0  0  0  0  0  0  0  0  0  0  0
    3.1674   -0.5520    3.3027 H   0  0  0  0  0  0  0  0  0  0  0  0
    4.0855    2.9582    1.5304 H   0  0  0  0  0  0  0  0  0  0  0  0
    2.9466    3.0486   -0.5666 H   0  0  0  0  0  0  0  0  0  0  0  0
    4.3947    1.8942   -3.8027 H   0  0  0  0  0  0  0  0  0  0  0  0
    2.6126    1.3535   -4.9438 H   0  0  0  0  0  0  0  0  0  0  0  0
    0.1679    3.7004   -3.5417 H   0  0  0  0  0  0  0  0  0  0  0  0
   -2.2601    3.5626   -3.9085 H   0  0  0  0  0  0  0  0  0  0  0  0
   -3.2168    1.6892   -5.2250 H   0  0  0  0  0  0  0  0  0  0  0  0
   -1.7390   -0.0416   -6.1664 H   0  0  0  0  0  0  0  0  0  0  0  0
    0.3485   -1.0822   -6.3633 H   0  0  0  0  0  0  0  0  0  0  0  0
    1.5324   -0.7186   -5.1108 H   0  0  0  0  0  0  0  0  0  0  0  0
    1.6314    0.0927   -6.7025 H   0  0  0  0  0  0  0  0  0  0  0  0
    7.6163    1.4120   -0.3847 H   0  0  0  0  0  0  0  0  0  0  0  0
  1  2  1  0  0  0  0
  1 31  1  0  0  0  0
  1 32  1  0  0  0  0
  1 33  1  0  0  0  0
  2  3  1  0  0  0  0
  3  4  2  0  0  0  0
  4  5  1  0  0  0  0
  4 34  1  0  0  0  0
  5  6  1  0  0  0  0
  5 11  2  0  0  0  0
  6  7  1  0  0  0  0
  6  8  2  0  0  0  0
  7 35  1  0  0  0  0
  7 36  1  0  0  0  0
  8  9  1  0  0  0  0
  9 10  2  0  0  0  0
  9 37  1  0  0  0  0
 10 11  1  0  0  0  0
 11 12  1  0  0  0  0
 12 13  1  0  0  0  0
 13 14  1  0  0  0  0
 13 30  2  0  0  0  0
 14 15  2  0  0  0  0
 14 38  1  0  0  0  0
 15 16  1  0  0  0  0
 15 39  1  0  0  0  0
 16 17  1  0  0  0  0
 16 28  2  0  0  0  0
 17 18  1  0  0  0  0
 17 40  1  0  0  0  0
 18 19  2  0  0  0  0
 18 20  1  0  0  0  0
 20 21  1  0  0  0  0
 20 41  1  0  0  0  0
 21 22  1  0  0  0  0
 21 26  2  0  0  0  0
 22 23  2  0  0  0  0
 22 42  1  0  0  0  0
 23 24  1  0  0  0  0
 23 43  1  0  0  0  0
 24 25  2  0  0  0  0
 24 44  1  0  0  0  0
 25 26  1  0  0  0  0
 25 45  1  0  0  0  0
 26 27  1  0  0  0  0
 27 46  1  0  0  0  0
 27 47  1  0  0  0  0
 27 48  1  0  0  0  0
 28 29  1  0  0  0  0
 28 30  1  0  0  0  0
 30 49  1  0  0  0  0
M  END
$$$$
