CHEMBL3403515
 OpenBabel04072215363D

 39 42  0  0  0  0  0  0  0  0999 V2000
    1.3988   -0.0738   -0.8282 C   0  0  0  0  0  0  0  0  0  0  0  0
    2.5242    0.0066    0.0384 O   0  0  0  0  0  0  0  0  0  0  0  0
    3.1681   -1.1693    0.3139 C   0  0  0  0  0  0  0  0  0  0  0  0
    2.8220   -2.4339   -0.1839 C   0  0  0  0  0  0  0  0  0  0  0  0
    3.5627   -3.5747    0.1642 C   0  0  0  0  0  0  0  0  0  0  0  0
    4.6517   -3.4365    1.0044 C   0  0  0  0  0  0  0  0  0  0  0  0
    4.9847   -2.1718    1.4976 C   0  0  0  0  0  0  0  0  0  0  0  0
    4.2614   -1.0374    1.1714 C   0  0  0  0  0  0  0  0  0  0  0  0
    6.1556   -2.2777    2.4097 C   0  0  0  0  0  0  0  0  0  0  0  0
    6.6504   -3.6960    2.0882 C   0  0  0  0  0  0  0  0  0  0  0  0
    5.5577   -4.4250    1.4325 N   0  0  0  0  0  0  0  0  0  0  0  0
    5.5974   -5.7968    1.2072 C   0  0  0  0  0  0  0  0  0  0  0  0
    4.4332   -6.4866    1.0288 N   0  0  0  0  0  0  0  0  0  0  0  0
    4.4414   -7.8294    0.8778 C   0  0  0  0  0  0  0  0  0  0  0  0
    3.1088   -8.5112    0.7734 C   0  0  0  0  0  0  0  0  0  0  0  0
    5.5217   -8.6204    0.8479 N   0  0  0  0  0  0  0  0  0  0  0  0
    6.6544   -7.9240    0.9922 C   0  0  0  0  0  0  0  0  0  0  0  0
    7.8878   -8.5139    0.9882 O   0  0  0  0  0  0  0  0  0  0  0  0
    8.8082   -7.5250    1.1517 C   0  0  0  0  0  0  0  0  0  0  0  0
   10.2342   -7.9052    1.1889 C   0  0  0  0  0  0  0  0  0  0  0  0
    8.1806   -6.3092    1.2541 C   0  0  0  0  0  0  0  0  0  0  0  0
    6.7844   -6.5539    1.1740 C   0  0  0  0  0  0  0  0  0  0  0  0
    0.9999    0.9356   -0.9503 H   0  0  0  0  0  0  0  0  0  0  0  0
    0.6126   -0.6955   -0.3917 H   0  0  0  0  0  0  0  0  0  0  0  0
    1.6913   -0.4387   -1.8187 H   0  0  0  0  0  0  0  0  0  0  0  0
    1.9804   -2.5717   -0.8550 H   0  0  0  0  0  0  0  0  0  0  0  0
    3.2895   -4.5423   -0.2420 H   0  0  0  0  0  0  0  0  0  0  0  0
    4.5377   -0.0668    1.5669 H   0  0  0  0  0  0  0  0  0  0  0  0
    5.8363   -2.1990    3.4536 H   0  0  0  0  0  0  0  0  0  0  0  0
    6.9293   -1.5341    2.1985 H   0  0  0  0  0  0  0  0  0  0  0  0
    6.9880   -4.1953    3.0044 H   0  0  0  0  0  0  0  0  0  0  0  0
    7.4997   -3.6068    1.4003 H   0  0  0  0  0  0  0  0  0  0  0  0
    2.2903   -7.7847    0.7837 H   0  0  0  0  0  0  0  0  0  0  0  0
    2.9745   -9.1926    1.6192 H   0  0  0  0  0  0  0  0  0  0  0  0
    3.0506   -9.0860   -0.1557 H   0  0  0  0  0  0  0  0  0  0  0  0
   10.3716   -8.9855    1.1097 H   0  0  0  0  0  0  0  0  0  0  0  0
   10.6826   -7.5667    2.1282 H   0  0  0  0  0  0  0  0  0  0  0  0
   10.7724   -7.4232    0.3662 H   0  0  0  0  0  0  0  0  0  0  0  0
    8.6967   -5.3689    1.3696 H   0  0  0  0  0  0  0  0  0  0  0  0
  1  2  1  0  0  0  0
  1 23  1  0  0  0  0
  1 24  1  0  0  0  0
  1 25  1  0  0  0  0
  2  3  1  0  0  0  0
  3  4  1  0  0  0  0
  3  8  2  0  0  0  0
  4  5  2  0  0  0  0
  4 26  1  0  0  0  0
  5  6  1  0  0  0  0
  5 27  1  0  0  0  0
  6  7  2  0  0  0  0
  6 11  1  0  0  0  0
  7  8  1  0  0  0  0
  7  9  1  0  0  0  0
  8 28  1  0  0  0  0
  9 10  1  0  0  0  0
  9 29  1  0  0  0  0
  9 30  1  0  0  0  0
 10 11  1  0  0  0  0
 10 31  1  0  0  0  0
 10 32  1  0  0  0  0
 11 12  1  0  0  0  0
 12 13  1  0  0  0  0
 12 22  2  0  0  0  0
 13 14  2  0  0  0  0
 14 15  1  0  0  0  0
 14 16  1  0  0  0  0
 15 33  1  0  0  0  0
 15 34  1  0  0  0  0
 15 35  1  0  0  0  0
 16 17  2  0  0  0  0
 17 18  1  0  0  0  0
 17 22  1  0  0  0  0
 18 19  1  0  0  0  0
 19 20  1  0  0  0  0
 19 21  2  0  0  0  0
 20 36  1  0  0  0  0
 20 37  1  0  0  0  0
 20 38  1  0  0  0  0
 21 22  1  0  0  0  0
 21 39  1  0  0  0  0
M  END
$$$$
