CHEMBL4461094
 OpenBabel04072215383D

 50 53  0  0  0  0  0  0  0  0999 V2000
    1.0994   -0.5931    0.3423 O   0  0  0  0  0  0  0  0  0  0  0  0
    2.1906   -0.1215    0.0445 C   0  0  0  0  0  0  0  0  0  0  0  0
    2.8008    0.9261    0.6951 N   0  0  0  0  0  0  0  0  0  0  0  0
    2.2653    1.6482    1.8063 C   0  0  0  0  0  0  0  0  0  0  0  0
    1.1485    1.2234    2.5422 C   0  0  0  0  0  0  0  0  0  0  0  0
    0.6197    2.0018    3.5685 C   0  0  0  0  0  0  0  0  0  0  0  0
    1.2072    3.2293    3.8584 C   0  0  0  0  0  0  0  0  0  0  0  0
    0.6278    4.0714    4.9262 C   0  0  0  0  0  0  0  0  0  0  0  0
    0.3358    3.5761    6.0073 O   0  0  0  0  0  0  0  0  0  0  0  0
    0.5053    5.3983    4.5641 N   0  0  0  0  0  0  0  0  0  0  0  0
    0.7717    6.3412    5.5121 N   0  0  0  0  0  0  0  0  0  0  0  0
    0.9690    7.5389    5.0580 C   0  0  0  0  0  0  0  0  0  0  0  0
    0.7831    8.0651    3.6356 C   0  0  0  0  0  0  0  0  0  0  0  0
    0.1891    7.4972    2.7455 O   0  0  0  0  0  0  0  0  0  0  0  0
    1.5041    9.2334    3.5952 N   0  0  0  0  0  0  0  0  0  0  0  0
    2.2370    9.3780    4.7682 C   0  0  0  0  0  0  0  0  0  0  0  0
    3.4579    9.9996    4.9083 C   0  0  0  0  0  0  0  0  0  0  0  0
    4.1474    9.7859    6.1124 C   0  0  0  0  0  0  0  0  0  0  0  0
    3.5601    9.0599    7.1712 C   0  0  0  0  0  0  0  0  0  0  0  0
    4.5267    8.8037    8.7757 Br  0  0  0  0  0  0  0  0  0  0  0  0
    2.3344    8.4238    7.0134 C   0  0  0  0  0  0  0  0  0  0  0  0
    1.7544    8.5378    5.7689 C   0  0  0  0  0  0  0  0  0  0  0  0
    2.3599    3.6443    3.1744 C   0  0  0  0  0  0  0  0  0  0  0  0
    2.8882    2.8449    2.1537 C   0  0  0  0  0  0  0  0  0  0  0  0
    2.9585   -0.5663   -1.0345 N   0  0  0  0  0  0  0  0  0  0  0  0
    2.5798   -1.5417   -1.9931 C   0  0  0  0  0  0  0  0  0  0  0  0
    1.3315   -2.1594   -2.0200 C   0  0  0  0  0  0  0  0  0  0  0  0
    1.0305   -3.1233   -2.9852 C   0  0  0  0  0  0  0  0  0  0  0  0
    1.9644   -3.4747   -3.9619 C   0  0  0  0  0  0  0  0  0  0  0  0
    1.4790   -4.6912   -5.0827 Cl  0  0  0  0  0  0  0  0  0  0  0  0
    3.2128   -2.8490   -3.9882 C   0  0  0  0  0  0  0  0  0  0  0  0
    4.2681   -3.1065   -5.0322 C   0  0  0  0  0  0  0  0  0  0  0  0
    3.9761   -4.0247   -5.9879 F   0  0  0  0  0  0  0  0  0  0  0  0
    4.5826   -1.9645   -5.7121 F   0  0  0  0  0  0  0  0  0  0  0  0
    5.4409   -3.5226   -4.4723 F   0  0  0  0  0  0  0  0  0  0  0  0
    3.5080   -1.8899   -2.9830 C   0  0  0  0  0  0  0  0  0  0  0  0
    3.6080    1.3335    0.2642 H   0  0  0  0  0  0  0  0  0  0  0  0
    0.6597    0.2767    2.3333 H   0  0  0  0  0  0  0  0  0  0  0  0
   -0.2515    1.6540    4.1211 H   0  0  0  0  0  0  0  0  0  0  0  0
    0.6480    5.6529    3.5872 H   0  0  0  0  0  0  0  0  0  0  0  0
    1.4012    9.9221    2.8646 H   0  0  0  0  0  0  0  0  0  0  0  0
    3.9560   10.4694    4.0658 H   0  0  0  0  0  0  0  0  0  0  0  0
    5.1781   10.1258    6.2014 H   0  0  0  0  0  0  0  0  0  0  0  0
    1.9135    7.7657    7.7661 H   0  0  0  0  0  0  0  0  0  0  0  0
    2.8642    4.5652    3.4419 H   0  0  0  0  0  0  0  0  0  0  0  0
    3.7806    3.1849    1.6343 H   0  0  0  0  0  0  0  0  0  0  0  0
    3.8972   -0.2110   -1.1023 H   0  0  0  0  0  0  0  0  0  0  0  0
    0.5523   -1.9244   -1.3016 H   0  0  0  0  0  0  0  0  0  0  0  0
    0.0501   -3.5949   -2.9628 H   0  0  0  0  0  0  0  0  0  0  0  0
    4.4878   -1.4108   -3.0003 H   0  0  0  0  0  0  0  0  0  0  0  0
  1  2  2  0  0  0  0
  2  3  1  0  0  0  0
  2 25  1  0  0  0  0
  3  4  1  0  0  0  0
  3 37  1  0  0  0  0
  4  5  1  0  0  0  0
  4 24  2  0  0  0  0
  5  6  2  0  0  0  0
  5 38  1  0  0  0  0
  6  7  1  0  0  0  0
  6 39  1  0  0  0  0
  7  8  1  0  0  0  0
  7 23  2  0  0  0  0
  8  9  2  0  0  0  0
  8 10  1  0  0  0  0
 10 11  1  0  0  0  0
 10 40  1  0  0  0  0
 11 12  2  0  0  0  0
 12 13  1  0  0  0  0
 12 22  1  0  0  0  0
 13 14  2  0  0  0  0
 13 15  1  0  0  0  0
 15 16  1  0  0  0  0
 15 41  1  0  0  0  0
 16 17  1  0  0  0  0
 16 22  2  0  0  0  0
 17 18  2  0  0  0  0
 17 42  1  0  0  0  0
 18 19  1  0  0  0  0
 18 43  1  0  0  0  0
 19 20  1  0  0  0  0
 19 21  2  0  0  0  0
 21 22  1  0  0  0  0
 21 44  1  0  0  0  0
 23 24  1  0  0  0  0
 23 45  1  0  0  0  0
 24 46  1  0  0  0  0
 25 26  1  0  0  0  0
 25 47  1  0  0  0  0
 26 27  1  0  0  0  0
 26 36  2  0  0  0  0
 27 28  2  0  0  0  0
 27 48  1  0  0  0  0
 28 29  1  0  0  0  0
 28 49  1  0  0  0  0
 29 30  1  0  0  0  0
 29 31  2  0  0  0  0
 31 32  1  0  0  0  0
 31 36  1  0  0  0  0
 32 33  1  0  0  0  0
 32 34  1  0  0  0  0
 32 35  1  0  0  0  0
 36 50  1  0  0  0  0
M  END
$$$$
