CHEMBL492856
 OpenBabel04072215383D

 55 59  0  0  0  0  0  0  0  0999 V2000
    2.5091   -0.2997    1.4329 O   0  0  0  0  0  0  0  0  0  0  0  0
    2.0283    0.5594    0.7019 C   0  0  0  0  0  0  0  0  0  0  0  0
    0.8164    1.1987    0.8968 N   0  0  0  0  0  0  0  0  0  0  0  0
   -0.1743    0.8205    1.8263 C   0  0  0  0  0  0  0  0  0  0  0  0
   -0.1292   -0.3463    2.6034 C   0  0  0  0  0  0  0  0  0  0  0  0
   -1.1796   -0.6855    3.4668 C   0  0  0  0  0  0  0  0  0  0  0  0
   -2.2962    0.1394    3.5751 C   0  0  0  0  0  0  0  0  0  0  0  0
   -2.3717    1.3137    2.8165 C   0  0  0  0  0  0  0  0  0  0  0  0
   -3.5604    2.2370    2.9201 C   0  0  0  0  0  0  0  0  0  0  0  0
   -4.5343    1.7930    3.7623 F   0  0  0  0  0  0  0  0  0  0  0  0
   -3.2126    3.4746    3.3691 F   0  0  0  0  0  0  0  0  0  0  0  0
   -4.1692    2.4360    1.7178 F   0  0  0  0  0  0  0  0  0  0  0  0
   -1.3091    1.6389    1.9457 C   0  0  0  0  0  0  0  0  0  0  0  0
    2.8297    0.9326   -0.5055 C   0  0  0  0  0  0  0  0  0  0  0  0
    3.1194    2.2782   -0.7592 C   0  0  0  0  0  0  0  0  0  0  0  0
    4.0353    2.6049   -1.7781 C   0  0  0  0  0  0  0  0  0  0  0  0
    4.6704    1.5654   -2.4956 C   0  0  0  0  0  0  0  0  0  0  0  0
    4.3892    0.1942   -2.2417 C   0  0  0  0  0  0  0  0  0  0  0  0
    3.4246   -0.1090   -1.2866 C   0  0  0  0  0  0  0  0  0  0  0  0
    3.0781   -1.5522   -1.0321 C   0  0  0  0  0  0  0  0  0  0  0  0
    3.5210   -2.5653   -2.0988 C   0  0  0  0  0  0  0  0  0  0  0  0
    4.8682   -2.3409   -2.6080 N   0  0  0  0  0  0  0  0  0  0  0  0
    5.4857   -3.2825   -3.5983 C   0  0  0  0  0  0  0  0  0  0  0  0
    5.9165   -4.7468   -3.8599 C   0  0  0  0  0  0  0  0  0  0  0  0
    5.6215   -5.9276   -3.1650 C   0  0  0  0  0  0  0  0  0  0  0  0
    6.1048   -7.1466   -3.6640 C   0  0  0  0  0  0  0  0  0  0  0  0
    6.8519   -7.3050   -4.7774 N   0  0  0  0  0  0  0  0  0  0  0  0
    7.1378   -6.2103   -5.4848 C   0  0  0  0  0  0  0  0  0  0  0  0
    7.9205   -6.3663   -6.6358 C   0  0  0  0  0  0  0  0  0  0  0  0
    8.2719   -5.3059   -7.4516 C   0  0  0  0  0  0  0  0  0  0  0  0
    7.8124   -4.0443   -7.1357 C   0  0  0  0  0  0  0  0  0  0  0  0
    7.0335   -3.8551   -5.9942 C   0  0  0  0  0  0  0  0  0  0  0  0
    6.6871   -4.9186   -5.0965 C   0  0  0  0  0  0  0  0  0  0  0  0
    5.1617   -0.9350   -2.9165 C   0  0  0  0  0  0  0  0  0  0  0  0
    6.0136   -0.6022   -3.7460 O   0  0  0  0  0  0  0  0  0  0  0  0
    0.6095    1.9941    0.3100 H   0  0  0  0  0  0  0  0  0  0  0  0
    0.7099   -1.0343    2.5521 H   0  0  0  0  0  0  0  0  0  0  0  0
   -1.1196   -1.6001    4.0539 H   0  0  0  0  0  0  0  0  0  0  0  0
   -3.1049   -0.1410    4.2505 H   0  0  0  0  0  0  0  0  0  0  0  0
   -1.3801    2.5553    1.3635 H   0  0  0  0  0  0  0  0  0  0  0  0
    2.7017    3.0699   -0.1507 H   0  0  0  0  0  0  0  0  0  0  0  0
    4.2719    3.6442   -1.9519 H   0  0  0  0  0  0  0  0  0  0  0  0
    5.4145    1.8579   -3.2412 H   0  0  0  0  0  0  0  0  0  0  0  0
    3.5439   -1.8370   -0.0856 H   0  0  0  0  0  0  0  0  0  0  0  0
    1.9879   -1.6130   -0.9359 H   0  0  0  0  0  0  0  0  0  0  0  0
    2.8083   -2.5388   -2.9355 H   0  0  0  0  0  0  0  0  0  0  0  0
    3.4880   -3.5592   -1.6491 H   0  0  0  0  0  0  0  0  0  0  0  0
    6.4611   -2.8068   -3.7226 H   0  0  0  0  0  0  0  0  0  0  0  0
    4.7863   -3.1703   -4.4240 H   0  0  0  0  0  0  0  0  0  0  0  0
    5.0352   -5.9563   -2.2593 H   0  0  0  0  0  0  0  0  0  0  0  0
    5.8863   -8.1029   -3.1609 H   0  0  0  0  0  0  0  0  0  0  0  0
    8.2733   -7.3674   -6.9039 H   0  0  0  0  0  0  0  0  0  0  0  0
    8.8958   -5.4606   -8.3318 H   0  0  0  0  0  0  0  0  0  0  0  0
    8.0630   -3.1933   -7.7656 H   0  0  0  0  0  0  0  0  0  0  0  0
    6.6922   -2.8479   -5.8068 H   0  0  0  0  0  0  0  0  0  0  0  0
  1  2  2  0  0  0  0
  2  3  1  0  0  0  0
  2 14  1  0  0  0  0
  3  4  1  0  0  0  0
  3 36  1  0  0  0  0
  4  5  1  0  0  0  0
  4 13  2  0  0  0  0
  5  6  2  0  0  0  0
  5 37  1  0  0  0  0
  6  7  1  0  0  0  0
  6 38  1  0  0  0  0
  7  8  2  0  0  0  0
  7 39  1  0  0  0  0
  8  9  1  0  0  0  0
  8 13  1  0  0  0  0
  9 10  1  0  0  0  0
  9 11  1  0  0  0  0
  9 12  1  0  0  0  0
 13 40  1  0  0  0  0
 14 15  1  0  0  0  0
 14 19  2  0  0  0  0
 15 16  2  0  0  0  0
 15 41  1  0  0  0  0
 16 17  1  0  0  0  0
 16 42  1  0  0  0  0
 17 18  2  0  0  0  0
 17 43  1  0  0  0  0
 18 19  1  0  0  0  0
 18 34  1  0  0  0  0
 19 20  1  0  0  0  0
 20 21  1  0  0  0  0
 20 44  1  0  0  0  0
 20 45  1  0  0  0  0
 21 22  1  0  0  0  0
 21 46  1  0  0  0  0
 21 47  1  0  0  0  0
 22 23  1  0  0  0  0
 22 34  1  0  0  0  0
 23 24  1  0  0  0  0
 23 48  1  0  0  0  0
 23 49  1  0  0  0  0
 24 25  1  0  0  0  0
 24 33  2  0  0  0  0
 25 26  2  0  0  0  0
 25 50  1  0  0  0  0
 26 27  1  0  0  0  0
 26 51  1  0  0  0  0
 27 28  2  0  0  0  0
 28 29  1  0  0  0  0
 28 33  1  0  0  0  0
 29 30  2  0  0  0  0
 29 52  1  0  0  0  0
 30 31  1  0  0  0  0
 30 53  1  0  0  0  0
 31 32  2  0  0  0  0
 31 54  1  0  0  0  0
 32 33  1  0  0  0  0
 32 55  1  0  0  0  0
 34 35  2  0  0  0  0
M  END
$$$$
