CHEMBL3890263
 OpenBabel04072215373D

 61 64  0  0  1  0  0  0  0  0999 V2000
    3.2990    3.9697   -2.7469 C   0  0  0  0  0  0  0  0  0  0  0  0
    3.8071    3.2700   -1.4933 C   0  0  0  0  0  0  0  0  0  0  0  0
    3.0053    2.1136   -1.0579 N   0  0  0  0  0  0  0  0  0  0  0  0
    1.6439    2.4790   -0.6103 C   0  0  0  0  0  0  0  0  0  0  0  0
    1.5673    3.1706    0.7677 C   0  0  0  0  0  0  0  0  0  0  0  0
    2.3276    2.4558    1.8028 N   0  0  0  0  0  0  0  0  0  0  0  0
    1.8520    2.4703    3.1023 C   0  0  0  0  0  0  0  0  0  0  0  0
    2.6219    1.7589    4.1916 C   0  0  0  0  0  0  0  0  0  0  0  0
    0.7822    3.0116    3.3937 O   0  0  0  0  0  0  0  0  0  0  0  0
    3.6738    2.0528    1.3956 C   0  0  0  0  0  0  0  0  0  0  0  0
    3.6524    1.3173    0.0352 C   0  0  3  0  0  0  0  0  0  0  0  0
    5.0708    0.8825   -0.3508 C   0  0  0  0  0  0  0  0  0  0  0  0
    5.6423   -0.0455    0.5465 O   0  0  0  0  0  0  0  0  0  0  0  0
    6.6125   -0.8701    0.0426 C   0  0  0  0  0  0  0  0  0  0  0  0
    6.7047   -2.0436    0.8416 C   0  0  0  0  0  0  0  0  0  0  0  0
    7.5495   -3.1082    0.5554 C   0  0  0  0  0  0  0  0  0  0  0  0
    7.5518   -4.2000    1.3294 N   0  0  0  0  0  0  0  0  0  0  0  0
    8.3989   -5.1798    0.9844 C   0  0  0  0  0  0  0  0  0  0  0  0
    9.2605   -5.1524   -0.0338 N   0  0  0  0  0  0  0  0  0  0  0  0
    9.2559   -4.0501   -0.8036 C   0  0  0  0  0  0  0  0  0  0  0  0
   10.1658   -3.9279   -1.8913 N   0  0  0  0  0  0  0  0  0  0  0  0
   11.0466   -4.9039   -2.3974 C   0  0  0  0  0  0  0  0  0  0  0  0
   10.7634   -6.2700   -2.3328 C   0  0  0  0  0  0  0  0  0  0  0  0
   11.6664   -7.2130   -2.8172 C   0  0  0  0  0  0  0  0  0  0  0  0
   12.8572   -6.8047   -3.4121 C   0  0  0  0  0  0  0  0  0  0  0  0
   13.9580   -8.0252   -3.9308 Cl  0  0  0  0  0  0  0  0  0  0  0  0
   13.1135   -5.4380   -3.5699 C   0  0  0  0  0  0  0  0  0  0  0  0
   14.5383   -4.8508   -4.3513 Cl  0  0  0  0  0  0  0  0  0  0  0  0
   12.2036   -4.4962   -3.0803 C   0  0  0  0  0  0  0  0  0  0  0  0
    8.3718   -2.9917   -0.5567 C   0  0  0  0  0  0  0  0  0  0  0  0
    8.2811   -1.8427   -1.3664 C   0  0  0  0  0  0  0  0  0  0  0  0
    7.4331   -0.7644   -1.0834 C   0  0  0  0  0  0  0  0  0  0  0  0
    7.6011    0.1369   -2.0840 O   0  0  0  0  0  0  0  0  0  0  0  0
    7.3733    1.5226   -2.0280 C   0  0  0  0  0  0  0  0  0  0  0  0
    4.0644    4.6693   -3.1062 H   0  0  0  0  0  0  0  0  0  0  0  0
    2.3911    4.5460   -2.5544 H   0  0  0  0  0  0  0  0  0  0  0  0
    3.1081    3.2561   -3.5555 H   0  0  0  0  0  0  0  0  0  0  0  0
    3.9520    4.0021   -0.6944 H   0  0  0  0  0  0  0  0  0  0  0  0
    4.8043    2.9264   -1.7785 H   0  0  0  0  0  0  0  0  0  0  0  0
    1.0630    1.5482   -0.5561 H   0  0  0  0  0  0  0  0  0  0  0  0
    1.1338    3.0873   -1.3645 H   0  0  0  0  0  0  0  0  0  0  0  0
    0.5151    3.2590    1.0582 H   0  0  0  0  0  0  0  0  0  0  0  0
    1.9765    4.1859    0.7070 H   0  0  0  0  0  0  0  0  0  0  0  0
    3.6606    1.5387    3.9619 H   0  0  0  0  0  0  0  0  0  0  0  0
    2.1098    0.8214    4.4280 H   0  0  0  0  0  0  0  0  0  0  0  0
    2.6321    2.3969    5.0807 H   0  0  0  0  0  0  0  0  0  0  0  0
    4.1488    1.4128    2.1360 H   0  0  0  0  0  0  0  0  0  0  0  0
    4.2740    2.9705    1.3411 H   0  0  0  0  0  0  0  0  0  0  0  0
    3.0610    0.4012    0.1745 H   0  0  0  0  0  0  0  0  0  0  0  0
    5.6899    1.7739   -0.2823 H   0  0  0  0  0  0  0  0  0  0  0  0
    5.0256    0.4596   -1.3585 H   0  0  0  0  0  0  0  0  0  0  0  0
    6.0487   -2.1379    1.7051 H   0  0  0  0  0  0  0  0  0  0  0  0
    8.3861   -6.0778    1.5917 H   0  0  0  0  0  0  0  0  0  0  0  0
   10.6191   -3.0206   -1.8297 H   0  0  0  0  0  0  0  0  0  0  0  0
    9.8322   -6.6180   -1.8923 H   0  0  0  0  0  0  0  0  0  0  0  0
   11.4348   -8.2713   -2.7013 H   0  0  0  0  0  0  0  0  0  0  0  0
   12.4113   -3.4383   -3.2185 H   0  0  0  0  0  0  0  0  0  0  0  0
    8.8761   -1.7831   -2.2749 H   0  0  0  0  0  0  0  0  0  0  0  0
    8.1014    2.0158   -2.6790 H   0  0  0  0  0  0  0  0  0  0  0  0
    7.4944    1.9538   -1.0334 H   0  0  0  0  0  0  0  0  0  0  0  0
    6.4001    1.7249   -2.4790 H   0  0  0  0  0  0  0  0  0  0  0  0
  1  2  1  0  0  0  0
  1 35  1  0  0  0  0
  1 36  1  0  0  0  0
  1 37  1  0  0  0  0
  2  3  1  0  0  0  0
  2 38  1  0  0  0  0
  2 39  1  0  0  0  0
  3  4  1  0  0  0  0
  3 11  1  0  0  0  0
  4  5  1  0  0  0  0
  4 40  1  0  0  0  0
  4 41  1  0  0  0  0
  5  6  1  0  0  0  0
  5 42  1  0  0  0  0
  5 43  1  0  0  0  0
  6  7  1  0  0  0  0
  6 10  1  0  0  0  0
  7  8  1  0  0  0  0
  7  9  2  0  0  0  0
  8 44  1  0  0  0  0
  8 45  1  0  0  0  0
  8 46  1  0  0  0  0
 10 11  1  0  0  0  0
 10 47  1  0  0  0  0
 10 48  1  0  0  0  0
 11 12  1  0  0  0  0
 11 49  1  0  0  0  0
 12 13  1  0  0  0  0
 12 50  1  0  0  0  0
 12 51  1  0  0  0  0
 13 14  1  0  0  0  0
 14 15  1  0  0  0  0
 14 32  2  0  0  0  0
 15 16  2  0  0  0  0
 15 52  1  0  0  0  0
 16 17  1  0  0  0  0
 16 30  1  0  0  0  0
 17 18  2  0  0  0  0
 18 19  1  0  0  0  0
 18 53  1  0  0  0  0
 19 20  2  0  0  0  0
 20 21  1  0  0  0  0
 20 30  1  0  0  0  0
 21 22  1  0  0  0  0
 21 54  1  0  0  0  0
 22 23  1  0  0  0  0
 22 29  2  0  0  0  0
 23 24  2  0  0  0  0
 23 55  1  0  0  0  0
 24 25  1  0  0  0  0
 24 56  1  0  0  0  0
 25 26  1  0  0  0  0
 25 27  2  0  0  0  0
 27 28  1  0  0  0  0
 27 29  1  0  0  0  0
 29 57  1  0  0  0  0
 30 31  2  0  0  0  0
 31 32  1  0  0  0  0
 31 58  1  0  0  0  0
 32 33  1  0  0  0  0
 33 34  1  0  0  0  0
 34 59  1  0  0  0  0
 34 60  1  0  0  0  0
 34 61  1  0  0  0  0
M  END
$$$$
