CHEMBL292864
 OpenBabel04072215363D

 33 36  0  0  0  0  0  0  0  0999 V2000
    1.4964    0.5724   -0.2082 O   0  0  0  0  0  0  0  0  0  0  0  0
    2.6686    0.2609   -0.1227 C   0  0  0  0  0  0  0  0  0  0  0  0
    3.7474    1.1280   -0.0617 N   0  0  0  0  0  0  0  0  0  0  0  0
    4.9538    0.4385   -0.0468 C   0  0  0  0  0  0  0  0  0  0  0  0
    6.2200    0.9849   -0.0010 C   0  0  0  0  0  0  0  0  0  0  0  0
    7.3007    0.0997    0.0102 C   0  0  0  0  0  0  0  0  0  0  0  0
    7.0861   -1.2902   -0.0252 C   0  0  0  0  0  0  0  0  0  0  0  0
    8.5717   -2.4620    0.0030 Br  0  0  0  0  0  0  0  0  0  0  0  0
    5.7967   -1.8254   -0.0750 C   0  0  0  0  0  0  0  0  0  0  0  0
    4.7311   -0.9405   -0.0857 C   0  0  0  0  0  0  0  0  0  0  0  0
    3.2701   -1.1229   -0.1106 C   0  0  0  0  0  0  0  0  0  0  0  0
    2.6900   -2.3310   -0.0688 C   0  0  0  0  0  0  0  0  0  0  0  0
    1.3119   -2.6435    0.0258 C   0  0  0  0  0  0  0  0  0  0  0  0
    0.3165   -1.7843   -0.3853 N   0  0  0  0  0  0  0  0  0  0  0  0
   -0.9152   -2.3697   -0.2160 C   0  0  0  0  0  0  0  0  0  0  0  0
   -0.7196   -3.6191    0.3278 C   0  0  0  0  0  0  0  0  0  0  0  0
    0.6801   -3.7853    0.4799 C   0  0  0  0  0  0  0  0  0  0  0  0
    1.2149   -5.0448    1.0516 C   0  0  0  0  0  0  0  0  0  0  0  0
    0.1262   -5.6852    1.9201 C   0  0  0  0  0  0  0  0  0  0  0  0
   -1.1705   -5.7635    1.2733 O   0  0  0  0  0  0  0  0  0  0  0  0
   -1.6981   -4.6323    0.6872 C   0  0  0  0  0  0  0  0  0  0  0  0
   -2.8956   -4.5318    0.4508 O   0  0  0  0  0  0  0  0  0  0  0  0
    3.6387    2.1309   -0.0538 H   0  0  0  0  0  0  0  0  0  0  0  0
    6.3793    2.0575    0.0281 H   0  0  0  0  0  0  0  0  0  0  0  0
    8.3137    0.4953    0.0489 H   0  0  0  0  0  0  0  0  0  0  0  0
    5.6428   -2.8984   -0.0993 H   0  0  0  0  0  0  0  0  0  0  0  0
    3.3404   -3.2029   -0.0458 H   0  0  0  0  0  0  0  0  0  0  0  0
    0.4619   -0.8370   -0.7239 H   0  0  0  0  0  0  0  0  0  0  0  0
   -1.8197   -1.8428   -0.4905 H   0  0  0  0  0  0  0  0  0  0  0  0
    2.1107   -4.8622    1.6549 H   0  0  0  0  0  0  0  0  0  0  0  0
    1.4858   -5.7188    0.2306 H   0  0  0  0  0  0  0  0  0  0  0  0
   -0.0064   -5.1346    2.8595 H   0  0  0  0  0  0  0  0  0  0  0  0
    0.4206   -6.7073    2.1799 H   0  0  0  0  0  0  0  0  0  0  0  0
  1  2  2  0  0  0  0
  2  3  1  0  0  0  0
  2 11  1  0  0  0  0
  3  4  1  0  0  0  0
  3 23  1  0  0  0  0
  4  5  1  0  0  0  0
  4 10  2  0  0  0  0
  5  6  2  0  0  0  0
  5 24  1  0  0  0  0
  6  7  1  0  0  0  0
  6 25  1  0  0  0  0
  7  8  1  0  0  0  0
  7  9  2  0  0  0  0
  9 10  1  0  0  0  0
  9 26  1  0  0  0  0
 10 11  1  0  0  0  0
 11 12  2  0  0  0  0
 12 13  1  0  0  0  0
 12 27  1  0  0  0  0
 13 14  1  0  0  0  0
 13 17  2  0  0  0  0
 14 15  1  0  0  0  0
 14 28  1  0  0  0  0
 15 16  2  0  0  0  0
 15 29  1  0  0  0  0
 16 17  1  0  0  0  0
 16 21  1  0  0  0  0
 17 18  1  0  0  0  0
 18 19  1  0  0  0  0
 18 30  1  0  0  0  0
 18 31  1  0  0  0  0
 19 20  1  0  0  0  0
 19 32  1  0  0  0  0
 19 33  1  0  0  0  0
 20 21  1  0  0  0  0
 21 22  2  0  0  0  0
M  END
$$$$
