CHEMBL1079946
 OpenBabel04072215353D

 54 58  0  0  0  0  0  0  0  0999 V2000
    2.4924    0.1898   -0.4649 C   0  0  0  0  0  0  0  0  0  0  0  0
    1.0355    0.1321   -0.0957 C   0  0  0  0  0  0  0  0  0  0  0  0
    0.3434    1.3478    0.0213 C   0  0  0  0  0  0  0  0  0  0  0  0
   -1.0401    1.3775    0.1840 C   0  0  0  0  0  0  0  0  0  0  0  0
   -1.7680    0.1962    0.1765 C   0  0  0  0  0  0  0  0  0  0  0  0
   -3.1811    0.1424    0.1943 N   0  0  0  0  0  0  0  0  0  0  0  0
   -4.0401    1.2253    0.1831 C   0  0  0  0  0  0  0  0  0  0  0  0
   -3.7364    2.4105    0.2118 O   0  0  0  0  0  0  0  0  0  0  0  0
   -5.4932    0.9174    0.1583 C   0  0  0  0  0  0  0  0  0  0  0  0
   -6.3558    1.8082    0.8208 C   0  0  0  0  0  0  0  0  0  0  0  0
   -7.7311    1.5877    0.8074 C   0  0  0  0  0  0  0  0  0  0  0  0
   -8.7779    2.6768    1.6306 Cl  0  0  0  0  0  0  0  0  0  0  0  0
   -8.2639    0.4952    0.1293 C   0  0  0  0  0  0  0  0  0  0  0  0
   -7.4081   -0.3746   -0.5446 C   0  0  0  0  0  0  0  0  0  0  0  0
   -8.0698   -1.7061   -1.4127 Cl  0  0  0  0  0  0  0  0  0  0  0  0
   -6.0246   -0.1751   -0.5346 C   0  0  0  0  0  0  0  0  0  0  0  0
   -1.0667   -1.0176    0.1509 C   0  0  0  0  0  0  0  0  0  0  0  0
    0.3421   -1.0796    0.1074 C   0  0  0  0  0  0  0  0  0  0  0  0
    1.0553   -2.3027    0.2386 N   0  0  0  0  0  0  0  0  0  0  0  0
    0.5692   -3.4626    0.7753 C   0  0  0  0  0  0  0  0  0  0  0  0
   -0.6926   -3.8037    0.9289 N   0  0  0  0  0  0  0  0  0  0  0  0
   -0.7040   -5.0704    1.4190 C   0  0  0  0  0  0  0  0  0  0  0  0
   -1.8156   -5.8674    1.7317 C   0  0  0  0  0  0  0  0  0  0  0  0
   -1.6099   -7.1563    2.2253 C   0  0  0  0  0  0  0  0  0  0  0  0
   -0.3186   -7.6238    2.4491 C   0  0  0  0  0  0  0  0  0  0  0  0
    0.8009   -6.8264    2.1745 C   0  0  0  0  0  0  0  0  0  0  0  0
    0.5863   -5.5554    1.6057 C   0  0  0  0  0  0  0  0  0  0  0  0
    1.4126   -4.5144    1.1718 N   0  0  0  0  0  0  0  0  0  0  0  0
    2.8411   -4.5024    1.1115 C   0  0  0  0  0  0  0  0  0  0  0  0
    3.5281   -5.6849    0.9231 C   0  0  0  0  0  0  0  0  0  0  0  0
    4.8998   -5.6030    0.8469 C   0  0  0  0  0  0  0  0  0  0  0  0
    5.6534   -6.7540    0.6236 N   0  0  0  0  0  0  0  0  0  0  0  0
    5.5663   -4.4580    1.0066 N   0  0  0  0  0  0  0  0  0  0  0  0
    4.8192   -3.3606    1.1835 C   0  0  0  0  0  0  0  0  0  0  0  0
    3.4774   -3.3093    1.1964 N   0  0  0  0  0  0  0  0  0  0  0  0
    2.7858    1.2072   -0.7520 H   0  0  0  0  0  0  0  0  0  0  0  0
    2.6795   -0.4414   -1.3411 H   0  0  0  0  0  0  0  0  0  0  0  0
    3.1278   -0.1251    0.3654 H   0  0  0  0  0  0  0  0  0  0  0  0
    0.8749    2.2953   -0.0320 H   0  0  0  0  0  0  0  0  0  0  0  0
   -1.5157    2.3465    0.2801 H   0  0  0  0  0  0  0  0  0  0  0  0
   -3.5775   -0.7878    0.2170 H   0  0  0  0  0  0  0  0  0  0  0  0
   -5.9493    2.6756    1.3369 H   0  0  0  0  0  0  0  0  0  0  0  0
   -9.3379    0.3307    0.1181 H   0  0  0  0  0  0  0  0  0  0  0  0
   -5.3847   -0.8431   -1.1055 H   0  0  0  0  0  0  0  0  0  0  0  0
   -1.6399   -1.9383    0.1578 H   0  0  0  0  0  0  0  0  0  0  0  0
    2.0634   -2.1681    0.3170 H   0  0  0  0  0  0  0  0  0  0  0  0
   -2.8169   -5.4785    1.5814 H   0  0  0  0  0  0  0  0  0  0  0  0
   -2.4656   -7.7888    2.4483 H   0  0  0  0  0  0  0  0  0  0  0  0
   -0.1765   -8.6244    2.8539 H   0  0  0  0  0  0  0  0  0  0  0  0
    1.7882   -7.2059    2.4144 H   0  0  0  0  0  0  0  0  0  0  0  0
    3.0451   -6.6377    0.7688 H   0  0  0  0  0  0  0  0  0  0  0  0
    5.3401   -7.2641   -0.1954 H   0  0  0  0  0  0  0  0  0  0  0  0
    6.6290   -6.4778    0.5409 H   0  0  0  0  0  0  0  0  0  0  0  0
    5.3527   -2.4265    1.3274 H   0  0  0  0  0  0  0  0  0  0  0  0
  1  2  1  0  0  0  0
  1 36  1  0  0  0  0
  1 37  1  0  0  0  0
  1 38  1  0  0  0  0
  2  3  1  0  0  0  0
  2 18  2  0  0  0  0
  3  4  2  0  0  0  0
  3 39  1  0  0  0  0
  4  5  1  0  0  0  0
  4 40  1  0  0  0  0
  5  6  1  0  0  0  0
  5 17  2  0  0  0  0
  6  7  1  0  0  0  0
  6 41  1  0  0  0  0
  7  8  2  0  0  0  0
  7  9  1  0  0  0  0
  9 10  1  0  0  0  0
  9 16  2  0  0  0  0
 10 11  2  0  0  0  0
 10 42  1  0  0  0  0
 11 12  1  0  0  0  0
 11 13  1  0  0  0  0
 13 14  2  0  0  0  0
 13 43  1  0  0  0  0
 14 15  1  0  0  0  0
 14 16  1  0  0  0  0
 16 44  1  0  0  0  0
 17 18  1  0  0  0  0
 17 45  1  0  0  0  0
 18 19  1  0  0  0  0
 19 20  1  0  0  0  0
 19 46  1  0  0  0  0
 20 21  2  0  0  0  0
 20 28  1  0  0  0  0
 21 22  1  0  0  0  0
 22 23  1  0  0  0  0
 22 27  2  0  0  0  0
 23 24  2  0  0  0  0
 23 47  1  0  0  0  0
 24 25  1  0  0  0  0
 24 48  1  0  0  0  0
 25 26  2  0  0  0  0
 25 49  1  0  0  0  0
 26 27  1  0  0  0  0
 26 50  1  0  0  0  0
 27 28  1  0  0  0  0
 28 29  1  0  0  0  0
 29 30  1  0  0  0  0
 29 35  2  0  0  0  0
 30 31  2  0  0  0  0
 30 51  1  0  0  0  0
 31 32  1  0  0  0  0
 31 33  1  0  0  0  0
 32 52  1  0  0  0  0
 32 53  1  0  0  0  0
 33 34  2  0  0  0  0
 34 35  1  0  0  0  0
 34 54  1  0  0  0  0
M  END
$$$$
