CHEMBL3633768
 OpenBabel04072215373D

 50 52  0  0  0  0  0  0  0  0999 V2000
    2.5976   -1.4071    0.0786 C   0  0  0  0  0  0  0  0  0  0  0  0
    2.3235   -0.0118    0.1038 O   0  0  0  0  0  0  0  0  0  0  0  0
    3.1018    0.8443   -0.6214 C   0  0  0  0  0  0  0  0  0  0  0  0
    4.3024    0.4730   -1.2376 C   0  0  0  0  0  0  0  0  0  0  0  0
    5.0307    1.3443   -2.0353 C   0  0  0  0  0  0  0  0  0  0  0  0
    6.1410    0.8814   -2.6150 N   0  0  0  0  0  0  0  0  0  0  0  0
    6.8207    1.7390   -3.3792 C   0  0  0  0  0  0  0  0  0  0  0  0
    6.5090    3.0181   -3.5867 N   0  0  0  0  0  0  0  0  0  0  0  0
    5.3982    3.4834   -2.9829 C   0  0  0  0  0  0  0  0  0  0  0  0
    5.0835    4.8652   -3.1171 N   0  0  0  0  0  0  0  0  0  0  0  0
    5.7519    5.7361   -4.0177 C   0  0  0  0  0  0  0  0  0  0  0  0
    5.8946    5.3718   -5.3654 C   0  0  0  0  0  0  0  0  0  0  0  0
    6.6022    6.1792   -6.2556 C   0  0  0  0  0  0  0  0  0  0  0  0
    7.1660    7.3690   -5.8065 C   0  0  0  0  0  0  0  0  0  0  0  0
    8.0798    8.3384   -6.8953 Cl  0  0  0  0  0  0  0  0  0  0  0  0
    7.0089    7.7733   -4.4825 C   0  0  0  0  0  0  0  0  0  0  0  0
    6.2960    6.9624   -3.5960 C   0  0  0  0  0  0  0  0  0  0  0  0
    6.1325    7.4806   -1.9540 Cl  0  0  0  0  0  0  0  0  0  0  0  0
    4.5757    2.6564   -2.1991 C   0  0  0  0  0  0  0  0  0  0  0  0
    3.3630    3.0482   -1.5869 C   0  0  0  0  0  0  0  0  0  0  0  0
    2.6477    2.1610   -0.7788 C   0  0  0  0  0  0  0  0  0  0  0  0
    1.4869    2.6790   -0.2651 O   0  0  0  0  0  0  0  0  0  0  0  0
    1.2699    2.4225    1.1254 C   0  0  0  0  0  0  0  0  0  0  0  0
    0.1509    3.3379    1.6344 C   0  0  0  0  0  0  0  0  0  0  0  0
   -1.1435    3.1204    0.8467 C   0  0  0  0  0  0  0  0  0  0  0  0
   -2.3248    3.9006    1.4187 C   0  0  0  0  0  0  0  0  0  0  0  0
   -3.5810    3.6628    0.6041 C   0  0  0  0  0  0  0  0  0  0  0  0
   -3.6581    2.8984   -0.3580 O   0  0  0  0  0  0  0  0  0  0  0  0
   -4.6674    4.3841    1.0321 N   0  0  0  0  0  0  0  0  0  0  0  0
   -5.8800    4.1254    0.3528 O   0  0  0  0  0  0  0  0  0  0  0  0
    3.1796   -1.6805    0.9638 H   0  0  0  0  0  0  0  0  0  0  0  0
    3.0951   -1.7569   -0.8295 H   0  0  0  0  0  0  0  0  0  0  0  0
    1.6382   -1.9308    0.1263 H   0  0  0  0  0  0  0  0  0  0  0  0
    4.7148   -0.5236   -1.1169 H   0  0  0  0  0  0  0  0  0  0  0  0
    7.7116    1.3639   -3.8703 H   0  0  0  0  0  0  0  0  0  0  0  0
    5.0502    5.2780   -2.1852 H   0  0  0  0  0  0  0  0  0  0  0  0
    5.4660    4.4373   -5.7206 H   0  0  0  0  0  0  0  0  0  0  0  0
    6.7208    5.8610   -7.2878 H   0  0  0  0  0  0  0  0  0  0  0  0
    7.4443    8.7080   -4.1431 H   0  0  0  0  0  0  0  0  0  0  0  0
    2.9618    4.0466   -1.7485 H   0  0  0  0  0  0  0  0  0  0  0  0
    2.1849    2.6151    1.6987 H   0  0  0  0  0  0  0  0  0  0  0  0
    0.9478    1.3897    1.2830 H   0  0  0  0  0  0  0  0  0  0  0  0
    0.4571    4.3860    1.5378 H   0  0  0  0  0  0  0  0  0  0  0  0
   -0.0167    3.1363    2.6990 H   0  0  0  0  0  0  0  0  0  0  0  0
   -1.3892    2.0511    0.8364 H   0  0  0  0  0  0  0  0  0  0  0  0
   -0.9925    3.4167   -0.1984 H   0  0  0  0  0  0  0  0  0  0  0  0
   -2.1060    4.9747    1.4209 H   0  0  0  0  0  0  0  0  0  0  0  0
   -2.5167    3.5864    2.4519 H   0  0  0  0  0  0  0  0  0  0  0  0
   -4.7317    4.8483    1.9308 H   0  0  0  0  0  0  0  0  0  0  0  0
   -5.6010    3.4774   -0.3336 H   0  0  0  0  0  0  0  0  0  0  0  0
  1  2  1  0  0  0  0
  1 31  1  0  0  0  0
  1 32  1  0  0  0  0
  1 33  1  0  0  0  0
  2  3  1  0  0  0  0
  3  4  1  0  0  0  0
  3 21  2  0  0  0  0
  4  5  2  0  0  0  0
  4 34  1  0  0  0  0
  5  6  1  0  0  0  0
  5 19  1  0  0  0  0
  6  7  2  0  0  0  0
  7  8  1  0  0  0  0
  7 35  1  0  0  0  0
  8  9  2  0  0  0  0
  9 10  1  0  0  0  0
  9 19  1  0  0  0  0
 10 11  1  0  0  0  0
 10 36  1  0  0  0  0
 11 12  1  0  0  0  0
 11 17  2  0  0  0  0
 12 13  2  0  0  0  0
 12 37  1  0  0  0  0
 13 14  1  0  0  0  0
 13 38  1  0  0  0  0
 14 15  1  0  0  0  0
 14 16  2  0  0  0  0
 16 17  1  0  0  0  0
 16 39  1  0  0  0  0
 17 18  1  0  0  0  0
 19 20  2  0  0  0  0
 20 21  1  0  0  0  0
 20 40  1  0  0  0  0
 21 22  1  0  0  0  0
 22 23  1  0  0  0  0
 23 24  1  0  0  0  0
 23 41  1  0  0  0  0
 23 42  1  0  0  0  0
 24 25  1  0  0  0  0
 24 43  1  0  0  0  0
 24 44  1  0  0  0  0
 25 26  1  0  0  0  0
 25 45  1  0  0  0  0
 25 46  1  0  0  0  0
 26 27  1  0  0  0  0
 26 47  1  0  0  0  0
 26 48  1  0  0  0  0
 27 28  2  0  0  0  0
 27 29  1  0  0  0  0
 29 30  1  0  0  0  0
 29 49  1  0  0  0  0
 30 50  1  0  0  0  0
M  END
$$$$
