CHEMBL2403369
 OpenBabel04072215363D

 58 62  0  0  0  0  0  0  0  0999 V2000
    1.6372    0.0126   -0.4381 C   0  0  0  0  0  0  0  0  0  0  0  0
    3.0080    0.1120   -0.0669 O   0  0  0  0  0  0  0  0  0  0  0  0
    3.6698    1.2091   -0.5499 C   0  0  0  0  0  0  0  0  0  0  0  0
    5.0341    1.0112   -0.8291 C   0  0  0  0  0  0  0  0  0  0  0  0
    5.8247    2.0363   -1.3423 C   0  0  0  0  0  0  0  0  0  0  0  0
    5.2152    3.2579   -1.5426 C   0  0  0  0  0  0  0  0  0  0  0  0
    3.8718    3.4905   -1.2315 C   0  0  0  0  0  0  0  0  0  0  0  0
    3.0786    2.4685   -0.7356 C   0  0  0  0  0  0  0  0  0  0  0  0
    3.6088    4.8936   -1.5857 C   0  0  0  0  0  0  0  0  0  0  0  0
    2.4293    5.5112   -1.4715 C   0  0  0  0  0  0  0  0  0  0  0  0
    2.1943    6.7909   -2.0180 C   0  0  0  0  0  0  0  0  0  0  0  0
    1.6115    7.1862   -3.2033 C   0  0  0  0  0  0  0  0  0  0  0  0
    1.7329    8.5907   -3.2917 C   0  0  0  0  0  0  0  0  0  0  0  0
    2.3688    9.0132   -2.1454 C   0  0  0  0  0  0  0  0  0  0  0  0
    2.6192    7.9209   -1.3549 N   0  0  0  0  0  0  0  0  0  0  0  0
    2.8167   10.3984   -1.8879 C   0  0  0  0  0  0  0  0  0  0  0  0
    2.4016   11.3385   -3.0455 C   0  0  0  0  0  0  0  0  0  0  0  0
    2.1593   10.7262   -4.3702 N   0  0  0  0  0  0  0  0  0  0  0  0
    1.9423   11.6525   -5.3954 C   0  0  0  0  0  0  0  0  0  0  0  0
    1.8836   12.8640   -5.1832 O   0  0  0  0  0  0  0  0  0  0  0  0
    1.7318   11.1279   -6.6647 N   0  0  0  0  0  0  0  0  0  0  0  0
    1.1788   12.0483   -7.6625 C   0  0  0  0  0  0  0  0  0  0  0  0
    0.6805   11.3188   -8.9276 C   0  0  0  0  0  0  0  0  0  0  0  0
    1.6306   10.3420   -9.5061 N   0  0  0  0  0  0  0  0  0  0  0  0
    2.7518   11.0110  -10.1658 C   0  0  0  0  0  0  0  0  0  0  0  0
    2.1042    9.4368   -8.4344 C   0  0  0  0  0  0  0  0  0  0  0  0
    2.6983   10.1732   -7.2186 C   0  0  0  0  0  0  0  0  0  0  0  0
    1.3434    9.5000   -4.3960 C   0  0  0  0  0  0  0  0  0  0  0  0
    4.9040    5.4514   -2.1368 C   0  0  0  0  0  0  0  0  0  0  0  0
    5.1519    6.5752   -2.5278 O   0  0  0  0  0  0  0  0  0  0  0  0
    5.8031    4.4004   -2.0714 N   0  0  0  0  0  0  0  0  0  0  0  0
    1.2796   -0.9761   -0.1357 H   0  0  0  0  0  0  0  0  0  0  0  0
    1.5141    0.0969   -1.5239 H   0  0  0  0  0  0  0  0  0  0  0  0
    1.0285    0.7565    0.0844 H   0  0  0  0  0  0  0  0  0  0  0  0
    5.4738    0.0272   -0.6590 H   0  0  0  0  0  0  0  0  0  0  0  0
    6.8687    1.8738   -1.5798 H   0  0  0  0  0  0  0  0  0  0  0  0
    2.0379    2.6503   -0.5021 H   0  0  0  0  0  0  0  0  0  0  0  0
    1.5636    4.9880   -1.0723 H   0  0  0  0  0  0  0  0  0  0  0  0
    1.2081    6.5211   -3.9555 H   0  0  0  0  0  0  0  0  0  0  0  0
    3.1208    7.9366   -0.4760 H   0  0  0  0  0  0  0  0  0  0  0  0
    3.9057   10.4135   -1.7738 H   0  0  0  0  0  0  0  0  0  0  0  0
    2.3893   10.7759   -0.9502 H   0  0  0  0  0  0  0  0  0  0  0  0
    3.1818   12.1048   -3.1615 H   0  0  0  0  0  0  0  0  0  0  0  0
    1.4849   11.8731   -2.7661 H   0  0  0  0  0  0  0  0  0  0  0  0
    1.9548   12.7785   -7.9183 H   0  0  0  0  0  0  0  0  0  0  0  0
    0.3466   12.6008   -7.2116 H   0  0  0  0  0  0  0  0  0  0  0  0
    0.3824   12.0534   -9.6864 H   0  0  0  0  0  0  0  0  0  0  0  0
   -0.2369   10.7726   -8.6714 H   0  0  0  0  0  0  0  0  0  0  0  0
    2.3933   11.6436  -10.9841 H   0  0  0  0  0  0  0  0  0  0  0  0
    3.4249   10.2698  -10.6104 H   0  0  0  0  0  0  0  0  0  0  0  0
    3.3420   11.6406   -9.4925 H   0  0  0  0  0  0  0  0  0  0  0  0
    2.8332    8.7265   -8.8370 H   0  0  0  0  0  0  0  0  0  0  0  0
    1.2517    8.8342   -8.1000 H   0  0  0  0  0  0  0  0  0  0  0  0
    3.5942   10.7415   -7.4975 H   0  0  0  0  0  0  0  0  0  0  0  0
    3.0443    9.4547   -6.4720 H   0  0  0  0  0  0  0  0  0  0  0  0
    1.4456    8.9659   -5.3418 H   0  0  0  0  0  0  0  0  0  0  0  0
    0.2897    9.7885   -4.3050 H   0  0  0  0  0  0  0  0  0  0  0  0
    6.7573    4.4881   -2.3798 H   0  0  0  0  0  0  0  0  0  0  0  0
  1  2  1  0  0  0  0
  1 32  1  0  0  0  0
  1 33  1  0  0  0  0
  1 34  1  0  0  0  0
  2  3  1  0  0  0  0
  3  4  1  0  0  0  0
  3  8  2  0  0  0  0
  4  5  2  0  0  0  0
  4 35  1  0  0  0  0
  5  6  1  0  0  0  0
  5 36  1  0  0  0  0
  6  7  2  0  0  0  0
  6 31  1  0  0  0  0
  7  8  1  0  0  0  0
  7  9  1  0  0  0  0
  8 37  1  0  0  0  0
  9 10  2  0  0  0  0
  9 29  1  0  0  0  0
 10 11  1  0  0  0  0
 10 38  1  0  0  0  0
 11 12  2  0  0  0  0
 11 15  1  0  0  0  0
 12 13  1  0  0  0  0
 12 39  1  0  0  0  0
 13 14  2  0  0  0  0
 13 28  1  0  0  0  0
 14 15  1  0  0  0  0
 14 16  1  0  0  0  0
 15 40  1  0  0  0  0
 16 17  1  0  0  0  0
 16 41  1  0  0  0  0
 16 42  1  0  0  0  0
 17 18  1  0  0  0  0
 17 43  1  0  0  0  0
 17 44  1  0  0  0  0
 18 19  1  0  0  0  0
 18 28  1  0  0  0  0
 19 20  2  0  0  0  0
 19 21  1  0  0  0  0
 21 22  1  0  0  0  0
 21 27  1  0  0  0  0
 22 23  1  0  0  0  0
 22 45  1  0  0  0  0
 22 46  1  0  0  0  0
 23 24  1  0  0  0  0
 23 47  1  0  0  0  0
 23 48  1  0  0  0  0
 24 25  1  0  0  0  0
 24 26  1  0  0  0  0
 25 49  1  0  0  0  0
 25 50  1  0  0  0  0
 25 51  1  0  0  0  0
 26 27  1  0  0  0  0
 26 52  1  0  0  0  0
 26 53  1  0  0  0  0
 27 54  1  0  0  0  0
 27 55  1  0  0  0  0
 28 56  1  0  0  0  0
 28 57  1  0  0  0  0
 29 30  2  0  0  0  0
 29 31  1  0  0  0  0
 31 58  1  0  0  0  0
M  END
$$$$
