CHEMBL3890887
 OpenBabel04072215373D

 57 60  0  0  0  0  0  0  0  0999 V2000
   11.5797    6.3472    5.2352 C   0  0  0  0  0  0  0  0  0  0  0  0
   10.9615    7.0736    4.0530 C   0  0  0  0  0  0  0  0  0  0  0  0
    9.4805    6.8226    3.9424 C   0  0  0  0  0  0  0  0  0  0  0  0
    8.5782    7.6393    4.6269 C   0  0  0  0  0  0  0  0  0  0  0  0
    7.2018    7.4471    4.4833 C   0  0  0  0  0  0  0  0  0  0  0  0
    6.6815    6.4373    3.6509 C   0  0  0  0  0  0  0  0  0  0  0  0
    5.2300    6.3046    3.4150 C   0  0  0  0  0  0  0  0  0  0  0  0
    4.3972    7.4017    3.4063 C   0  0  0  0  0  0  0  0  0  0  0  0
    3.0586    7.1610    3.1748 C   0  0  0  0  0  0  0  0  0  0  0  0
    2.1299    8.3325    3.1729 C   0  0  0  0  0  0  0  0  0  0  0  0
    2.6027    9.4477    3.3691 O   0  0  0  0  0  0  0  0  0  0  0  0
    0.7904    8.0277    2.9916 N   0  0  0  0  0  0  0  0  0  0  0  0
   -0.2579    8.9718    2.9527 C   0  0  0  0  0  0  0  0  0  0  0  0
   -0.0294   10.3364    2.7458 C   0  0  0  0  0  0  0  0  0  0  0  0
   -1.0773   11.2575    2.7549 C   0  0  0  0  0  0  0  0  0  0  0  0
   -2.3770   10.8362    3.0270 C   0  0  0  0  0  0  0  0  0  0  0  0
   -3.4500   11.6989    3.1169 O   0  0  0  0  0  0  0  0  0  0  0  0
   -3.2628   12.9590    3.6554 C   0  0  0  0  0  0  0  0  0  0  0  0
   -2.3651   13.2346    4.6866 C   0  0  0  0  0  0  0  0  0  0  0  0
   -2.2408   14.5440    5.1212 C   0  0  0  0  0  0  0  0  0  0  0  0
   -2.9732   15.5682    4.6409 N   0  0  0  0  0  0  0  0  0  0  0  0
   -3.8851   15.2591    3.6745 C   0  0  0  0  0  0  0  0  0  0  0  0
   -4.7135   16.4074    3.1645 C   0  0  0  0  0  0  0  0  0  0  0  0
   -5.5650   16.2351    2.2984 O   0  0  0  0  0  0  0  0  0  0  0  0
   -4.4357   17.6217    3.7498 N   0  0  0  0  0  0  0  0  0  0  0  0
   -5.1197   18.8410    3.4072 C   0  0  0  0  0  0  0  0  0  0  0  0
   -4.0649   13.9813    3.1572 C   0  0  0  0  0  0  0  0  0  0  0  0
   -2.6175    9.4665    3.1677 C   0  0  0  0  0  0  0  0  0  0  0  0
   -3.8660    9.0220    3.3755 F   0  0  0  0  0  0  0  0  0  0  0  0
   -1.5734    8.5331    3.1186 C   0  0  0  0  0  0  0  0  0  0  0  0
    2.5299    5.9381    2.9554 N   0  0  0  0  0  0  0  0  0  0  0  0
    3.4281    4.9447    2.9621 C   0  0  0  0  0  0  0  0  0  0  0  0
    4.7508    5.0643    3.1767 N   0  0  0  0  0  0  0  0  0  0  0  0
    7.6030    5.5854    3.0207 C   0  0  0  0  0  0  0  0  0  0  0  0
    8.9835    5.7735    3.1629 C   0  0  0  0  0  0  0  0  0  0  0  0
   12.6479    6.5771    5.3010 H   0  0  0  0  0  0  0  0  0  0  0  0
   11.4700    5.2626    5.1338 H   0  0  0  0  0  0  0  0  0  0  0  0
   11.1093    6.6474    6.1776 H   0  0  0  0  0  0  0  0  0  0  0  0
   11.4585    6.7682    3.1244 H   0  0  0  0  0  0  0  0  0  0  0  0
   11.1399    8.1523    4.1480 H   0  0  0  0  0  0  0  0  0  0  0  0
    8.9383    8.4430    5.2654 H   0  0  0  0  0  0  0  0  0  0  0  0
    6.5391    8.1114    5.0343 H   0  0  0  0  0  0  0  0  0  0  0  0
    4.7645    8.4080    3.5572 H   0  0  0  0  0  0  0  0  0  0  0  0
    0.5619    7.0384    2.9868 H   0  0  0  0  0  0  0  0  0  0  0  0
    0.9681   10.7240    2.5564 H   0  0  0  0  0  0  0  0  0  0  0  0
   -0.8474   12.3031    2.5723 H   0  0  0  0  0  0  0  0  0  0  0  0
   -1.7515   12.4626    5.1373 H   0  0  0  0  0  0  0  0  0  0  0  0
   -1.5177   14.8045    5.8898 H   0  0  0  0  0  0  0  0  0  0  0  0
   -3.7109   17.6233    4.4619 H   0  0  0  0  0  0  0  0  0  0  0  0
   -5.8589   18.6815    2.6186 H   0  0  0  0  0  0  0  0  0  0  0  0
   -4.3777   19.5708    3.0725 H   0  0  0  0  0  0  0  0  0  0  0  0
   -5.6162   19.2220    4.3032 H   0  0  0  0  0  0  0  0  0  0  0  0
   -4.8020   13.7931    2.3838 H   0  0  0  0  0  0  0  0  0  0  0  0
   -1.8098    7.4837    3.2574 H   0  0  0  0  0  0  0  0  0  0  0  0
    3.0587    3.9415    2.7737 H   0  0  0  0  0  0  0  0  0  0  0  0
    7.2475    4.7761    2.3848 H   0  0  0  0  0  0  0  0  0  0  0  0
    9.6655    5.1041    2.6434 H   0  0  0  0  0  0  0  0  0  0  0  0
  1  2  1  0  0  0  0
  1 36  1  0  0  0  0
  1 37  1  0  0  0  0
  1 38  1  0  0  0  0
  2  3  1  0  0  0  0
  2 39  1  0  0  0  0
  2 40  1  0  0  0  0
  3  4  1  0  0  0  0
  3 35  2  0  0  0  0
  4  5  2  0  0  0  0
  4 41  1  0  0  0  0
  5  6  1  0  0  0  0
  5 42  1  0  0  0  0
  6  7  1  0  0  0  0
  6 34  2  0  0  0  0
  7  8  1  0  0  0  0
  7 33  2  0  0  0  0
  8  9  2  0  0  0  0
  8 43  1  0  0  0  0
  9 10  1  0  0  0  0
  9 31  1  0  0  0  0
 10 11  2  0  0  0  0
 10 12  1  0  0  0  0
 12 13  1  0  0  0  0
 12 44  1  0  0  0  0
 13 14  1  0  0  0  0
 13 30  2  0  0  0  0
 14 15  2  0  0  0  0
 14 45  1  0  0  0  0
 15 16  1  0  0  0  0
 15 46  1  0  0  0  0
 16 17  1  0  0  0  0
 16 28  2  0  0  0  0
 17 18  1  0  0  0  0
 18 19  1  0  0  0  0
 18 27  2  0  0  0  0
 19 20  2  0  0  0  0
 19 47  1  0  0  0  0
 20 21  1  0  0  0  0
 20 48  1  0  0  0  0
 21 22  2  0  0  0  0
 22 23  1  0  0  0  0
 22 27  1  0  0  0  0
 23 24  2  0  0  0  0
 23 25  1  0  0  0  0
 25 26  1  0  0  0  0
 25 49  1  0  0  0  0
 26 50  1  0  0  0  0
 26 51  1  0  0  0  0
 26 52  1  0  0  0  0
 27 53  1  0  0  0  0
 28 29  1  0  0  0  0
 28 30  1  0  0  0  0
 30 54  1  0  0  0  0
 31 32  2  0  0  0  0
 32 33  1  0  0  0  0
 32 55  1  0  0  0  0
 34 35  1  0  0  0  0
 34 56  1  0  0  0  0
 35 57  1  0  0  0  0
M  END
$$$$
