CHEMBL1807392
 OpenBabel04072215363D

 65 69  0  0  0  0  0  0  0  0999 V2000
    2.4342   -0.5507   -0.0731 C   0  0  0  0  0  0  0  0  0  0  0  0
    1.0721   -0.0766   -0.3092 N   0  0  0  0  0  0  0  0  0  0  0  0
    0.1543   -1.2185   -0.5311 C   0  0  0  0  0  0  0  0  0  0  0  0
   -1.3204   -0.7795   -0.7166 C   0  0  0  0  0  0  0  0  0  0  0  0
   -1.7302    0.0201    0.4501 N   0  0  0  0  0  0  0  0  0  0  0  0
   -3.0175    0.0071    0.9419 C   0  0  0  0  0  0  0  0  0  0  0  0
   -3.2577    0.3402    2.2856 C   0  0  0  0  0  0  0  0  0  0  0  0
   -4.5334    0.2774    2.8560 C   0  0  0  0  0  0  0  0  0  0  0  0
   -5.6117   -0.1304    2.0741 C   0  0  0  0  0  0  0  0  0  0  0  0
   -6.9922   -0.2167    2.6010 C   0  0  0  0  0  0  0  0  0  0  0  0
   -7.9541   -0.1479    1.8529 O   0  0  0  0  0  0  0  0  0  0  0  0
   -7.1607   -0.3914    4.0217 N   0  0  0  0  0  0  0  0  0  0  0  0
   -8.4128   -0.5184    4.6151 C   0  0  0  0  0  0  0  0  0  0  0  0
   -9.6310   -0.7213    4.0165 C   0  0  0  0  0  0  0  0  0  0  0  0
  -10.5854   -0.7793    5.0658 C   0  0  0  0  0  0  0  0  0  0  0  0
  -12.0268   -0.9919    4.9352 C   0  0  0  0  0  0  0  0  0  0  0  0
  -12.6889   -0.6925    3.7331 C   0  0  0  0  0  0  0  0  0  0  0  0
  -14.0517   -0.9575    3.5873 C   0  0  0  0  0  0  0  0  0  0  0  0
  -14.7627   -1.5280    4.6402 C   0  0  0  0  0  0  0  0  0  0  0  0
  -14.1209   -1.7984    5.8478 C   0  0  0  0  0  0  0  0  0  0  0  0
  -14.8568   -2.3958    6.9055 N   0  0  0  0  0  0  0  0  0  0  0  0
  -15.0504   -4.0761    6.9172 S   0  0  0  0  0  0  0  0  0  0  0  0
  -15.8114   -4.3839    8.1102 O   0  0  0  0  0  0  0  0  0  0  0  0
  -15.4856   -4.5227    5.6113 O   0  0  0  0  0  0  0  0  0  0  0  0
  -13.3944   -4.6810    7.1835 C   0  0  0  0  0  0  0  0  0  0  0  0
  -12.9355   -4.8684    8.4936 C   0  0  0  0  0  0  0  0  0  0  0  0
  -11.6601   -5.3979    8.7060 C   0  0  0  0  0  0  0  0  0  0  0  0
  -10.8538   -5.7347    7.6186 C   0  0  0  0  0  0  0  0  0  0  0  0
  -11.3201   -5.5550    6.3145 C   0  0  0  0  0  0  0  0  0  0  0  0
  -12.5965   -5.0352    6.0926 C   0  0  0  0  0  0  0  0  0  0  0  0
  -12.7613   -1.5302    6.0003 C   0  0  0  0  0  0  0  0  0  0  0  0
   -9.9802   -0.6414    6.2566 N   0  0  0  0  0  0  0  0  0  0  0  0
   -8.6810   -0.4882    5.9574 N   0  0  0  0  0  0  0  0  0  0  0  0
   -5.4033   -0.4516    0.7284 C   0  0  0  0  0  0  0  0  0  0  0  0
   -4.1193   -0.3891    0.1771 C   0  0  0  0  0  0  0  0  0  0  0  0
   -0.8652    1.1956    0.6691 C   0  0  0  0  0  0  0  0  0  0  0  0
    0.5969    0.7258    0.8412 C   0  0  0  0  0  0  0  0  0  0  0  0
    2.7981   -1.1152   -0.9382 H   0  0  0  0  0  0  0  0  0  0  0  0
    2.5036   -1.1929    0.8126 H   0  0  0  0  0  0  0  0  0  0  0  0
    3.1151    0.2966    0.0622 H   0  0  0  0  0  0  0  0  0  0  0  0
    0.2029   -1.9090    0.3229 H   0  0  0  0  0  0  0  0  0  0  0  0
    0.4657   -1.7756   -1.4221 H   0  0  0  0  0  0  0  0  0  0  0  0
   -1.9281   -1.6863   -0.8169 H   0  0  0  0  0  0  0  0  0  0  0  0
   -1.4309   -0.1917   -1.6368 H   0  0  0  0  0  0  0  0  0  0  0  0
   -2.4218    0.6214    2.9236 H   0  0  0  0  0  0  0  0  0  0  0  0
   -4.6380    0.5717    3.8940 H   0  0  0  0  0  0  0  0  0  0  0  0
   -6.3486   -0.4378    4.6202 H   0  0  0  0  0  0  0  0  0  0  0  0
   -9.8376   -0.8434    2.9637 H   0  0  0  0  0  0  0  0  0  0  0  0
  -12.1594   -0.2474    2.8936 H   0  0  0  0  0  0  0  0  0  0  0  0
  -14.5570   -0.7236    2.6530 H   0  0  0  0  0  0  0  0  0  0  0  0
  -15.8213   -1.7473    4.5195 H   0  0  0  0  0  0  0  0  0  0  0  0
  -14.7155   -2.0205    7.8415 H   0  0  0  0  0  0  0  0  0  0  0  0
  -13.5709   -4.6336    9.3458 H   0  0  0  0  0  0  0  0  0  0  0  0
  -11.3012   -5.5580    9.7213 H   0  0  0  0  0  0  0  0  0  0  0  0
   -9.8652   -6.1554    7.7887 H   0  0  0  0  0  0  0  0  0  0  0  0
  -10.6944   -5.8374    5.4711 H   0  0  0  0  0  0  0  0  0  0  0  0
  -12.9622   -4.9156    5.0749 H   0  0  0  0  0  0  0  0  0  0  0  0
  -12.2605   -1.7639    6.9363 H   0  0  0  0  0  0  0  0  0  0  0  0
   -8.0371   -0.3460    6.7267 H   0  0  0  0  0  0  0  0  0  0  0  0
   -6.2345   -0.7559    0.0932 H   0  0  0  0  0  0  0  0  0  0  0  0
   -4.0020   -0.6395   -0.8751 H   0  0  0  0  0  0  0  0  0  0  0  0
   -1.1521    1.7781    1.5507 H   0  0  0  0  0  0  0  0  0  0  0  0
   -0.9428    1.8708   -0.1936 H   0  0  0  0  0  0  0  0  0  0  0  0
    0.6672    0.1389    1.7677 H   0  0  0  0  0  0  0  0  0  0  0  0
    1.2331    1.6102    0.9615 H   0  0  0  0  0  0  0  0  0  0  0  0
  1  2  1  0  0  0  0
  1 38  1  0  0  0  0
  1 39  1  0  0  0  0
  1 40  1  0  0  0  0
  2  3  1  0  0  0  0
  2 37  1  0  0  0  0
  3  4  1  0  0  0  0
  3 41  1  0  0  0  0
  3 42  1  0  0  0  0
  4  5  1  0  0  0  0
  4 43  1  0  0  0  0
  4 44  1  0  0  0  0
  5  6  1  0  0  0  0
  5 36  1  0  0  0  0
  6  7  1  0  0  0  0
  6 35  2  0  0  0  0
  7  8  2  0  0  0  0
  7 45  1  0  0  0  0
  8  9  1  0  0  0  0
  8 46  1  0  0  0  0
  9 10  1  0  0  0  0
  9 34  2  0  0  0  0
 10 11  2  0  0  0  0
 10 12  1  0  0  0  0
 12 13  1  0  0  0  0
 12 47  1  0  0  0  0
 13 14  2  0  0  0  0
 13 33  1  0  0  0  0
 14 15  1  0  0  0  0
 14 48  1  0  0  0  0
 15 16  1  0  0  0  0
 15 32  2  0  0  0  0
 16 17  1  0  0  0  0
 16 31  2  0  0  0  0
 17 18  2  0  0  0  0
 17 49  1  0  0  0  0
 18 19  1  0  0  0  0
 18 50  1  0  0  0  0
 19 20  2  0  0  0  0
 19 51  1  0  0  0  0
 20 21  1  0  0  0  0
 20 31  1  0  0  0  0
 21 22  1  0  0  0  0
 21 52  1  0  0  0  0
 22 23  2  0  0  0  0
 22 24  2  0  0  0  0
 22 25  1  0  0  0  0
 25 26  1  0  0  0  0
 25 30  2  0  0  0  0
 26 27  2  0  0  0  0
 26 53  1  0  0  0  0
 27 28  1  0  0  0  0
 27 54  1  0  0  0  0
 28 29  2  0  0  0  0
 28 55  1  0  0  0  0
 29 30  1  0  0  0  0
 29 56  1  0  0  0  0
 30 57  1  0  0  0  0
 31 58  1  0  0  0  0
 32 33  1  0  0  0  0
 33 59  1  0  0  0  0
 34 35  1  0  0  0  0
 34 60  1  0  0  0  0
 35 61  1  0  0  0  0
 36 37  1  0  0  0  0
 36 62  1  0  0  0  0
 36 63  1  0  0  0  0
 37 64  1  0  0  0  0
 37 65  1  0  0  0  0
M  END
$$$$
