CHEMBL2335379
 OpenBabel04072215363D

 45 48  0  0  0  0  0  0  0  0999 V2000
   -2.4983    0.6745   -3.1353 C   0  0  0  0  0  0  0  0  0  0  0  0
   -1.4621    0.5327   -2.5540 C   0  0  0  0  0  0  0  0  0  0  0  0
   -0.2247    0.3441   -1.8577 C   0  0  0  0  0  0  0  0  0  0  0  0
    0.3114   -0.9391   -1.7384 C   0  0  0  0  0  0  0  0  0  0  0  0
    1.5118   -1.1292   -1.0599 C   0  0  0  0  0  0  0  0  0  0  0  0
    2.1799   -0.0341   -0.5144 C   0  0  0  0  0  0  0  0  0  0  0  0
    1.6653    1.2638   -0.6419 C   0  0  0  0  0  0  0  0  0  0  0  0
    2.3226    2.3822   -0.0893 N   0  0  0  0  0  0  0  0  0  0  0  0
    3.7118    2.5164    0.0766 C   0  0  0  0  0  0  0  0  0  0  0  0
    4.5563    1.8753   -0.7720 N   0  0  0  0  0  0  0  0  0  0  0  0
    5.8791    1.9872   -0.6212 C   0  0  0  0  0  0  0  0  0  0  0  0
    6.6443    1.2953   -1.5431 N   0  0  0  0  0  0  0  0  0  0  0  0
    6.5153    2.7248    0.2962 N   0  0  0  0  0  0  0  0  0  0  0  0
    5.6656    3.3702    1.1084 C   0  0  0  0  0  0  0  0  0  0  0  0
    6.0365    4.1995    2.1352 N   0  0  0  0  0  0  0  0  0  0  0  0
    4.9189    4.7794    2.7003 C   0  0  0  0  0  0  0  0  0  0  0  0
    4.9589    5.8363    3.7694 C   0  0  0  0  0  0  0  0  0  0  0  0
    6.1351    6.8079    3.6492 C   0  0  0  0  0  0  0  0  0  0  0  0
    6.0758    7.9023    4.6871 C   0  0  0  0  0  0  0  0  0  0  0  0
    5.4131    9.1015    4.4224 C   0  0  0  0  0  0  0  0  0  0  0  0
    5.4114   10.0993    5.3948 C   0  0  0  0  0  0  0  0  0  0  0  0
    6.0595    9.8747    6.6021 C   0  0  0  0  0  0  0  0  0  0  0  0
    6.6791    8.6513    6.7915 C   0  0  0  0  0  0  0  0  0  0  0  0
    6.6971    7.6654    5.8662 N   0  0  0  0  0  0  0  0  0  0  0  0
    3.8189    4.1828    2.1047 C   0  0  0  0  0  0  0  0  0  0  0  0
    4.2829    3.3294    1.0663 C   0  0  0  0  0  0  0  0  0  0  0  0
    0.4440    1.4401   -1.3026 C   0  0  0  0  0  0  0  0  0  0  0  0
   -3.4201    0.7968   -3.6538 H   0  0  0  0  0  0  0  0  0  0  0  0
   -0.1996   -1.7947   -2.1727 H   0  0  0  0  0  0  0  0  0  0  0  0
    1.9342   -2.1246   -0.9564 H   0  0  0  0  0  0  0  0  0  0  0  0
    3.1148   -0.2030    0.0151 H   0  0  0  0  0  0  0  0  0  0  0  0
    1.7900    2.8145    0.6550 H   0  0  0  0  0  0  0  0  0  0  0  0
    6.0841    1.1442   -2.3728 H   0  0  0  0  0  0  0  0  0  0  0  0
    7.5382    1.7465   -1.6640 H   0  0  0  0  0  0  0  0  0  0  0  0
    6.9999    4.3723    2.3845 H   0  0  0  0  0  0  0  0  0  0  0  0
    4.9563    5.3536    4.7539 H   0  0  0  0  0  0  0  0  0  0  0  0
    4.0231    6.4087    3.7030 H   0  0  0  0  0  0  0  0  0  0  0  0
    6.1706    7.2546    2.6478 H   0  0  0  0  0  0  0  0  0  0  0  0
    7.0820    6.2686    3.7759 H   0  0  0  0  0  0  0  0  0  0  0  0
    4.9152    9.2669    3.4725 H   0  0  0  0  0  0  0  0  0  0  0  0
    4.9130   11.0469    5.2084 H   0  0  0  0  0  0  0  0  0  0  0  0
    6.0841   10.6350    7.3764 H   0  0  0  0  0  0  0  0  0  0  0  0
    7.1968    8.4266    7.7192 H   0  0  0  0  0  0  0  0  0  0  0  0
    2.7873    4.3827    2.3628 H   0  0  0  0  0  0  0  0  0  0  0  0
    0.0321    2.4396   -1.4169 H   0  0  0  0  0  0  0  0  0  0  0  0
  1  2  3  0  0  0  0
  1 28  1  0  0  0  0
  2  3  1  0  0  0  0
  3  4  1  0  0  0  0
  3 27  2  0  0  0  0
  4  5  2  0  0  0  0
  4 29  1  0  0  0  0
  5  6  1  0  0  0  0
  5 30  1  0  0  0  0
  6  7  2  0  0  0  0
  6 31  1  0  0  0  0
  7  8  1  0  0  0  0
  7 27  1  0  0  0  0
  8  9  1  0  0  0  0
  8 32  1  0  0  0  0
  9 10  1  0  0  0  0
  9 26  2  0  0  0  0
 10 11  2  0  0  0  0
 11 12  1  0  0  0  0
 11 13  1  0  0  0  0
 12 33  1  0  0  0  0
 12 34  1  0  0  0  0
 13 14  2  0  0  0  0
 14 15  1  0  0  0  0
 14 26  1  0  0  0  0
 15 16  1  0  0  0  0
 15 35  1  0  0  0  0
 16 17  1  0  0  0  0
 16 25  2  0  0  0  0
 17 18  1  0  0  0  0
 17 36  1  0  0  0  0
 17 37  1  0  0  0  0
 18 19  1  0  0  0  0
 18 38  1  0  0  0  0
 18 39  1  0  0  0  0
 19 20  1  0  0  0  0
 19 24  2  0  0  0  0
 20 21  2  0  0  0  0
 20 40  1  0  0  0  0
 21 22  1  0  0  0  0
 21 41  1  0  0  0  0
 22 23  2  0  0  0  0
 22 42  1  0  0  0  0
 23 24  1  0  0  0  0
 23 43  1  0  0  0  0
 25 26  1  0  0  0  0
 25 44  1  0  0  0  0
 27 45  1  0  0  0  0
M  END
$$$$
