CHEMBL1288582
 OpenBabel04072215363D

 32 35  0  0  0  0  0  0  0  0999 V2000
    1.4985   -0.2740    0.8778 C   0  0  0  0  0  0  0  0  0  0  0  0
    2.5956    0.0385    0.0244 O   0  0  0  0  0  0  0  0  0  0  0  0
    3.1729    1.2718    0.1964 C   0  0  0  0  0  0  0  0  0  0  0  0
    2.7830    2.2076    1.1549 C   0  0  0  0  0  0  0  0  0  0  0  0
    3.4356    3.4405    1.2604 C   0  0  0  0  0  0  0  0  0  0  0  0
    4.4856    3.7455    0.3789 C   0  0  0  0  0  0  0  0  0  0  0  0
    5.3205    4.8779    0.2163 C   0  0  0  0  0  0  0  0  0  0  0  0
    6.1456    4.6415   -0.8599 C   0  0  0  0  0  0  0  0  0  0  0  0
    7.1259    5.6098   -1.4205 C   0  0  0  0  0  0  0  0  0  0  0  0
    7.3319    6.7958   -0.8244 N   0  0  0  0  0  0  0  0  0  0  0  0
    8.2335    7.3977   -1.6150 N   0  0  0  0  0  0  0  0  0  0  0  0
    8.6048    6.6671   -2.7053 C   0  0  0  0  0  0  0  0  0  0  0  0
    9.4662    6.9341   -3.7664 C   0  0  0  0  0  0  0  0  0  0  0  0
    9.5685    5.9228   -4.7163 C   0  0  0  0  0  0  0  0  0  0  0  0
    8.8404    4.7489   -4.5475 C   0  0  0  0  0  0  0  0  0  0  0  0
    8.0050    4.4710   -3.5176 N   0  0  0  0  0  0  0  0  0  0  0  0
    7.9040    5.4710   -2.6004 C   0  0  0  0  0  0  0  0  0  0  0  0
    5.8779    3.3789   -1.3270 N   0  0  0  0  0  0  0  0  0  0  0  0
    4.8580    2.8090   -0.5859 C   0  0  0  0  0  0  0  0  0  0  0  0
    4.2267    1.5588   -0.6883 C   0  0  0  0  0  0  0  0  0  0  0  0
    1.1470   -1.2789    0.6254 H   0  0  0  0  0  0  0  0  0  0  0  0
    0.6647    0.4187    0.7185 H   0  0  0  0  0  0  0  0  0  0  0  0
    1.8053   -0.2858    1.9295 H   0  0  0  0  0  0  0  0  0  0  0  0
    1.9680    2.0179    1.8448 H   0  0  0  0  0  0  0  0  0  0  0  0
    3.1234    4.1617    2.0100 H   0  0  0  0  0  0  0  0  0  0  0  0
    5.2946    5.7901    0.7975 H   0  0  0  0  0  0  0  0  0  0  0  0
    8.5433    8.3276   -1.3561 H   0  0  0  0  0  0  0  0  0  0  0  0
   10.0090    7.8681   -3.8562 H   0  0  0  0  0  0  0  0  0  0  0  0
   10.2077    6.0499   -5.5846 H   0  0  0  0  0  0  0  0  0  0  0  0
    8.9170    3.9582   -5.2911 H   0  0  0  0  0  0  0  0  0  0  0  0
    6.3477    2.9460   -2.1119 H   0  0  0  0  0  0  0  0  0  0  0  0
    4.5302    0.8319   -1.4350 H   0  0  0  0  0  0  0  0  0  0  0  0
  1  2  1  0  0  0  0
  1 21  1  0  0  0  0
  1 22  1  0  0  0  0
  1 23  1  0  0  0  0
  2  3  1  0  0  0  0
  3  4  1  0  0  0  0
  3 20  2  0  0  0  0
  4  5  2  0  0  0  0
  4 24  1  0  0  0  0
  5  6  1  0  0  0  0
  5 25  1  0  0  0  0
  6  7  1  0  0  0  0
  6 19  2  0  0  0  0
  7  8  2  0  0  0  0
  7 26  1  0  0  0  0
  8  9  1  0  0  0  0
  8 18  1  0  0  0  0
  9 10  2  0  0  0  0
  9 17  1  0  0  0  0
 10 11  1  0  0  0  0
 11 12  1  0  0  0  0
 11 27  1  0  0  0  0
 12 13  1  0  0  0  0
 12 17  2  0  0  0  0
 13 14  2  0  0  0  0
 13 28  1  0  0  0  0
 14 15  1  0  0  0  0
 14 29  1  0  0  0  0
 15 16  2  0  0  0  0
 15 30  1  0  0  0  0
 16 17  1  0  0  0  0
 18 19  1  0  0  0  0
 18 31  1  0  0  0  0
 19 20  1  0  0  0  0
 20 32  1  0  0  0  0
M  END
$$$$
