CHEMBL3910242
 OpenBabel04072215373D

 73 77  0  0  0  0  0  0  0  0999 V2000
   -8.4379   16.3753    1.4480 C   0  0  0  0  0  0  0  0  0  0  0  0
   -8.1071   15.0740    0.7741 C   0  0  0  0  0  0  0  0  0  0  0  0
   -7.7143   15.0742   -0.5677 C   0  0  0  0  0  0  0  0  0  0  0  0
   -7.3713   13.8814   -1.1902 C   0  0  0  0  0  0  0  0  0  0  0  0
   -7.4358   12.6821   -0.4885 C   0  0  0  0  0  0  0  0  0  0  0  0
   -6.9552   11.6072   -1.1252 F   0  0  0  0  0  0  0  0  0  0  0  0
   -7.8889   12.6313    0.8387 C   0  0  0  0  0  0  0  0  0  0  0  0
   -8.0641   11.4321    1.5850 N   0  0  0  0  0  0  0  0  0  0  0  0
   -8.1770   10.1614    1.0443 C   0  0  0  0  0  0  0  0  0  0  0  0
   -8.1743    9.8870   -0.1484 O   0  0  0  0  0  0  0  0  0  0  0  0
   -8.3771    9.1882    2.0195 N   0  0  0  0  0  0  0  0  0  0  0  0
   -8.5095    7.8328    1.6054 C   0  0  0  0  0  0  0  0  0  0  0  0
   -7.5545    7.2132    0.7937 C   0  0  0  0  0  0  0  0  0  0  0  0
   -7.7546    5.8984    0.3529 C   0  0  0  0  0  0  0  0  0  0  0  0
   -8.9156    5.2048    0.7096 C   0  0  0  0  0  0  0  0  0  0  0  0
   -9.0461    3.9377    0.1898 O   0  0  0  0  0  0  0  0  0  0  0  0
   -9.7125    2.9654    0.9104 C   0  0  0  0  0  0  0  0  0  0  0  0
   -9.6497    2.8648    2.2999 C   0  0  0  0  0  0  0  0  0  0  0  0
  -10.3535    1.8588    2.9317 C   0  0  0  0  0  0  0  0  0  0  0  0
  -11.0752    0.9100    2.3115 N   0  0  0  0  0  0  0  0  0  0  0  0
  -11.0816    0.9644    0.9531 C   0  0  0  0  0  0  0  0  0  0  0  0
  -11.7457    0.0311    0.1071 C   0  0  0  0  0  0  0  0  0  0  0  0
  -11.5875    0.3111   -1.2360 C   0  0  0  0  0  0  0  0  0  0  0  0
  -12.1345   -0.4473   -2.3536 C   0  0  0  0  0  0  0  0  0  0  0  0
  -12.8395   -1.4394   -2.2027 O   0  0  0  0  0  0  0  0  0  0  0  0
  -11.8048    0.0213   -3.6126 N   0  0  0  0  0  0  0  0  0  0  0  0
  -12.3249   -0.5642   -4.8294 C   0  0  0  0  0  0  0  0  0  0  0  0
  -13.6891    0.0182   -5.1907 C   0  0  0  0  0  0  0  0  0  0  0  0
  -14.2400   -0.6239   -6.4700 C   0  0  0  0  0  0  0  0  0  0  0  0
  -15.5348   -0.0601   -6.9036 N   0  0  0  0  0  0  0  0  0  0  0  0
  -16.6012   -0.3208   -5.9224 C   0  0  0  0  0  0  0  0  0  0  0  0
  -17.9414    0.2656   -6.3666 C   0  0  0  0  0  0  0  0  0  0  0  0
  -18.3459   -0.2161   -7.7532 C   0  0  0  0  0  0  0  0  0  0  0  0
  -18.7498   -1.5839   -7.7141 O   0  0  0  0  0  0  0  0  0  0  0  0
  -17.2083   -0.0226   -8.7480 C   0  0  0  0  0  0  0  0  0  0  0  0
  -15.8905   -0.5992   -8.2288 C   0  0  0  0  0  0  0  0  0  0  0  0
  -10.6402    1.7220   -1.4599 S   0  0  0  0  0  0  0  0  0  0  0  0
  -10.4236    1.9587    0.2302 C   0  0  0  0  0  0  0  0  0  0  0  0
   -9.8884    5.8371    1.4890 C   0  0  0  0  0  0  0  0  0  0  0  0
   -9.6559    7.1226    1.9658 C   0  0  0  0  0  0  0  0  0  0  0  0
  -10.5877    7.7143    2.7332 F   0  0  0  0  0  0  0  0  0  0  0  0
   -8.1922   13.8507    1.4718 C   0  0  0  0  0  0  0  0  0  0  0  0
   -8.2987   17.2216    0.7649 H   0  0  0  0  0  0  0  0  0  0  0  0
   -7.7806   16.5365    2.3079 H   0  0  0  0  0  0  0  0  0  0  0  0
   -9.4817   16.3823    1.7754 H   0  0  0  0  0  0  0  0  0  0  0  0
   -7.6514   16.0019   -1.1322 H   0  0  0  0  0  0  0  0  0  0  0  0
   -7.0352   13.8686   -2.2222 H   0  0  0  0  0  0  0  0  0  0  0  0
   -8.2550   11.5275    2.5714 H   0  0  0  0  0  0  0  0  0  0  0  0
   -9.0395    9.4665    2.7329 H   0  0  0  0  0  0  0  0  0  0  0  0
   -6.6589    7.7493    0.4852 H   0  0  0  0  0  0  0  0  0  0  0  0
   -7.0108    5.4285   -0.2868 H   0  0  0  0  0  0  0  0  0  0  0  0
   -9.0735    3.5648    2.8948 H   0  0  0  0  0  0  0  0  0  0  0  0
  -10.3510    1.7903    4.0173 H   0  0  0  0  0  0  0  0  0  0  0  0
  -12.3110   -0.8177    0.4728 H   0  0  0  0  0  0  0  0  0  0  0  0
  -11.2831    0.8863   -3.6706 H   0  0  0  0  0  0  0  0  0  0  0  0
  -12.3955   -1.6501   -4.7010 H   0  0  0  0  0  0  0  0  0  0  0  0
  -11.5961   -0.3593   -5.6201 H   0  0  0  0  0  0  0  0  0  0  0  0
  -13.6037    1.1042   -5.3240 H   0  0  0  0  0  0  0  0  0  0  0  0
  -14.3683   -0.1460   -4.3477 H   0  0  0  0  0  0  0  0  0  0  0  0
  -14.3205   -1.7105   -6.3359 H   0  0  0  0  0  0  0  0  0  0  0  0
  -13.5016   -0.4553   -7.2655 H   0  0  0  0  0  0  0  0  0  0  0  0
  -16.3615    0.1487   -4.9631 H   0  0  0  0  0  0  0  0  0  0  0  0
  -16.7036   -1.3976   -5.7379 H   0  0  0  0  0  0  0  0  0  0  0  0
  -17.8669    1.3607   -6.3717 H   0  0  0  0  0  0  0  0  0  0  0  0
  -18.7077   -0.0088   -5.6323 H   0  0  0  0  0  0  0  0  0  0  0  0
  -19.2216    0.3491   -8.0896 H   0  0  0  0  0  0  0  0  0  0  0  0
  -18.0092   -2.1212   -7.3887 H   0  0  0  0  0  0  0  0  0  0  0  0
  -17.0783    1.0491   -8.9448 H   0  0  0  0  0  0  0  0  0  0  0  0
  -17.4568   -0.5053   -9.7005 H   0  0  0  0  0  0  0  0  0  0  0  0
  -15.1068   -0.3435   -8.9529 H   0  0  0  0  0  0  0  0  0  0  0  0
  -15.9513   -1.6949   -8.1985 H   0  0  0  0  0  0  0  0  0  0  0  0
  -10.8320    5.3572    1.7209 H   0  0  0  0  0  0  0  0  0  0  0  0
   -8.5204   13.8639    2.5089 H   0  0  0  0  0  0  0  0  0  0  0  0
  1  2  1  0  0  0  0
  1 43  1  0  0  0  0
  1 44  1  0  0  0  0
  1 45  1  0  0  0  0
  2  3  1  0  0  0  0
  2 42  2  0  0  0  0
  3  4  2  0  0  0  0
  3 46  1  0  0  0  0
  4  5  1  0  0  0  0
  4 47  1  0  0  0  0
  5  6  1  0  0  0  0
  5  7  2  0  0  0  0
  7  8  1  0  0  0  0
  7 42  1  0  0  0  0
  8  9  1  0  0  0  0
  8 48  1  0  0  0  0
  9 10  2  0  0  0  0
  9 11  1  0  0  0  0
 11 12  1  0  0  0  0
 11 49  1  0  0  0  0
 12 13  1  0  0  0  0
 12 40  2  0  0  0  0
 13 14  2  0  0  0  0
 13 50  1  0  0  0  0
 14 15  1  0  0  0  0
 14 51  1  0  0  0  0
 15 16  1  0  0  0  0
 15 39  2  0  0  0  0
 16 17  1  0  0  0  0
 17 18  1  0  0  0  0
 17 38  2  0  0  0  0
 18 19  2  0  0  0  0
 18 52  1  0  0  0  0
 19 20  1  0  0  0  0
 19 53  1  0  0  0  0
 20 21  2  0  0  0  0
 21 22  1  0  0  0  0
 21 38  1  0  0  0  0
 22 23  2  0  0  0  0
 22 54  1  0  0  0  0
 23 24  1  0  0  0  0
 23 37  1  0  0  0  0
 24 25  2  0  0  0  0
 24 26  1  0  0  0  0
 26 27  1  0  0  0  0
 26 55  1  0  0  0  0
 27 28  1  0  0  0  0
 27 56  1  0  0  0  0
 27 57  1  0  0  0  0
 28 29  1  0  0  0  0
 28 58  1  0  0  0  0
 28 59  1  0  0  0  0
 29 30  1  0  0  0  0
 29 60  1  0  0  0  0
 29 61  1  0  0  0  0
 30 31  1  0  0  0  0
 30 36  1  0  0  0  0
 31 32  1  0  0  0  0
 31 62  1  0  0  0  0
 31 63  1  0  0  0  0
 32 33  1  0  0  0  0
 32 64  1  0  0  0  0
 32 65  1  0  0  0  0
 33 34  1  0  0  0  0
 33 35  1  0  0  0  0
 33 66  1  0  0  0  0
 34 67  1  0  0  0  0
 35 36  1  0  0  0  0
 35 68  1  0  0  0  0
 35 69  1  0  0  0  0
 36 70  1  0  0  0  0
 36 71  1  0  0  0  0
 37 38  1  0  0  0  0
 39 40  1  0  0  0  0
 39 72  1  0  0  0  0
 40 41  1  0  0  0  0
 42 73  1  0  0  0  0
M  END
$$$$
