CHEMBL4160813
 OpenBabel04072215383D

 48 50  0  0  0  0  0  0  0  0999 V2000
    5.2200   -4.5449   -2.9215 C   0  0  0  0  0  0  0  0  0  0  0  0
    5.8264   -4.7036   -1.7312 C   0  0  0  0  0  0  0  0  0  0  0  0
    5.4122   -3.8938   -0.5582 C   0  0  0  0  0  0  0  0  0  0  0  0
    4.4141   -3.1785   -0.5901 O   0  0  0  0  0  0  0  0  0  0  0  0
    6.2970   -3.9956    0.4880 N   0  0  0  0  0  0  0  0  0  0  0  0
    6.1569   -3.2749    1.6769 C   0  0  0  0  0  0  0  0  0  0  0  0
    4.9348   -3.1356    2.3139 C   0  0  0  0  0  0  0  0  0  0  0  0
    4.8862   -2.4050    3.4947 C   0  0  0  0  0  0  0  0  0  0  0  0
    6.0463   -1.7980    3.9719 C   0  0  0  0  0  0  0  0  0  0  0  0
    7.2390   -1.9793    3.2791 C   0  0  0  0  0  0  0  0  0  0  0  0
    8.5260   -1.3815    3.7015 C   0  0  0  0  0  0  0  0  0  0  0  0
    9.7243   -1.9931    3.3150 C   0  0  0  0  0  0  0  0  0  0  0  0
   10.9661   -1.5021    3.7199 C   0  0  0  0  0  0  0  0  0  0  0  0
   11.0750   -0.3659    4.5173 C   0  0  0  0  0  0  0  0  0  0  0  0
   12.3187    0.1336    4.9800 N   0  0  0  0  0  0  0  0  0  0  0  0
   13.5585   -0.3646    4.6265 C   0  0  0  0  0  0  0  0  0  0  0  0
   13.7496   -1.2397    3.7822 O   0  0  0  0  0  0  0  0  0  0  0  0
   14.5945    0.1956    5.3621 N   0  0  0  0  0  0  0  0  0  0  0  0
   15.9222   -0.2433    5.1139 C   0  0  0  0  0  0  0  0  0  0  0  0
   16.4108   -0.3548    3.8089 C   0  0  0  0  0  0  0  0  0  0  0  0
   17.6589   -0.9279    3.5616 C   0  0  0  0  0  0  0  0  0  0  0  0
   18.4450   -1.4017    4.6197 C   0  0  0  0  0  0  0  0  0  0  0  0
   19.7469   -2.0871    4.3175 C   0  0  0  0  0  0  0  0  0  0  0  0
   17.9633   -1.2470    5.9306 C   0  0  0  0  0  0  0  0  0  0  0  0
   18.8567   -1.8368    7.2890 Cl  0  0  0  0  0  0  0  0  0  0  0  0
   16.7201   -0.6458    6.1841 C   0  0  0  0  0  0  0  0  0  0  0  0
    9.8943    0.2855    4.8894 C   0  0  0  0  0  0  0  0  0  0  0  0
    8.6389   -0.2159    4.4821 C   0  0  0  0  0  0  0  0  0  0  0  0
    7.2986   -2.7643    2.1695 N   0  0  0  0  0  0  0  0  0  0  0  0
    5.4935   -5.1554   -3.7729 H   0  0  0  0  0  0  0  0  0  0  0  0
    4.4379   -3.8046   -3.0618 H   0  0  0  0  0  0  0  0  0  0  0  0
    6.6001   -5.4488   -1.6018 H   0  0  0  0  0  0  0  0  0  0  0  0
    7.2508   -4.2639    0.2906 H   0  0  0  0  0  0  0  0  0  0  0  0
    4.0403   -3.6116    1.9264 H   0  0  0  0  0  0  0  0  0  0  0  0
    3.9499   -2.3062    4.0371 H   0  0  0  0  0  0  0  0  0  0  0  0
    6.0047   -1.2172    4.8862 H   0  0  0  0  0  0  0  0  0  0  0  0
    9.7090   -2.8852    2.6915 H   0  0  0  0  0  0  0  0  0  0  0  0
   11.8267   -2.0664    3.3827 H   0  0  0  0  0  0  0  0  0  0  0  0
   12.3052    0.9841    5.5263 H   0  0  0  0  0  0  0  0  0  0  0  0
   14.3572    0.3914    6.3251 H   0  0  0  0  0  0  0  0  0  0  0  0
   15.8062   -0.0331    2.9630 H   0  0  0  0  0  0  0  0  0  0  0  0
   17.9933   -1.0296    2.5314 H   0  0  0  0  0  0  0  0  0  0  0  0
   19.9637   -2.0807    3.2436 H   0  0  0  0  0  0  0  0  0  0  0  0
   19.7085   -3.1337    4.6369 H   0  0  0  0  0  0  0  0  0  0  0  0
   20.5738   -1.5775    4.8210 H   0  0  0  0  0  0  0  0  0  0  0  0
   16.3568   -0.5785    7.2000 H   0  0  0  0  0  0  0  0  0  0  0  0
    9.9214    1.1836    5.5001 H   0  0  0  0  0  0  0  0  0  0  0  0
    7.7493    0.3344    4.7810 H   0  0  0  0  0  0  0  0  0  0  0  0
  1  2  2  0  0  0  0
  1 30  1  0  0  0  0
  1 31  1  0  0  0  0
  2  3  1  0  0  0  0
  2 32  1  0  0  0  0
  3  4  2  0  0  0  0
  3  5  1  0  0  0  0
  5  6  1  0  0  0  0
  5 33  1  0  0  0  0
  6  7  1  0  0  0  0
  6 29  2  0  0  0  0
  7  8  2  0  0  0  0
  7 34  1  0  0  0  0
  8  9  1  0  0  0  0
  8 35  1  0  0  0  0
  9 10  2  0  0  0  0
  9 36  1  0  0  0  0
 10 11  1  0  0  0  0
 10 29  1  0  0  0  0
 11 12  1  0  0  0  0
 11 28  2  0  0  0  0
 12 13  2  0  0  0  0
 12 37  1  0  0  0  0
 13 14  1  0  0  0  0
 13 38  1  0  0  0  0
 14 15  1  0  0  0  0
 14 27  2  0  0  0  0
 15 16  1  0  0  0  0
 15 39  1  0  0  0  0
 16 17  2  0  0  0  0
 16 18  1  0  0  0  0
 18 19  1  0  0  0  0
 18 40  1  0  0  0  0
 19 20  1  0  0  0  0
 19 26  2  0  0  0  0
 20 21  2  0  0  0  0
 20 41  1  0  0  0  0
 21 22  1  0  0  0  0
 21 42  1  0  0  0  0
 22 23  1  0  0  0  0
 22 24  2  0  0  0  0
 23 43  1  0  0  0  0
 23 44  1  0  0  0  0
 23 45  1  0  0  0  0
 24 25  1  0  0  0  0
 24 26  1  0  0  0  0
 26 46  1  0  0  0  0
 27 28  1  0  0  0  0
 27 47  1  0  0  0  0
 28 48  1  0  0  0  0
M  END
$$$$
