CHEMBL4104599
 OpenBabel04072215383D

 56 60  0  0  0  0  0  0  0  0999 V2000
   -2.4116    2.9983   -3.8744 N   0  0  0  0  0  0  0  0  0  0  0  0
   -3.5375    2.4093   -3.4517 C   0  0  0  0  0  0  0  0  0  0  0  0
   -4.1911    1.5833   -4.2651 N   0  0  0  0  0  0  0  0  0  0  0  0
   -5.2444    1.2028   -3.5546 N   0  0  0  0  0  0  0  0  0  0  0  0
   -5.3154    1.7478   -2.2984 C   0  0  0  0  0  0  0  0  0  0  0  0
   -6.2821    1.5813   -1.3044 C   0  0  0  0  0  0  0  0  0  0  0  0
   -6.0761    2.2454   -0.1029 C   0  0  0  0  0  0  0  0  0  0  0  0
   -4.9505    3.0484    0.0780 C   0  0  0  0  0  0  0  0  0  0  0  0
   -3.9775    3.2479   -0.9381 C   0  0  0  0  0  0  0  0  0  0  0  0
   -2.8538    4.1815   -0.7160 C   0  0  0  0  0  0  0  0  0  0  0  0
   -1.5510    3.9221   -1.1679 C   0  0  0  0  0  0  0  0  0  0  0  0
   -0.5478    4.8953   -1.1084 C   0  0  0  0  0  0  0  0  0  0  0  0
   -0.7935    6.0904   -0.4432 C   0  0  0  0  0  0  0  0  0  0  0  0
    0.1828    7.0817   -0.2976 N   0  0  0  0  0  0  0  0  0  0  0  0
    0.9239    7.5820   -1.3500 C   0  0  0  0  0  0  0  0  0  0  0  0
    0.8681    7.1856   -2.5082 O   0  0  0  0  0  0  0  0  0  0  0  0
    1.8542    8.7206   -1.0096 C   0  0  0  0  0  0  0  0  0  0  0  0
    2.0399    9.7370   -2.1088 C   0  0  0  0  0  0  0  0  0  0  0  0
    1.3919   10.7760   -2.0862 O   0  0  0  0  0  0  0  0  0  0  0  0
    3.0100    9.4035   -3.0294 N   0  0  0  0  0  0  0  0  0  0  0  0
    3.2559   10.0923   -4.2332 C   0  0  0  0  0  0  0  0  0  0  0  0
    2.1680   10.5325   -5.0046 C   0  0  0  0  0  0  0  0  0  0  0  0
    2.3683   11.2195   -6.2051 C   0  0  0  0  0  0  0  0  0  0  0  0
    3.6618   11.5144   -6.6152 C   0  0  0  0  0  0  0  0  0  0  0  0
    3.9474   12.5270   -8.1854 Br  0  0  0  0  0  0  0  0  0  0  0  0
    4.7515   11.0783   -5.8648 C   0  0  0  0  0  0  0  0  0  0  0  0
    4.5626   10.3206   -4.6979 C   0  0  0  0  0  0  0  0  0  0  0  0
    5.7325   10.0491   -4.0492 O   0  0  0  0  0  0  0  0  0  0  0  0
    5.9237    8.7991   -3.4157 C   0  0  0  0  0  0  0  0  0  0  0  0
    4.9165    7.9204   -3.6114 F   0  0  0  0  0  0  0  0  0  0  0  0
    7.0595    8.2387   -3.8823 F   0  0  0  0  0  0  0  0  0  0  0  0
    6.0609    8.9922   -2.0852 F   0  0  0  0  0  0  0  0  0  0  0  0
    3.0526    8.3618   -0.1250 C   0  0  0  0  0  0  0  0  0  0  0  0
    1.9967    9.2666    0.4214 C   0  0  0  0  0  0  0  0  0  0  0  0
   -2.0321    6.3180    0.1466 C   0  0  0  0  0  0  0  0  0  0  0  0
   -3.0623    5.3955   -0.0335 C   0  0  0  0  0  0  0  0  0  0  0  0
   -4.1788    2.5528   -2.1701 C   0  0  0  0  0  0  0  0  0  0  0  0
   -2.1852    2.8678   -4.8502 H   0  0  0  0  0  0  0  0  0  0  0  0
   -2.1675    3.9252   -3.5366 H   0  0  0  0  0  0  0  0  0  0  0  0
   -5.9183    0.5828   -3.9871 H   0  0  0  0  0  0  0  0  0  0  0  0
   -7.1575    0.9578   -1.4655 H   0  0  0  0  0  0  0  0  0  0  0  0
   -6.7997    2.1433    0.7037 H   0  0  0  0  0  0  0  0  0  0  0  0
   -4.8319    3.5415    1.0428 H   0  0  0  0  0  0  0  0  0  0  0  0
   -1.3061    2.9587   -1.6129 H   0  0  0  0  0  0  0  0  0  0  0  0
    0.4226    4.6876   -1.5519 H   0  0  0  0  0  0  0  0  0  0  0  0
    0.0916    7.6653    0.5176 H   0  0  0  0  0  0  0  0  0  0  0  0
    3.5173    8.5389   -2.8826 H   0  0  0  0  0  0  0  0  0  0  0  0
    1.1472   10.3108   -4.6971 H   0  0  0  0  0  0  0  0  0  0  0  0
    1.5111   11.5268   -6.7990 H   0  0  0  0  0  0  0  0  0  0  0  0
    5.7611   11.3388   -6.1758 H   0  0  0  0  0  0  0  0  0  0  0  0
    4.0204    8.8016   -0.3328 H   0  0  0  0  0  0  0  0  0  0  0  0
    3.1068    7.3500    0.2662 H   0  0  0  0  0  0  0  0  0  0  0  0
    2.2413   10.3194    0.5407 H   0  0  0  0  0  0  0  0  0  0  0  0
    1.3949    8.9015    1.2423 H   0  0  0  0  0  0  0  0  0  0  0  0
   -2.2386    7.2481    0.6686 H   0  0  0  0  0  0  0  0  0  0  0  0
   -4.0468    5.6535    0.3515 H   0  0  0  0  0  0  0  0  0  0  0  0
  1  2  1  0  0  0  0
  1 38  1  0  0  0  0
  1 39  1  0  0  0  0
  2  3  2  0  0  0  0
  2 37  1  0  0  0  0
  3  4  1  0  0  0  0
  4  5  1  0  0  0  0
  4 40  1  0  0  0  0
  5  6  1  0  0  0  0
  5 37  2  0  0  0  0
  6  7  2  0  0  0  0
  6 41  1  0  0  0  0
  7  8  1  0  0  0  0
  7 42  1  0  0  0  0
  8  9  2  0  0  0  0
  8 43  1  0  0  0  0
  9 10  1  0  0  0  0
  9 37  1  0  0  0  0
 10 11  1  0  0  0  0
 10 36  2  0  0  0  0
 11 12  2  0  0  0  0
 11 44  1  0  0  0  0
 12 13  1  0  0  0  0
 12 45  1  0  0  0  0
 13 14  1  0  0  0  0
 13 35  2  0  0  0  0
 14 15  1  0  0  0  0
 14 46  1  0  0  0  0
 15 16  2  0  0  0  0
 15 17  1  0  0  0  0
 17 18  1  0  0  0  0
 17 33  1  0  0  0  0
 17 34  1  0  0  0  0
 18 19  2  0  0  0  0
 18 20  1  0  0  0  0
 20 21  1  0  0  0  0
 20 47  1  0  0  0  0
 21 22  1  0  0  0  0
 21 27  2  0  0  0  0
 22 23  2  0  0  0  0
 22 48  1  0  0  0  0
 23 24  1  0  0  0  0
 23 49  1  0  0  0  0
 24 25  1  0  0  0  0
 24 26  2  0  0  0  0
 26 27  1  0  0  0  0
 26 50  1  0  0  0  0
 27 28  1  0  0  0  0
 28 29  1  0  0  0  0
 29 30  1  0  0  0  0
 29 31  1  0  0  0  0
 29 32  1  0  0  0  0
 33 34  1  0  0  0  0
 33 51  1  0  0  0  0
 33 52  1  0  0  0  0
 34 53  1  0  0  0  0
 34 54  1  0  0  0  0
 35 36  1  0  0  0  0
 35 55  1  0  0  0  0
 36 56  1  0  0  0  0
M  END
$$$$
