CHEMBL213195
 OpenBabel04072215363D

 47 51  0  0  0  0  0  0  0  0999 V2000
    1.9844    0.0201   -0.9898 C   0  0  0  0  0  0  0  0  0  0  0  0
    0.5382    0.2081   -1.0454 N   0  0  0  0  0  0  0  0  0  0  0  0
   -0.1699   -1.0322   -0.6902 C   0  0  0  0  0  0  0  0  0  0  0  0
   -1.7009   -0.8247   -0.7188 C   0  0  0  0  0  0  0  0  0  0  0  0
   -2.1876    0.2137    0.2167 N   0  0  0  0  0  0  0  0  0  0  0  0
   -2.0274   -0.1334    1.6425 C   0  0  0  0  0  0  0  0  0  0  0  0
   -2.7497   -1.3986    2.0776 C   0  0  0  0  0  0  0  0  0  0  0  0
   -2.0768   -2.6487    1.9958 C   0  0  0  0  0  0  0  0  0  0  0  0
   -2.7112   -3.8504    2.3069 C   0  0  0  0  0  0  0  0  0  0  0  0
   -4.0029   -3.7680    2.7565 C   0  0  0  0  0  0  0  0  0  0  0  0
   -4.6899   -2.5352    2.9229 C   0  0  0  0  0  0  0  0  0  0  0  0
   -4.0705   -1.3463    2.5601 C   0  0  0  0  0  0  0  0  0  0  0  0
   -6.0903   -2.7107    3.5477 C   0  0  0  0  0  0  0  0  0  0  0  0
   -6.0656   -4.1990    3.6583 C   0  0  0  0  0  0  0  0  0  0  0  0
   -6.8082   -5.2846    4.1531 C   0  0  0  0  0  0  0  0  0  0  0  0
   -8.1358   -5.2227    4.8433 C   0  0  0  0  0  0  0  0  0  0  0  0
   -8.7852   -6.3244    5.3613 C   0  0  0  0  0  0  0  0  0  0  0  0
  -10.0339   -5.9815    5.9588 C   0  0  0  0  0  0  0  0  0  0  0  0
  -10.2925   -4.6320    5.8688 C   0  0  0  0  0  0  0  0  0  0  0  0
   -9.0232   -3.7864    5.1011 S   0  0  0  0  0  0  0  0  0  0  0  0
   -6.1509   -6.4465    3.9544 N   0  0  0  0  0  0  0  0  0  0  0  0
   -4.9866   -6.0893    3.3647 N   0  0  0  0  0  0  0  0  0  0  0  0
   -4.9105   -4.7612    3.1978 C   0  0  0  0  0  0  0  0  0  0  0  0
   -1.4471    1.4605   -0.1041 C   0  0  0  0  0  0  0  0  0  0  0  0
    0.1000    1.3141   -0.1716 C   0  0  0  0  0  0  0  0  0  0  0  0
    2.2908   -0.8019   -1.6470 H   0  0  0  0  0  0  0  0  0  0  0  0
    2.3373   -0.2039    0.0234 H   0  0  0  0  0  0  0  0  0  0  0  0
    2.5010    0.9170   -1.3472 H   0  0  0  0  0  0  0  0  0  0  0  0
    0.1512   -1.3808    0.2983 H   0  0  0  0  0  0  0  0  0  0  0  0
    0.0851   -1.8238   -1.4044 H   0  0  0  0  0  0  0  0  0  0  0  0
   -2.2204   -1.7759   -0.5658 H   0  0  0  0  0  0  0  0  0  0  0  0
   -1.9867   -0.5239   -1.7375 H   0  0  0  0  0  0  0  0  0  0  0  0
   -2.4291    0.6925    2.2452 H   0  0  0  0  0  0  0  0  0  0  0  0
   -0.9743   -0.2182    1.9359 H   0  0  0  0  0  0  0  0  0  0  0  0
   -1.0412   -2.6847    1.6723 H   0  0  0  0  0  0  0  0  0  0  0  0
   -2.1937   -4.7970    2.2134 H   0  0  0  0  0  0  0  0  0  0  0  0
   -4.5919   -0.3981    2.6590 H   0  0  0  0  0  0  0  0  0  0  0  0
   -6.8726   -2.3499    2.8759 H   0  0  0  0  0  0  0  0  0  0  0  0
   -6.1326   -2.2348    4.5311 H   0  0  0  0  0  0  0  0  0  0  0  0
   -8.3820   -7.3307    5.3130 H   0  0  0  0  0  0  0  0  0  0  0  0
  -10.7088   -6.6900    6.4215 H   0  0  0  0  0  0  0  0  0  0  0  0
  -11.1633   -4.0964    6.2195 H   0  0  0  0  0  0  0  0  0  0  0  0
   -4.3074   -6.8088    3.1359 H   0  0  0  0  0  0  0  0  0  0  0  0
   -1.7116    2.2522    0.6076 H   0  0  0  0  0  0  0  0  0  0  0  0
   -1.8005    1.8170   -1.0814 H   0  0  0  0  0  0  0  0  0  0  0  0
    0.4909    1.1765    0.8447 H   0  0  0  0  0  0  0  0  0  0  0  0
    0.5157    2.2555   -0.5509 H   0  0  0  0  0  0  0  0  0  0  0  0
  1  2  1  0  0  0  0
  1 26  1  0  0  0  0
  1 27  1  0  0  0  0
  1 28  1  0  0  0  0
  2  3  1  0  0  0  0
  2 25  1  0  0  0  0
  3  4  1  0  0  0  0
  3 29  1  0  0  0  0
  3 30  1  0  0  0  0
  4  5  1  0  0  0  0
  4 31  1  0  0  0  0
  4 32  1  0  0  0  0
  5  6  1  0  0  0  0
  5 24  1  0  0  0  0
  6  7  1  0  0  0  0
  6 33  1  0  0  0  0
  6 34  1  0  0  0  0
  7  8  1  0  0  0  0
  7 12  2  0  0  0  0
  8  9  2  0  0  0  0
  8 35  1  0  0  0  0
  9 10  1  0  0  0  0
  9 36  1  0  0  0  0
 10 11  2  0  0  0  0
 10 23  1  0  0  0  0
 11 12  1  0  0  0  0
 11 13  1  0  0  0  0
 12 37  1  0  0  0  0
 13 14  1  0  0  0  0
 13 38  1  0  0  0  0
 13 39  1  0  0  0  0
 14 15  1  0  0  0  0
 14 23  2  0  0  0  0
 15 16  1  0  0  0  0
 15 21  2  0  0  0  0
 16 17  2  0  0  0  0
 16 20  1  0  0  0  0
 17 18  1  0  0  0  0
 17 40  1  0  0  0  0
 18 19  2  0  0  0  0
 18 41  1  0  0  0  0
 19 20  1  0  0  0  0
 19 42  1  0  0  0  0
 21 22  1  0  0  0  0
 22 23  1  0  0  0  0
 22 43  1  0  0  0  0
 24 25  1  0  0  0  0
 24 44  1  0  0  0  0
 24 45  1  0  0  0  0
 25 46  1  0  0  0  0
 25 47  1  0  0  0  0
M  END
$$$$
