CHEMBL1242660
 OpenBabel04072215363D

 46 48  0  0  0  0  0  0  0  0999 V2000
    1.1285    0.3938    0.3003 C   0  0  0  0  0  0  0  0  0  0  0  0
    2.4543   -0.0315    0.0099 O   0  0  0  0  0  0  0  0  0  0  0  0
    3.1257    0.6258   -0.9889 C   0  0  0  0  0  0  0  0  0  0  0  0
    2.7653    1.9096   -1.4235 C   0  0  0  0  0  0  0  0  0  0  0  0
    3.5215    2.5899   -2.3878 C   0  0  0  0  0  0  0  0  0  0  0  0
    3.0999    3.9102   -2.8589 C   0  0  0  0  0  0  0  0  0  0  0  0
    2.5354    4.7783   -2.0018 N   0  0  0  0  0  0  0  0  0  0  0  0
    2.3131    5.8863   -2.7396 N   0  0  0  0  0  0  0  0  0  0  0  0
    1.7380    7.0736   -2.1193 C   0  0  0  0  0  0  0  0  0  0  0  0
    0.3354    6.7965   -1.5766 C   0  0  0  0  0  0  0  0  0  0  0  0
    2.6504    7.6266   -1.0246 C   0  0  0  0  0  0  0  0  0  0  0  0
    2.6753    5.7460   -4.0536 C   0  0  0  0  0  0  0  0  0  0  0  0
    2.5644    6.6660   -5.0268 N   0  0  0  0  0  0  0  0  0  0  0  0
    3.0126    6.1951   -6.2009 C   0  0  0  0  0  0  0  0  0  0  0  0
    3.5068    4.9728   -6.4683 N   0  0  0  0  0  0  0  0  0  0  0  0
    3.5944    4.0765   -5.4643 C   0  0  0  0  0  0  0  0  0  0  0  0
    4.0897    2.8274   -5.8139 N   0  0  0  0  0  0  0  0  0  0  0  0
    3.1791    4.4599   -4.1795 C   0  0  0  0  0  0  0  0  0  0  0  0
    4.6876    1.9973   -2.8731 C   0  0  0  0  0  0  0  0  0  0  0  0
    5.0532    0.7089   -2.4778 C   0  0  0  0  0  0  0  0  0  0  0  0
    6.1393    0.0452   -2.9980 O   0  0  0  0  0  0  0  0  0  0  0  0
    7.1688    0.8530   -3.5574 C   0  0  0  0  0  0  0  0  0  0  0  0
    4.2620    0.0059   -1.5454 C   0  0  0  0  0  0  0  0  0  0  0  0
    4.7435   -1.2377   -1.2049 O   0  0  0  0  0  0  0  0  0  0  0  0
    3.7874   -2.2356   -0.8762 C   0  0  0  0  0  0  0  0  0  0  0  0
    0.7169   -0.2893    1.0494 H   0  0  0  0  0  0  0  0  0  0  0  0
    0.4961    0.3348   -0.5918 H   0  0  0  0  0  0  0  0  0  0  0  0
    1.1131    1.3983    0.7342 H   0  0  0  0  0  0  0  0  0  0  0  0
    1.9047    2.4231   -1.0038 H   0  0  0  0  0  0  0  0  0  0  0  0
    1.6513    7.8368   -2.9022 H   0  0  0  0  0  0  0  0  0  0  0  0
    0.3470    6.0211   -0.8024 H   0  0  0  0  0  0  0  0  0  0  0  0
   -0.3314    6.4571   -2.3765 H   0  0  0  0  0  0  0  0  0  0  0  0
   -0.0968    7.7021   -1.1380 H   0  0  0  0  0  0  0  0  0  0  0  0
    2.7746    6.9123   -0.2030 H   0  0  0  0  0  0  0  0  0  0  0  0
    2.2377    8.5508   -0.6060 H   0  0  0  0  0  0  0  0  0  0  0  0
    3.6459    7.8513   -1.4228 H   0  0  0  0  0  0  0  0  0  0  0  0
    2.9696    6.8814   -7.0411 H   0  0  0  0  0  0  0  0  0  0  0  0
    4.1122    2.7266   -6.8233 H   0  0  0  0  0  0  0  0  0  0  0  0
    3.6829    2.0464   -5.3138 H   0  0  0  0  0  0  0  0  0  0  0  0
    5.3040    2.5523   -3.5722 H   0  0  0  0  0  0  0  0  0  0  0  0
    8.0322    0.2108   -3.7493 H   0  0  0  0  0  0  0  0  0  0  0  0
    7.4819    1.6347   -2.8568 H   0  0  0  0  0  0  0  0  0  0  0  0
    6.8586    1.2834   -4.5156 H   0  0  0  0  0  0  0  0  0  0  0  0
    4.2685   -3.2099   -1.0093 H   0  0  0  0  0  0  0  0  0  0  0  0
    2.9122   -2.2073   -1.5343 H   0  0  0  0  0  0  0  0  0  0  0  0
    3.5020   -2.1655    0.1771 H   0  0  0  0  0  0  0  0  0  0  0  0
  1  2  1  0  0  0  0
  1 26  1  0  0  0  0
  1 27  1  0  0  0  0
  1 28  1  0  0  0  0
  2  3  1  0  0  0  0
  3  4  1  0  0  0  0
  3 23  2  0  0  0  0
  4  5  2  0  0  0  0
  4 29  1  0  0  0  0
  5  6  1  0  0  0  0
  5 19  1  0  0  0  0
  6  7  2  0  0  0  0
  6 18  1  0  0  0  0
  7  8  1  0  0  0  0
  8  9  1  0  0  0  0
  8 12  1  0  0  0  0
  9 10  1  0  0  0  0
  9 11  1  0  0  0  0
  9 30  1  0  0  0  0
 10 31  1  0  0  0  0
 10 32  1  0  0  0  0
 10 33  1  0  0  0  0
 11 34  1  0  0  0  0
 11 35  1  0  0  0  0
 11 36  1  0  0  0  0
 12 13  1  0  0  0  0
 12 18  2  0  0  0  0
 13 14  2  0  0  0  0
 14 15  1  0  0  0  0
 14 37  1  0  0  0  0
 15 16  2  0  0  0  0
 16 17  1  0  0  0  0
 16 18  1  0  0  0  0
 17 38  1  0  0  0  0
 17 39  1  0  0  0  0
 19 20  2  0  0  0  0
 19 40  1  0  0  0  0
 20 21  1  0  0  0  0
 20 23  1  0  0  0  0
 21 22  1  0  0  0  0
 22 41  1  0  0  0  0
 22 42  1  0  0  0  0
 22 43  1  0  0  0  0
 23 24  1  0  0  0  0
 24 25  1  0  0  0  0
 25 44  1  0  0  0  0
 25 45  1  0  0  0  0
 25 46  1  0  0  0  0
M  END
$$$$
