CHEMBL3950069
 OpenBabel04072215373D

 59 62  0  0  0  0  0  0  0  0999 V2000
    1.8557   -0.6818   -1.7385 C   0  0  0  0  0  0  0  0  0  0  0  0
    3.0234   -0.3339   -1.0020 O   0  0  0  0  0  0  0  0  0  0  0  0
    3.3235   -1.1135    0.0825 C   0  0  0  0  0  0  0  0  0  0  0  0
    2.5977   -2.2169    0.5079 C   0  0  0  0  0  0  0  0  0  0  0  0
    3.0346   -2.9115    1.6239 C   0  0  0  0  0  0  0  0  0  0  0  0
    2.3385   -3.9773    2.0438 F   0  0  0  0  0  0  0  0  0  0  0  0
    4.1717   -2.5222    2.3311 C   0  0  0  0  0  0  0  0  0  0  0  0
    4.9153   -1.3994    1.9543 C   0  0  0  0  0  0  0  0  0  0  0  0
    6.0277   -0.9249    2.6960 N   0  0  0  0  0  0  0  0  0  0  0  0
    6.9261   -1.9136    3.3560 C   0  0  0  0  0  0  0  0  0  0  0  0
    7.2403   -1.5773    4.8438 C   0  0  0  0  0  0  0  0  0  0  0  0
    6.1227   -1.6472    5.7934 N   0  0  0  0  0  0  0  0  0  0  0  0
    5.5679   -2.9864    5.9984 C   0  0  0  0  0  0  0  0  0  0  0  0
    6.6056   -4.0081    6.4622 C   0  0  0  0  0  0  0  0  0  0  0  0
    4.4278   -2.8900    7.0117 C   0  0  0  0  0  0  0  0  0  0  0  0
    6.4547    0.4288    2.7607 C   0  0  0  0  0  0  0  0  0  0  0  0
    7.8072    0.7925    2.7558 C   0  0  0  0  0  0  0  0  0  0  0  0
    8.1971    2.1117    2.9832 C   0  0  0  0  0  0  0  0  0  0  0  0
    7.2573    3.1084    3.1645 C   0  0  0  0  0  0  0  0  0  0  0  0
    7.6805    4.3612    3.4018 N   0  0  0  0  0  0  0  0  0  0  0  0
    6.7121    5.2949    3.5391 C   0  0  0  0  0  0  0  0  0  0  0  0
    5.3600    5.0035    3.4382 C   0  0  0  0  0  0  0  0  0  0  0  0
    4.3518    6.0407    3.5175 C   0  0  0  0  0  0  0  0  0  0  0  0
    4.4709    7.4421    3.6665 C   0  0  0  0  0  0  0  0  0  0  0  0
    3.2910    8.0669    3.6623 N   0  0  0  0  0  0  0  0  0  0  0  0
    2.4070    7.0650    3.5053 N   0  0  0  0  0  0  0  0  0  0  0  0
    0.9970    7.3529    3.4146 C   0  0  0  0  0  0  0  0  0  0  0  0
    2.9898    5.8347    3.4209 C   0  0  0  0  0  0  0  0  0  0  0  0
    4.9329    3.7341    3.2281 N   0  0  0  0  0  0  0  0  0  0  0  0
    5.8819    2.7853    3.0964 C   0  0  0  0  0  0  0  0  0  0  0  0
    5.5120    1.4588    2.9050 C   0  0  0  0  0  0  0  0  0  0  0  0
    4.4679   -0.7214    0.7999 C   0  0  0  0  0  0  0  0  0  0  0  0
    1.7467    0.0375   -2.5556 H   0  0  0  0  0  0  0  0  0  0  0  0
    0.9582   -0.6139   -1.1141 H   0  0  0  0  0  0  0  0  0  0  0  0
    1.9525   -1.6784   -2.1821 H   0  0  0  0  0  0  0  0  0  0  0  0
    1.7021   -2.5640    0.0084 H   0  0  0  0  0  0  0  0  0  0  0  0
    4.4180   -3.1108    3.2002 H   0  0  0  0  0  0  0  0  0  0  0  0
    7.8712   -1.9665    2.7998 H   0  0  0  0  0  0  0  0  0  0  0  0
    6.5408   -2.9364    3.3008 H   0  0  0  0  0  0  0  0  0  0  0  0
    7.6421   -0.5632    4.9344 H   0  0  0  0  0  0  0  0  0  0  0  0
    8.0676   -2.2083    5.1852 H   0  0  0  0  0  0  0  0  0  0  0  0
    5.3882   -1.0137    5.4673 H   0  0  0  0  0  0  0  0  0  0  0  0
    5.1349   -3.3521    5.0686 H   0  0  0  0  0  0  0  0  0  0  0  0
    7.1220   -3.6748    7.3681 H   0  0  0  0  0  0  0  0  0  0  0  0
    7.3567   -4.1963    5.6875 H   0  0  0  0  0  0  0  0  0  0  0  0
    6.1282   -4.9702    6.6742 H   0  0  0  0  0  0  0  0  0  0  0  0
    4.7855   -2.5575    7.9927 H   0  0  0  0  0  0  0  0  0  0  0  0
    3.9467   -3.8665    7.1371 H   0  0  0  0  0  0  0  0  0  0  0  0
    3.6569   -2.1870    6.6742 H   0  0  0  0  0  0  0  0  0  0  0  0
    8.5923    0.0567    2.6088 H   0  0  0  0  0  0  0  0  0  0  0  0
    9.2535    2.3615    3.0337 H   0  0  0  0  0  0  0  0  0  0  0  0
    7.0779    6.2976    3.7250 H   0  0  0  0  0  0  0  0  0  0  0  0
    5.3663    8.0411    3.7678 H   0  0  0  0  0  0  0  0  0  0  0  0
    0.8318    8.4213    3.5758 H   0  0  0  0  0  0  0  0  0  0  0  0
    0.4768    6.7741    4.1813 H   0  0  0  0  0  0  0  0  0  0  0  0
    0.6548    7.0680    2.4170 H   0  0  0  0  0  0  0  0  0  0  0  0
    2.4079    4.9320    3.2895 H   0  0  0  0  0  0  0  0  0  0  0  0
    4.4494    1.2254    2.9090 H   0  0  0  0  0  0  0  0  0  0  0  0
    5.0221    0.1397    0.4308 H   0  0  0  0  0  0  0  0  0  0  0  0
  1  2  1  0  0  0  0
  1 33  1  0  0  0  0
  1 34  1  0  0  0  0
  1 35  1  0  0  0  0
  2  3  1  0  0  0  0
  3  4  1  0  0  0  0
  3 32  2  0  0  0  0
  4  5  2  0  0  0  0
  4 36  1  0  0  0  0
  5  6  1  0  0  0  0
  5  7  1  0  0  0  0
  7  8  2  0  0  0  0
  7 37  1  0  0  0  0
  8  9  1  0  0  0  0
  8 32  1  0  0  0  0
  9 10  1  0  0  0  0
  9 16  1  0  0  0  0
 10 11  1  0  0  0  0
 10 38  1  0  0  0  0
 10 39  1  0  0  0  0
 11 12  1  0  0  0  0
 11 40  1  0  0  0  0
 11 41  1  0  0  0  0
 12 13  1  0  0  0  0
 12 42  1  0  0  0  0
 13 14  1  0  0  0  0
 13 15  1  0  0  0  0
 13 43  1  0  0  0  0
 14 44  1  0  0  0  0
 14 45  1  0  0  0  0
 14 46  1  0  0  0  0
 15 47  1  0  0  0  0
 15 48  1  0  0  0  0
 15 49  1  0  0  0  0
 16 17  1  0  0  0  0
 16 31  2  0  0  0  0
 17 18  2  0  0  0  0
 17 50  1  0  0  0  0
 18 19  1  0  0  0  0
 18 51  1  0  0  0  0
 19 20  1  0  0  0  0
 19 30  2  0  0  0  0
 20 21  2  0  0  0  0
 21 22  1  0  0  0  0
 21 52  1  0  0  0  0
 22 23  1  0  0  0  0
 22 29  2  0  0  0  0
 23 24  1  0  0  0  0
 23 28  2  0  0  0  0
 24 25  2  0  0  0  0
 24 53  1  0  0  0  0
 25 26  1  0  0  0  0
 26 27  1  0  0  0  0
 26 28  1  0  0  0  0
 27 54  1  0  0  0  0
 27 55  1  0  0  0  0
 27 56  1  0  0  0  0
 28 57  1  0  0  0  0
 29 30  1  0  0  0  0
 30 31  1  0  0  0  0
 31 58  1  0  0  0  0
 32 59  1  0  0  0  0
M  END
$$$$
