CHEMBL3970399
 OpenBabel04072215373D

 39 42  0  0  0  0  0  0  0  0999 V2000
    1.3795    0.8497    0.8064 O   0  0  0  0  0  0  0  0  0  0  0  0
    2.4042    0.1177    0.0982 S   0  0  0  0  0  0  0  0  0  0  0  0
    2.1349   -0.4552   -1.2086 O   0  0  0  0  0  0  0  0  0  0  0  0
    3.8013    1.0363   -0.1291 N   0  0  0  0  0  0  0  0  0  0  0  0
    3.6640    2.3440    0.3758 C   0  0  0  0  0  0  0  0  0  0  0  0
    3.9251    2.6106    1.6342 N   0  0  0  0  0  0  0  0  0  0  0  0
    3.8270    3.9759    1.8363 C   0  0  0  0  0  0  0  0  0  0  0  0
    3.4828    4.7190    0.7266 C   0  0  0  0  0  0  0  0  0  0  0  0
    3.3350    3.6834   -0.6329 S   0  0  0  0  0  0  0  0  0  0  0  0
    2.9741   -1.1891    1.1463 C   0  0  0  0  0  0  0  0  0  0  0  0
    3.3847   -0.8775    2.4391 C   0  0  0  0  0  0  0  0  0  0  0  0
    3.7638   -1.9037    3.3062 C   0  0  0  0  0  0  0  0  0  0  0  0
    3.7692   -3.2450    2.9009 C   0  0  0  0  0  0  0  0  0  0  0  0
    3.9918   -4.3236    3.7801 N   0  0  0  0  0  0  0  0  0  0  0  0
    4.3288   -4.3222    5.1572 C   0  0  0  0  0  0  0  0  0  0  0  0
    4.8735   -3.2208    5.7252 N   0  0  0  0  0  0  0  0  0  0  0  0
    5.0884   -3.1370    7.0687 N   0  0  0  0  0  0  0  0  0  0  0  0
    4.7756   -4.1879    7.8410 C   0  0  0  0  0  0  0  0  0  0  0  0
    4.2694   -5.3753    7.3332 C   0  0  0  0  0  0  0  0  0  0  0  0
    4.0016   -6.4712    8.1722 C   0  0  0  0  0  0  0  0  0  0  0  0
    3.4676   -7.6481    7.6536 C   0  0  0  0  0  0  0  0  0  0  0  0
    3.1671   -7.7321    6.2996 C   0  0  0  0  0  0  0  0  0  0  0  0
    3.4293   -6.6478    5.4578 C   0  0  0  0  0  0  0  0  0  0  0  0
    4.0141   -5.4527    5.9487 C   0  0  0  0  0  0  0  0  0  0  0  0
    3.3467   -3.5327    1.5908 C   0  0  0  0  0  0  0  0  0  0  0  0
    2.9487   -2.5158    0.7146 C   0  0  0  0  0  0  0  0  0  0  0  0
    3.9579    1.0454   -1.1352 H   0  0  0  0  0  0  0  0  0  0  0  0
    4.0228    4.3824    2.8218 H   0  0  0  0  0  0  0  0  0  0  0  0
    3.3380    5.7863    0.6457 H   0  0  0  0  0  0  0  0  0  0  0  0
    3.3893    0.1517    2.7928 H   0  0  0  0  0  0  0  0  0  0  0  0
    4.0426   -1.6132    4.3146 H   0  0  0  0  0  0  0  0  0  0  0  0
    4.3045   -5.1669    3.3182 H   0  0  0  0  0  0  0  0  0  0  0  0
    4.9404   -4.0327    8.9014 H   0  0  0  0  0  0  0  0  0  0  0  0
    4.2101   -6.4127    9.2391 H   0  0  0  0  0  0  0  0  0  0  0  0
    3.2768   -8.4941    8.3090 H   0  0  0  0  0  0  0  0  0  0  0  0
    2.7233   -8.6391    5.8962 H   0  0  0  0  0  0  0  0  0  0  0  0
    3.1584   -6.7420    4.4087 H   0  0  0  0  0  0  0  0  0  0  0  0
    3.2818   -4.5640    1.2520 H   0  0  0  0  0  0  0  0  0  0  0  0
    2.5928   -2.7740   -0.2803 H   0  0  0  0  0  0  0  0  0  0  0  0
  1  2  2  0  0  0  0
  2  3  2  0  0  0  0
  2  4  1  0  0  0  0
  2 10  1  0  0  0  0
  4  5  1  0  0  0  0
  4 27  1  0  0  0  0
  5  6  2  0  0  0  0
  5  9  1  0  0  0  0
  6  7  1  0  0  0  0
  7  8  2  0  0  0  0
  7 28  1  0  0  0  0
  8  9  1  0  0  0  0
  8 29  1  0  0  0  0
 10 11  1  0  0  0  0
 10 26  2  0  0  0  0
 11 12  2  0  0  0  0
 11 30  1  0  0  0  0
 12 13  1  0  0  0  0
 12 31  1  0  0  0  0
 13 14  1  0  0  0  0
 13 25  2  0  0  0  0
 14 15  1  0  0  0  0
 14 32  1  0  0  0  0
 15 16  1  0  0  0  0
 15 24  2  0  0  0  0
 16 17  2  0  0  0  0
 17 18  1  0  0  0  0
 18 19  2  0  0  0  0
 18 33  1  0  0  0  0
 19 20  1  0  0  0  0
 19 24  1  0  0  0  0
 20 21  2  0  0  0  0
 20 34  1  0  0  0  0
 21 22  1  0  0  0  0
 21 35  1  0  0  0  0
 22 23  2  0  0  0  0
 22 36  1  0  0  0  0
 23 24  1  0  0  0  0
 23 37  1  0  0  0  0
 25 26  1  0  0  0  0
 25 38  1  0  0  0  0
 26 39  1  0  0  0  0
M  END
$$$$
