CHEMBL3933000
 OpenBabel04072215373D

 78 82  0  0  1  0  0  0  0  0999 V2000
    2.4613   -1.7335    4.9874 C   0  0  0  0  0  0  0  0  0  0  0  0
    2.2429   -2.4522    3.7685 O   0  0  0  0  0  0  0  0  0  0  0  0
    3.1775   -2.0668    2.8302 C   0  0  0  0  0  0  0  0  0  0  0  0
    2.7313   -1.9486    1.5264 C   0  0  0  0  0  0  0  0  0  0  0  0
    3.5856   -1.3494    0.6026 C   0  0  0  0  0  0  0  0  0  0  0  0
    3.2058   -1.1374   -0.7049 O   0  0  0  0  0  0  0  0  0  0  0  0
    1.8004   -0.8969   -0.8680 C   0  0  0  0  0  0  0  0  0  0  0  0
    4.8876   -0.9065    0.9813 C   0  0  0  0  0  0  0  0  0  0  0  0
    5.3757   -1.0371    2.3058 C   0  0  0  0  0  0  0  0  0  0  0  0
    6.6900   -0.5293    2.8359 N   0  0  0  0  0  0  0  0  0  0  0  0
    7.2219    0.6374    2.0655 C   0  0  0  0  0  0  0  0  0  0  0  0
    6.2837    1.8549    2.1766 C   0  0  0  0  0  0  0  0  0  0  0  0
    6.7195    3.1662    1.4927 C   0  0  0  0  0  0  0  0  0  0  0  0
    5.6906    4.2206    1.7099 N   0  0  0  0  0  0  0  0  0  0  0  0
    6.0472    5.4980    1.0661 C   0  0  0  0  0  0  0  0  0  0  0  0
    6.9514    6.1673    2.0807 C   0  0  0  0  0  0  0  0  0  0  0  0
    6.2421    5.8811    3.3902 C   0  0  0  0  0  0  0  0  0  0  0  0
    5.5076    4.5603    3.1459 C   0  0  1  0  0  0  0  0  0  0  0  0
    4.0076    4.6091    3.4794 C   0  0  0  0  0  0  0  0  0  0  0  0
    3.8059    4.7910    4.9342 N   0  0  0  0  0  0  0  0  0  0  0  0
    2.1734    4.7581    5.4220 S   0  0  0  0  0  0  0  0  0  0  0  0
    2.2428    5.0324    6.8465 O   0  0  0  0  0  0  0  0  0  0  0  0
    1.5281    5.7317    4.5575 O   0  0  0  0  0  0  0  0  0  0  0  0
    1.5211    2.9728    5.0943 C   0  0  0  0  0  0  0  0  0  0  0  0
    2.4685    2.1441    4.5665 F   0  0  0  0  0  0  0  0  0  0  0  0
    1.0856    2.3871    6.2447 F   0  0  0  0  0  0  0  0  0  0  0  0
    0.4711    2.9739    4.2238 F   0  0  0  0  0  0  0  0  0  0  0  0
    7.7679   -1.4891    3.2842 C   0  0  0  0  0  0  0  0  0  0  0  0
    7.6550   -2.7009    2.6180 C   0  0  0  0  0  0  0  0  0  0  0  0
    8.4770   -3.6651    3.0721 C   0  0  0  0  0  0  0  0  0  0  0  0
    9.2322   -3.5644    4.1668 C   0  0  0  0  0  0  0  0  0  0  0  0
    9.0775   -4.7081    4.7405 N   0  0  0  0  0  0  0  0  0  0  0  0
   10.1374   -5.4457    4.6237 C   0  0  0  0  0  0  0  0  0  0  0  0
   11.3567   -4.9906    4.9488 C   0  0  0  0  0  0  0  0  0  0  0  0
   12.2998   -6.2963    4.9294 C   0  0  0  0  0  0  0  0  0  0  0  0
   11.9089   -7.6596    4.4184 C   0  0  0  0  0  0  0  0  0  0  0  0
   12.8673   -8.5891    4.4285 N   0  0  0  0  0  0  0  0  0  0  0  0
   13.9159   -7.9437    4.9455 N   0  0  0  0  0  0  0  0  0  0  0  0
   15.2121   -8.6139    4.9252 C   0  0  0  0  0  0  0  0  0  0  0  0
   13.5942   -6.6254    5.3357 C   0  0  0  0  0  0  0  0  0  0  0  0
   11.3202   -3.5223    5.1314 N   0  0  0  0  0  0  0  0  0  0  0  0
   10.0431   -2.5948    4.5653 C   0  0  0  0  0  0  0  0  0  0  0  0
    8.9390   -1.3610    4.1604 C   0  0  0  0  0  0  0  0  0  0  0  0
    4.5208   -1.7061    3.1936 C   0  0  0  0  0  0  0  0  0  0  0  0
    1.6950   -1.9746    5.7246 H   0  0  0  0  0  0  0  0  0  0  0  0
    2.4513   -0.6518    4.7958 H   0  0  0  0  0  0  0  0  0  0  0  0
    3.4054   -2.0398    5.4421 H   0  0  0  0  0  0  0  0  0  0  0  0
    1.7375   -2.3043    1.2700 H   0  0  0  0  0  0  0  0  0  0  0  0
    1.6038   -0.6725   -1.9194 H   0  0  0  0  0  0  0  0  0  0  0  0
    1.4861   -0.0359   -0.2656 H   0  0  0  0  0  0  0  0  0  0  0  0
    1.1943   -1.7765   -0.6231 H   0  0  0  0  0  0  0  0  0  0  0  0
    5.5166   -0.4873    0.2095 H   0  0  0  0  0  0  0  0  0  0  0  0
    7.4233    0.3836    1.0179 H   0  0  0  0  0  0  0  0  0  0  0  0
    8.1696    0.9302    2.5184 H   0  0  0  0  0  0  0  0  0  0  0  0
    6.2138    2.0313    3.2499 H   0  0  0  0  0  0  0  0  0  0  0  0
    5.2783    1.6225    1.8119 H   0  0  0  0  0  0  0  0  0  0  0  0
    6.8233    3.0009    0.4109 H   0  0  0  0  0  0  0  0  0  0  0  0
    7.6985    3.4813    1.8694 H   0  0  0  0  0  0  0  0  0  0  0  0
    5.1352    6.0994    0.9344 H   0  0  0  0  0  0  0  0  0  0  0  0
    6.4989    5.3837    0.0767 H   0  0  0  0  0  0  0  0  0  0  0  0
    7.0835    7.2379    1.9097 H   0  0  0  0  0  0  0  0  0  0  0  0
    7.9426    5.6991    2.0789 H   0  0  0  0  0  0  0  0  0  0  0  0
    5.5559    6.6969    3.6418 H   0  0  0  0  0  0  0  0  0  0  0  0
    6.9635    5.7747    4.2075 H   0  0  0  0  0  0  0  0  0  0  0  0
    5.9581    3.8341    3.8242 H   0  0  0  0  0  0  0  0  0  0  0  0
    3.5566    3.6534    3.1950 H   0  0  0  0  0  0  0  0  0  0  0  0
    3.5070    5.4115    2.9274 H   0  0  0  0  0  0  0  0  0  0  0  0
    4.2358    5.6423    5.3078 H   0  0  0  0  0  0  0  0  0  0  0  0
    6.8671   -2.9758    1.9344 H   0  0  0  0  0  0  0  0  0  0  0  0
    8.2802   -4.6237    2.6525 H   0  0  0  0  0  0  0  0  0  0  0  0
    9.9206   -6.3332    4.0620 H   0  0  0  0  0  0  0  0  0  0  0  0
   10.9737   -8.0237    3.9942 H   0  0  0  0  0  0  0  0  0  0  0  0
   15.1360   -9.6481    4.5466 H   0  0  0  0  0  0  0  0  0  0  0  0
   15.6302   -8.6506    5.9327 H   0  0  0  0  0  0  0  0  0  0  0  0
   15.8769   -8.0663    4.2519 H   0  0  0  0  0  0  0  0  0  0  0  0
   14.3646   -6.0668    5.8309 H   0  0  0  0  0  0  0  0  0  0  0  0
    9.0584   -0.3642    4.6313 H   0  0  0  0  0  0  0  0  0  0  0  0
    4.8634   -2.0112    4.1495 H   0  0  0  0  0  0  0  0  0  0  0  0
  1  2  1  0  0  0  0
  1 45  1  0  0  0  0
  1 46  1  0  0  0  0
  1 47  1  0  0  0  0
  2  3  1  0  0  0  0
  3  4  1  0  0  0  0
  3 44  2  0  0  0  0
  4  5  2  0  0  0  0
  4 48  1  0  0  0  0
  5  6  1  0  0  0  0
  5  8  1  0  0  0  0
  6  7  1  0  0  0  0
  7 49  1  0  0  0  0
  7 50  1  0  0  0  0
  7 51  1  0  0  0  0
  8  9  2  0  0  0  0
  8 52  1  0  0  0  0
  9 10  1  0  0  0  0
  9 44  1  0  0  0  0
 10 11  1  0  0  0  0
 10 28  1  0  0  0  0
 11 12  1  0  0  0  0
 11 53  1  0  0  0  0
 11 54  1  0  0  0  0
 12 13  1  0  0  0  0
 12 55  1  0  0  0  0
 12 56  1  0  0  0  0
 13 14  1  0  0  0  0
 13 57  1  0  0  0  0
 13 58  1  0  0  0  0
 14 15  1  0  0  0  0
 14 18  1  0  0  0  0
 15 16  1  0  0  0  0
 15 59  1  0  0  0  0
 15 60  1  0  0  0  0
 16 17  1  0  0  0  0
 16 61  1  0  0  0  0
 16 62  1  0  0  0  0
 17 18  1  0  0  0  0
 17 63  1  0  0  0  0
 17 64  1  0  0  0  0
 18 19  1  0  0  0  0
 18 65  1  1  0  0  0
 19 20  1  0  0  0  0
 19 66  1  0  0  0  0
 19 67  1  0  0  0  0
 20 21  1  0  0  0  0
 20 68  1  0  0  0  0
 21 22  2  0  0  0  0
 21 23  2  0  0  0  0
 21 24  1  0  0  0  0
 24 25  1  0  0  0  0
 24 26  1  0  0  0  0
 24 27  1  0  0  0  0
 28 29  1  0  0  0  0
 28 43  2  0  0  0  0
 29 30  2  0  0  0  0
 29 69  1  0  0  0  0
 30 31  1  0  0  0  0
 30 70  1  0  0  0  0
 31 32  1  0  0  0  0
 31 42  2  0  0  0  0
 32 33  2  0  0  0  0
 33 34  1  0  0  0  0
 33 71  1  0  0  0  0
 34 35  1  0  0  0  0
 34 41  2  0  0  0  0
 35 36  1  0  0  0  0
 35 40  2  0  0  0  0
 36 37  2  0  0  0  0
 36 72  1  0  0  0  0
 37 38  1  0  0  0  0
 38 39  1  0  0  0  0
 38 40  1  0  0  0  0
 39 73  1  0  0  0  0
 39 74  1  0  0  0  0
 39 75  1  0  0  0  0
 40 76  1  0  0  0  0
 41 42  1  0  0  0  0
 42 43  1  0  0  0  0
 43 77  1  0  0  0  0
 44 78  1  0  0  0  0
M  END
$$$$
