CHEMBL270755
 OpenBabel04072215363D

 56 60  0  0  0  0  0  0  0  0999 V2000
    5.1439   -1.6406    0.8359 C   0  0  0  0  0  0  0  0  0  0  0  0
    3.9753   -0.8187    0.9562 O   0  0  0  0  0  0  0  0  0  0  0  0
    4.2020    0.5287    1.0248 C   0  0  0  0  0  0  0  0  0  0  0  0
    5.3494    1.1303    0.4808 C   0  0  0  0  0  0  0  0  0  0  0  0
    5.6806    2.4539    0.7124 C   0  0  0  0  0  0  0  0  0  0  0  0
    6.8882    2.8850    0.2969 N   0  0  0  0  0  0  0  0  0  0  0  0
    7.2731    4.1318    0.6179 C   0  0  0  0  0  0  0  0  0  0  0  0
    6.5066    4.9996    1.3712 C   0  0  0  0  0  0  0  0  0  0  0  0
    5.2569    4.5628    1.8033 C   0  0  0  0  0  0  0  0  0  0  0  0
    4.6061    5.4959    2.6051 O   0  0  0  0  0  0  0  0  0  0  0  0
    3.7397    5.1008    3.5923 C   0  0  0  0  0  0  0  0  0  0  0  0
    3.8913    3.9439    4.3460 C   0  0  0  0  0  0  0  0  0  0  0  0
    2.7955    3.4357    5.0457 C   0  0  0  0  0  0  0  0  0  0  0  0
    1.5739    4.1514    5.1853 C   0  0  0  0  0  0  0  0  0  0  0  0
    0.3963    3.6887    5.8528 C   0  0  0  0  0  0  0  0  0  0  0  0
    0.2120    2.3192    6.4438 C   0  0  0  0  0  0  0  0  0  0  0  0
   -0.8910    1.7878    6.4178 O   0  0  0  0  0  0  0  0  0  0  0  0
    1.3051    1.7440    7.0439 N   0  0  0  0  0  0  0  0  0  0  0  0
    1.2386    0.4557    7.6887 C   0  0  0  0  0  0  0  0  0  0  0  0
    1.0236    0.6721    9.1554 C   0  0  0  0  0  0  0  0  0  0  0  0
    2.0239    1.4662    9.9623 C   0  0  0  0  0  0  0  0  0  0  0  0
    1.8788   -0.0085   10.1945 C   0  0  0  0  0  0  0  0  0  0  0  0
   -0.7437    4.5133    5.9320 C   0  0  0  0  0  0  0  0  0  0  0  0
   -0.7441    5.7820    5.3663 C   0  0  0  0  0  0  0  0  0  0  0  0
    0.3786    6.2307    4.6785 C   0  0  0  0  0  0  0  0  0  0  0  0
    1.5246    5.4297    4.5647 C   0  0  0  0  0  0  0  0  0  0  0  0
    2.5957    5.8789    3.7690 C   0  0  0  0  0  0  0  0  0  0  0  0
    4.7848    3.2747    1.4130 C   0  0  0  0  0  0  0  0  0  0  0  0
    3.5219    2.7234    1.7002 C   0  0  0  0  0  0  0  0  0  0  0  0
    3.2556    1.3535    1.6348 C   0  0  0  0  0  0  0  0  0  0  0  0
    2.0781    1.0503    2.2590 O   0  0  0  0  0  0  0  0  0  0  0  0
    1.7422   -0.2886    2.5669 C   0  0  0  0  0  0  0  0  0  0  0  0
    4.9559   -2.5758    1.3718 H   0  0  0  0  0  0  0  0  0  0  0  0
    6.0425   -1.1986    1.2844 H   0  0  0  0  0  0  0  0  0  0  0  0
    5.3202   -1.8756   -0.2188 H   0  0  0  0  0  0  0  0  0  0  0  0
    6.0562    0.5444   -0.1039 H   0  0  0  0  0  0  0  0  0  0  0  0
    8.2546    4.4263    0.2576 H   0  0  0  0  0  0  0  0  0  0  0  0
    6.8820    5.9865    1.6343 H   0  0  0  0  0  0  0  0  0  0  0  0
    4.7914    3.3372    4.2654 H   0  0  0  0  0  0  0  0  0  0  0  0
    2.8976    2.4158    5.4052 H   0  0  0  0  0  0  0  0  0  0  0  0
    2.0896    2.3366    7.2806 H   0  0  0  0  0  0  0  0  0  0  0  0
    2.1922   -0.0504    7.4977 H   0  0  0  0  0  0  0  0  0  0  0  0
    0.4372   -0.1531    7.2692 H   0  0  0  0  0  0  0  0  0  0  0  0
   -0.0284    0.8166    9.3791 H   0  0  0  0  0  0  0  0  0  0  0  0
    1.6270    2.1533   10.7018 H   0  0  0  0  0  0  0  0  0  0  0  0
    2.9333    1.8110    9.4832 H   0  0  0  0  0  0  0  0  0  0  0  0
    1.4017   -0.3273   11.1153 H   0  0  0  0  0  0  0  0  0  0  0  0
    2.6908   -0.6514    9.8729 H   0  0  0  0  0  0  0  0  0  0  0  0
   -1.6412    4.1556    6.4321 H   0  0  0  0  0  0  0  0  0  0  0  0
   -1.6308    6.4093    5.4335 H   0  0  0  0  0  0  0  0  0  0  0  0
    0.3409    7.2122    4.2083 H   0  0  0  0  0  0  0  0  0  0  0  0
    2.5130    6.8131    3.2172 H   0  0  0  0  0  0  0  0  0  0  0  0
    2.7262    3.3506    2.0968 H   0  0  0  0  0  0  0  0  0  0  0  0
    0.9804   -0.2562    3.3575 H   0  0  0  0  0  0  0  0  0  0  0  0
    2.5808   -0.8695    2.9591 H   0  0  0  0  0  0  0  0  0  0  0  0
    1.2886   -0.7643    1.6971 H   0  0  0  0  0  0  0  0  0  0  0  0
  1  2  1  0  0  0  0
  1 33  1  0  0  0  0
  1 34  1  0  0  0  0
  1 35  1  0  0  0  0
  2  3  1  0  0  0  0
  3  4  1  0  0  0  0
  3 30  2  0  0  0  0
  4  5  2  0  0  0  0
  4 36  1  0  0  0  0
  5  6  1  0  0  0  0
  5 28  1  0  0  0  0
  6  7  2  0  0  0  0
  7  8  1  0  0  0  0
  7 37  1  0  0  0  0
  8  9  2  0  0  0  0
  8 38  1  0  0  0  0
  9 10  1  0  0  0  0
  9 28  1  0  0  0  0
 10 11  1  0  0  0  0
 11 12  1  0  0  0  0
 11 27  2  0  0  0  0
 12 13  2  0  0  0  0
 12 39  1  0  0  0  0
 13 14  1  0  0  0  0
 13 40  1  0  0  0  0
 14 15  1  0  0  0  0
 14 26  2  0  0  0  0
 15 16  1  0  0  0  0
 15 23  2  0  0  0  0
 16 17  2  0  0  0  0
 16 18  1  0  0  0  0
 18 19  1  0  0  0  0
 18 41  1  0  0  0  0
 19 20  1  0  0  0  0
 19 42  1  0  0  0  0
 19 43  1  0  0  0  0
 20 21  1  0  0  0  0
 20 22  1  0  0  0  0
 20 44  1  0  0  0  0
 21 22  1  0  0  0  0
 21 45  1  0  0  0  0
 21 46  1  0  0  0  0
 22 47  1  0  0  0  0
 22 48  1  0  0  0  0
 23 24  1  0  0  0  0
 23 49  1  0  0  0  0
 24 25  2  0  0  0  0
 24 50  1  0  0  0  0
 25 26  1  0  0  0  0
 25 51  1  0  0  0  0
 26 27  1  0  0  0  0
 27 52  1  0  0  0  0
 28 29  2  0  0  0  0
 29 30  1  0  0  0  0
 29 53  1  0  0  0  0
 30 31  1  0  0  0  0
 31 32  1  0  0  0  0
 32 54  1  0  0  0  0
 32 55  1  0  0  0  0
 32 56  1  0  0  0  0
M  END
$$$$
