CHEMBL1982383
 OpenBabel04072215363D

 58 61  0  0  0  0  0  0  0  0999 V2000
    9.6433    0.0391    0.9509 C   0  0  0  0  0  0  0  0  0  0  0  0
    9.9106    0.6349   -0.4435 C   0  0  0  0  0  0  0  0  0  0  0  0
   11.0699    1.6440   -0.3538 C   0  0  0  0  0  0  0  0  0  0  0  0
   10.2761   -0.5057   -1.4257 C   0  0  0  0  0  0  0  0  0  0  0  0
   11.4355   -1.2234   -1.0235 O   0  0  0  0  0  0  0  0  0  0  0  0
    8.6410    1.3181   -1.0046 C   0  0  0  0  0  0  0  0  0  0  0  0
    8.1419    2.3821   -0.1512 N   0  0  0  0  0  0  0  0  0  0  0  0
    7.0384    3.0620   -0.6374 C   0  0  0  0  0  0  0  0  0  0  0  0
    6.3478    2.5564   -1.6682 N   0  0  0  0  0  0  0  0  0  0  0  0
    5.2502    3.2113   -2.0579 C   0  0  0  0  0  0  0  0  0  0  0  0
    4.7941    4.3395   -1.4314 C   0  0  0  0  0  0  0  0  0  0  0  0
    5.5879    4.8212   -0.4162 C   0  0  0  0  0  0  0  0  0  0  0  0
    5.2610    6.0387    0.3233 C   0  0  0  0  0  0  0  0  0  0  0  0
    5.3007    6.3548    1.6870 C   0  0  0  0  0  0  0  0  0  0  0  0
    5.6276    5.4777    2.8076 C   0  0  0  0  0  0  0  0  0  0  0  0
    6.2399    6.0169    3.9536 C   0  0  0  0  0  0  0  0  0  0  0  0
    6.5609    5.2016    5.0454 C   0  0  0  0  0  0  0  0  0  0  0  0
    6.2671    3.8453    4.9979 C   0  0  0  0  0  0  0  0  0  0  0  0
    6.5785    3.0622    6.0393 F   0  0  0  0  0  0  0  0  0  0  0  0
    5.6469    3.2917    3.8869 C   0  0  0  0  0  0  0  0  0  0  0  0
    5.3166    4.1090    2.8015 C   0  0  0  0  0  0  0  0  0  0  0  0
    4.9533    7.6807    1.8983 N   0  0  0  0  0  0  0  0  0  0  0  0
    4.6965    8.1597    0.7045 C   0  0  0  0  0  0  0  0  0  0  0  0
    4.3020    9.5028    0.3307 C   0  0  0  0  0  0  0  0  0  0  0  0
    4.1860   10.5827    1.3799 C   0  0  0  0  0  0  0  0  0  0  0  0
    5.5383   10.8603    2.0272 C   0  0  0  0  0  0  0  0  0  0  0  0
    5.4460   11.9675    2.9766 N   0  0  0  0  0  0  0  0  0  0  0  0
    4.0463    9.8080   -0.9191 N   0  0  0  0  0  0  0  0  0  0  0  0
    4.1897    8.8198   -1.8702 C   0  0  0  0  0  0  0  0  0  0  0  0
    4.5985    7.5709   -1.6010 C   0  0  0  0  0  0  0  0  0  0  0  0
    4.8500    7.2181   -0.2814 N   0  0  0  0  0  0  0  0  0  0  0  0
    6.7233    4.2093   -0.0264 N   0  0  0  0  0  0  0  0  0  0  0  0
   10.5321   -0.4635    1.3478 H   0  0  0  0  0  0  0  0  0  0  0  0
    8.8338   -0.6992    0.9134 H   0  0  0  0  0  0  0  0  0  0  0  0
    9.3566    0.8110    1.6729 H   0  0  0  0  0  0  0  0  0  0  0  0
   11.9813    1.1797    0.0359 H   0  0  0  0  0  0  0  0  0  0  0  0
   10.8332    2.4782    0.3142 H   0  0  0  0  0  0  0  0  0  0  0  0
   11.2999    2.0614   -1.3406 H   0  0  0  0  0  0  0  0  0  0  0  0
   10.4489   -0.1199   -2.4373 H   0  0  0  0  0  0  0  0  0  0  0  0
    9.4565   -1.2308   -1.4924 H   0  0  0  0  0  0  0  0  0  0  0  0
   12.2033   -0.6372   -1.1291 H   0  0  0  0  0  0  0  0  0  0  0  0
    7.8585    0.5530   -1.1112 H   0  0  0  0  0  0  0  0  0  0  0  0
    8.8573    1.7108   -2.0073 H   0  0  0  0  0  0  0  0  0  0  0  0
    8.7911    3.0666    0.2180 H   0  0  0  0  0  0  0  0  0  0  0  0
    4.7325    2.7888   -2.9124 H   0  0  0  0  0  0  0  0  0  0  0  0
    3.8710    4.8071   -1.7378 H   0  0  0  0  0  0  0  0  0  0  0  0
    6.4716    7.0792    4.0015 H   0  0  0  0  0  0  0  0  0  0  0  0
    7.0360    5.6162    5.9289 H   0  0  0  0  0  0  0  0  0  0  0  0
    5.4226    2.2302    3.8663 H   0  0  0  0  0  0  0  0  0  0  0  0
    4.8150    3.6528    1.9538 H   0  0  0  0  0  0  0  0  0  0  0  0
    3.4428   10.2769    2.1245 H   0  0  0  0  0  0  0  0  0  0  0  0
    3.8117   11.4944    0.8955 H   0  0  0  0  0  0  0  0  0  0  0  0
    6.2866   11.0976    1.2619 H   0  0  0  0  0  0  0  0  0  0  0  0
    5.8994    9.9783    2.5641 H   0  0  0  0  0  0  0  0  0  0  0  0
    5.2312   12.8311    2.4800 H   0  0  0  0  0  0  0  0  0  0  0  0
    6.3553   12.1073    3.4157 H   0  0  0  0  0  0  0  0  0  0  0  0
    3.9607    9.1114   -2.8932 H   0  0  0  0  0  0  0  0  0  0  0  0
    4.7296    6.8370   -2.3813 H   0  0  0  0  0  0  0  0  0  0  0  0
  1  2  1  0  0  0  0
  1 33  1  0  0  0  0
  1 34  1  0  0  0  0
  1 35  1  0  0  0  0
  2  3  1  0  0  0  0
  2  4  1  0  0  0  0
  2  6  1  0  0  0  0
  3 36  1  0  0  0  0
  3 37  1  0  0  0  0
  3 38  1  0  0  0  0
  4  5  1  0  0  0  0
  4 39  1  0  0  0  0
  4 40  1  0  0  0  0
  5 41  1  0  0  0  0
  6  7  1  0  0  0  0
  6 42  1  0  0  0  0
  6 43  1  0  0  0  0
  7  8  1  0  0  0  0
  7 44  1  0  0  0  0
  8  9  1  0  0  0  0
  8 32  2  0  0  0  0
  9 10  2  0  0  0  0
 10 11  1  0  0  0  0
 10 45  1  0  0  0  0
 11 12  2  0  0  0  0
 11 46  1  0  0  0  0
 12 13  1  0  0  0  0
 12 32  1  0  0  0  0
 13 14  2  0  0  0  0
 13 31  1  0  0  0  0
 14 15  1  0  0  0  0
 14 22  1  0  0  0  0
 15 16  1  0  0  0  0
 15 21  2  0  0  0  0
 16 17  2  0  0  0  0
 16 47  1  0  0  0  0
 17 18  1  0  0  0  0
 17 48  1  0  0  0  0
 18 19  1  0  0  0  0
 18 20  2  0  0  0  0
 20 21  1  0  0  0  0
 20 49  1  0  0  0  0
 21 50  1  0  0  0  0
 22 23  2  0  0  0  0
 23 24  1  0  0  0  0
 23 31  1  0  0  0  0
 24 25  1  0  0  0  0
 24 28  2  0  0  0  0
 25 26  1  0  0  0  0
 25 51  1  0  0  0  0
 25 52  1  0  0  0  0
 26 27  1  0  0  0  0
 26 53  1  0  0  0  0
 26 54  1  0  0  0  0
 27 55  1  0  0  0  0
 27 56  1  0  0  0  0
 28 29  1  0  0  0  0
 29 30  2  0  0  0  0
 29 57  1  0  0  0  0
 30 31  1  0  0  0  0
 30 58  1  0  0  0  0
M  END
$$$$
