CHEMBL3808854
 OpenBabel04072215373D

 45 47  0  0  0  0  0  0  0  0999 V2000
    6.5629    2.6544   -7.7639 C   0  0  0  0  0  0  0  0  0  0  0  0
    5.1272    2.1505   -7.9824 C   0  0  0  0  0  0  0  0  0  0  0  0
    4.1276    3.2416   -7.5598 C   0  0  0  0  0  0  0  0  0  0  0  0
    4.9144    1.8472   -9.4772 C   0  0  0  0  0  0  0  0  0  0  0  0
    4.9215    0.9177   -7.1543 C   0  0  0  0  0  0  0  0  0  0  0  0
    4.5272    0.6844   -5.8572 C   0  0  0  0  0  0  0  0  0  0  0  0
    4.5781   -0.7176   -5.7163 C   0  0  0  0  0  0  0  0  0  0  0  0
    4.2505   -1.3899   -4.5654 N   0  0  0  0  0  0  0  0  0  0  0  0
    4.2552   -2.7362   -4.3480 C   0  0  0  0  0  0  0  0  0  0  0  0
    3.8861   -3.1262   -3.2415 O   0  0  0  0  0  0  0  0  0  0  0  0
    4.6909   -3.5256   -5.3809 N   0  0  0  0  0  0  0  0  0  0  0  0
    4.7273   -4.9267   -5.4150 C   0  0  0  0  0  0  0  0  0  0  0  0
    4.0221   -5.7124   -4.5103 C   0  0  0  0  0  0  0  0  0  0  0  0
    4.1411   -7.0992   -4.5391 C   0  0  0  0  0  0  0  0  0  0  0  0
    4.9676   -7.7291   -5.4748 C   0  0  0  0  0  0  0  0  0  0  0  0
    5.1176   -9.1767   -5.4186 C   0  0  0  0  0  0  0  0  0  0  0  0
    4.2475  -10.1613   -4.9897 C   0  0  0  0  0  0  0  0  0  0  0  0
    4.9728  -11.3615   -5.0539 C   0  0  0  0  0  0  0  0  0  0  0  0
    4.4758  -12.5470   -4.6926 N   0  0  0  0  0  0  0  0  0  0  0  0
    6.2069  -11.1762   -5.5044 N   0  0  0  0  0  0  0  0  0  0  0  0
    6.2813   -9.8475   -5.6950 N   0  0  0  0  0  0  0  0  0  0  0  0
    5.6337   -6.9435   -6.4217 C   0  0  0  0  0  0  0  0  0  0  0  0
    5.5040   -5.5480   -6.3997 C   0  0  0  0  0  0  0  0  0  0  0  0
    4.9949   -1.2939   -6.8486 N   0  0  0  0  0  0  0  0  0  0  0  0
    5.2117   -0.2737   -7.7433 O   0  0  0  0  0  0  0  0  0  0  0  0
    6.7671    3.5470   -8.3646 H   0  0  0  0  0  0  0  0  0  0  0  0
    7.2986    1.8885   -8.0388 H   0  0  0  0  0  0  0  0  0  0  0  0
    6.7401    2.9096   -6.7120 H   0  0  0  0  0  0  0  0  0  0  0  0
    4.2435    4.1439   -8.1698 H   0  0  0  0  0  0  0  0  0  0  0  0
    4.2667    3.5333   -6.5120 H   0  0  0  0  0  0  0  0  0  0  0  0
    3.0928    2.8940   -7.6677 H   0  0  0  0  0  0  0  0  0  0  0  0
    5.0156    2.7528  -10.0843 H   0  0  0  0  0  0  0  0  0  0  0  0
    3.9150    1.4340   -9.6600 H   0  0  0  0  0  0  0  0  0  0  0  0
    5.6435    1.1172   -9.8493 H   0  0  0  0  0  0  0  0  0  0  0  0
    4.2478    1.4209   -5.1191 H   0  0  0  0  0  0  0  0  0  0  0  0
    3.9401   -0.8534   -3.7691 H   0  0  0  0  0  0  0  0  0  0  0  0
    5.1277   -3.0301   -6.1493 H   0  0  0  0  0  0  0  0  0  0  0  0
    3.3613   -5.2751   -3.7687 H   0  0  0  0  0  0  0  0  0  0  0  0
    3.5960   -7.6755   -3.7957 H   0  0  0  0  0  0  0  0  0  0  0  0
    3.2314  -10.0194   -4.6525 H   0  0  0  0  0  0  0  0  0  0  0  0
    3.4803  -12.6956   -4.6002 H   0  0  0  0  0  0  0  0  0  0  0  0
    5.0088  -13.3695   -4.9498 H   0  0  0  0  0  0  0  0  0  0  0  0
    7.1688   -9.4541   -5.9842 H   0  0  0  0  0  0  0  0  0  0  0  0
    6.2562   -7.3970   -7.1892 H   0  0  0  0  0  0  0  0  0  0  0  0
    6.0404   -4.9567   -7.1382 H   0  0  0  0  0  0  0  0  0  0  0  0
  1  2  1  0  0  0  0
  1 26  1  0  0  0  0
  1 27  1  0  0  0  0
  1 28  1  0  0  0  0
  2  3  1  0  0  0  0
  2  4  1  0  0  0  0
  2  5  1  0  0  0  0
  3 29  1  0  0  0  0
  3 30  1  0  0  0  0
  3 31  1  0  0  0  0
  4 32  1  0  0  0  0
  4 33  1  0  0  0  0
  4 34  1  0  0  0  0
  5  6  2  0  0  0  0
  5 25  1  0  0  0  0
  6  7  1  0  0  0  0
  6 35  1  0  0  0  0
  7  8  1  0  0  0  0
  7 24  2  0  0  0  0
  8  9  1  0  0  0  0
  8 36  1  0  0  0  0
  9 10  2  0  0  0  0
  9 11  1  0  0  0  0
 11 12  1  0  0  0  0
 11 37  1  0  0  0  0
 12 13  1  0  0  0  0
 12 23  2  0  0  0  0
 13 14  2  0  0  0  0
 13 38  1  0  0  0  0
 14 15  1  0  0  0  0
 14 39  1  0  0  0  0
 15 16  1  0  0  0  0
 15 22  2  0  0  0  0
 16 17  2  0  0  0  0
 16 21  1  0  0  0  0
 17 18  1  0  0  0  0
 17 40  1  0  0  0  0
 18 19  1  0  0  0  0
 18 20  2  0  0  0  0
 19 41  1  0  0  0  0
 19 42  1  0  0  0  0
 20 21  1  0  0  0  0
 21 43  1  0  0  0  0
 22 23  1  0  0  0  0
 22 44  1  0  0  0  0
 23 45  1  0  0  0  0
 24 25  1  0  0  0  0
M  END
$$$$
