CHEMBL2016896
 OpenBabel04072215363D

 50 54  0  0  0  0  0  0  0  0999 V2000
    3.0434   -0.0901    0.8982 O   0  0  0  0  0  0  0  0  0  0  0  0
    2.5318    0.5643   -0.0055 C   0  0  0  0  0  0  0  0  0  0  0  0
    1.2992    1.1308    0.0778 O   0  0  0  0  0  0  0  0  0  0  0  0
    0.5717    0.8713    1.2907 C   0  0  0  0  0  0  0  0  0  0  0  0
    0.3496    2.1539    2.0526 C   0  0  0  0  0  0  0  0  0  0  0  0
   -0.4320    3.1781    1.4999 C   0  0  0  0  0  0  0  0  0  0  0  0
   -0.6323    4.3720    2.1950 C   0  0  0  0  0  0  0  0  0  0  0  0
   -0.0576    4.5535    3.4515 C   0  0  0  0  0  0  0  0  0  0  0  0
    0.7098    3.5377    4.0182 C   0  0  0  0  0  0  0  0  0  0  0  0
    0.9130    2.3430    3.3233 C   0  0  0  0  0  0  0  0  0  0  0  0
    3.1450    0.7446   -1.2506 N   0  0  0  0  0  0  0  0  0  0  0  0
    2.3361    1.1669   -2.4215 C   0  0  0  0  0  0  0  0  0  0  0  0
    3.0633    1.4134   -3.7721 C   0  0  0  0  0  0  0  0  0  0  0  0
    4.3283    0.6574   -3.8524 C   0  0  0  0  0  0  0  0  0  0  0  0
    4.9761    0.2528   -4.9956 N   0  0  0  0  0  0  0  0  0  0  0  0
    5.8902   -0.6229   -4.5763 C   0  0  0  0  0  0  0  0  0  0  0  0
    6.3155   -1.8828   -5.1566 C   0  0  0  0  0  0  0  0  0  0  0  0
    5.5021   -2.3335   -6.1410 C   0  0  0  0  0  0  0  0  0  0  0  0
    4.2865   -2.9882   -5.5730 C   0  0  0  0  0  0  0  0  0  0  0  0
    3.0218   -2.6911   -6.0835 C   0  0  0  0  0  0  0  0  0  0  0  0
    1.8894   -2.9984   -5.3310 C   0  0  0  0  0  0  0  0  0  0  0  0
    2.0120   -3.6612   -4.1060 C   0  0  0  0  0  0  0  0  0  0  0  0
    3.2675   -4.0484   -3.6322 C   0  0  0  0  0  0  0  0  0  0  0  0
    4.3989   -3.6735   -4.3505 C   0  0  0  0  0  0  0  0  0  0  0  0
    5.6763   -3.8099   -3.7843 N   0  0  0  0  0  0  0  0  0  0  0  0
    6.6946   -2.9584   -4.1567 C   0  0  0  0  0  0  0  0  0  0  0  0
    7.7698   -2.9326   -3.5569 O   0  0  0  0  0  0  0  0  0  0  0  0
    6.0769   -0.4574   -3.2122 N   0  0  0  0  0  0  0  0  0  0  0  0
    4.9075    0.0832   -2.7559 C   0  0  0  0  0  0  0  0  0  0  0  0
    4.3275   -0.0943   -1.4241 C   0  0  0  0  0  0  0  0  0  0  0  0
    1.0432    0.1163    1.9311 H   0  0  0  0  0  0  0  0  0  0  0  0
   -0.4021    0.4562    1.0054 H   0  0  0  0  0  0  0  0  0  0  0  0
   -0.8840    3.0489    0.5193 H   0  0  0  0  0  0  0  0  0  0  0  0
   -1.2330    5.1625    1.7533 H   0  0  0  0  0  0  0  0  0  0  0  0
   -0.2053    5.4875    3.9873 H   0  0  0  0  0  0  0  0  0  0  0  0
    1.1549    3.6780    5.0002 H   0  0  0  0  0  0  0  0  0  0  0  0
    1.5179    1.5623    3.7807 H   0  0  0  0  0  0  0  0  0  0  0  0
    1.8023    2.0858   -2.1453 H   0  0  0  0  0  0  0  0  0  0  0  0
    1.5658    0.3980   -2.5631 H   0  0  0  0  0  0  0  0  0  0  0  0
    3.2855    2.4808   -3.8793 H   0  0  0  0  0  0  0  0  0  0  0  0
    2.3909    1.1424   -4.5954 H   0  0  0  0  0  0  0  0  0  0  0  0
    5.2396   -1.6489   -6.9477 H   0  0  0  0  0  0  0  0  0  0  0  0
    2.9186   -2.1234   -7.0050 H   0  0  0  0  0  0  0  0  0  0  0  0
    0.9139   -2.6665   -5.6771 H   0  0  0  0  0  0  0  0  0  0  0  0
    1.1267   -3.8337   -3.4991 H   0  0  0  0  0  0  0  0  0  0  0  0
    3.3493   -4.5236   -2.6594 H   0  0  0  0  0  0  0  0  0  0  0  0
    5.8225   -4.3714   -2.9570 H   0  0  0  0  0  0  0  0  0  0  0  0
    6.7355   -0.9893   -2.6565 H   0  0  0  0  0  0  0  0  0  0  0  0
    5.0526    0.1207   -0.6332 H   0  0  0  0  0  0  0  0  0  0  0  0
    4.0075   -1.1408   -1.3193 H   0  0  0  0  0  0  0  0  0  0  0  0
  1  2  2  0  0  0  0
  2  3  1  0  0  0  0
  2 11  1  0  0  0  0
  3  4  1  0  0  0  0
  4  5  1  0  0  0  0
  4 31  1  0  0  0  0
  4 32  1  0  0  0  0
  5  6  1  0  0  0  0
  5 10  2  0  0  0  0
  6  7  2  0  0  0  0
  6 33  1  0  0  0  0
  7  8  1  0  0  0  0
  7 34  1  0  0  0  0
  8  9  2  0  0  0  0
  8 35  1  0  0  0  0
  9 10  1  0  0  0  0
  9 36  1  0  0  0  0
 10 37  1  0  0  0  0
 11 12  1  0  0  0  0
 11 30  1  0  0  0  0
 12 13  1  0  0  0  0
 12 38  1  0  0  0  0
 12 39  1  0  0  0  0
 13 14  1  0  0  0  0
 13 40  1  0  0  0  0
 13 41  1  0  0  0  0
 14 15  1  0  0  0  0
 14 29  2  0  0  0  0
 15 16  2  0  0  0  0
 16 17  1  0  0  0  0
 16 28  1  0  0  0  0
 17 18  2  0  0  0  0
 17 26  1  0  0  0  0
 18 19  1  0  0  0  0
 18 42  1  0  0  0  0
 19 20  1  0  0  0  0
 19 24  2  0  0  0  0
 20 21  2  0  0  0  0
 20 43  1  0  0  0  0
 21 22  1  0  0  0  0
 21 44  1  0  0  0  0
 22 23  2  0  0  0  0
 22 45  1  0  0  0  0
 23 24  1  0  0  0  0
 23 46  1  0  0  0  0
 24 25  1  0  0  0  0
 25 26  1  0  0  0  0
 25 47  1  0  0  0  0
 26 27  2  0  0  0  0
 28 29  1  0  0  0  0
 28 48  1  0  0  0  0
 29 30  1  0  0  0  0
 30 49  1  0  0  0  0
 30 50  1  0  0  0  0
M  END
$$$$
