CHEMBL3690376
 OpenBabel04072215373D

 48 51  0  0  0  0  0  0  0  0999 V2000
    2.6155   -1.3146    0.4655 O   0  0  0  0  0  0  0  0  0  0  0  0
    2.5061   -0.1446    0.8050 C   0  0  0  0  0  0  0  0  0  0  0  0
    1.4536    0.2718    1.5936 N   0  0  0  0  0  0  0  0  0  0  0  0
    0.3774   -0.6847    1.8808 C   0  0  0  0  0  0  0  0  0  0  0  0
   -0.7075   -0.7780    0.7989 C   0  0  0  0  0  0  0  0  0  0  0  0
   -0.4846    0.0925   -0.2140 F   0  0  0  0  0  0  0  0  0  0  0  0
   -0.8093   -2.0158    0.2748 F   0  0  0  0  0  0  0  0  0  0  0  0
   -1.9154   -0.4584    1.3271 F   0  0  0  0  0  0  0  0  0  0  0  0
    3.3544    0.8980    0.5041 N   0  0  0  0  0  0  0  0  0  0  0  0
    4.5315    0.8331   -0.2721 C   0  0  0  0  0  0  0  0  0  0  0  0
    4.9941   -0.3468   -0.8562 C   0  0  0  0  0  0  0  0  0  0  0  0
    6.2037   -0.3731   -1.5410 C   0  0  0  0  0  0  0  0  0  0  0  0
    6.9472    0.7937   -1.6724 C   0  0  0  0  0  0  0  0  0  0  0  0
    6.4561    2.0152   -1.2093 C   0  0  0  0  0  0  0  0  0  0  0  0
    7.1517    3.2771   -1.5101 C   0  0  0  0  0  0  0  0  0  0  0  0
    7.2687    4.4387   -0.7610 C   0  0  0  0  0  0  0  0  0  0  0  0
    7.9947    5.4022   -1.4100 N   0  0  0  0  0  0  0  0  0  0  0  0
    8.3232    4.8661   -2.5589 C   0  0  0  0  0  0  0  0  0  0  0  0
    9.0751    5.3900   -3.6523 C   0  0  0  0  0  0  0  0  0  0  0  0
    9.2750    4.6381   -4.7510 C   0  0  0  0  0  0  0  0  0  0  0  0
   10.0691    5.2169   -5.9106 C   0  0  0  0  0  0  0  0  0  0  0  0
   10.7503    5.7134   -6.9054 C   0  0  0  0  0  0  0  0  0  0  0  0
   11.4351    6.2646   -8.0306 C   0  0  0  0  0  0  0  0  0  0  0  0
   11.4153    7.6352   -8.2775 C   0  0  0  0  0  0  0  0  0  0  0  0
   12.0376    8.1331   -9.4206 C   0  0  0  0  0  0  0  0  0  0  0  0
   12.6613    7.2363  -10.2745 C   0  0  0  0  0  0  0  0  0  0  0  0
   12.7157    5.9044  -10.0548 N   0  0  0  0  0  0  0  0  0  0  0  0
   12.1016    5.4494   -8.9355 C   0  0  0  0  0  0  0  0  0  0  0  0
    8.7327    3.3043   -4.8785 C   0  0  0  0  0  0  0  0  0  0  0  0
    8.0009    2.8174   -3.8662 C   0  0  0  0  0  0  0  0  0  0  0  0
    7.8161    3.5747   -2.7005 N   0  0  0  0  0  0  0  0  0  0  0  0
    5.2627    2.0178   -0.4632 C   0  0  0  0  0  0  0  0  0  0  0  0
    1.1667    1.2314    1.4637 H   0  0  0  0  0  0  0  0  0  0  0  0
   -0.0701   -0.3662    2.8273 H   0  0  0  0  0  0  0  0  0  0  0  0
    0.8121   -1.6773    2.0471 H   0  0  0  0  0  0  0  0  0  0  0  0
    3.1562    1.7801    0.9473 H   0  0  0  0  0  0  0  0  0  0  0  0
    4.4499   -1.2839   -0.7776 H   0  0  0  0  0  0  0  0  0  0  0  0
    6.5649   -1.3025   -1.9714 H   0  0  0  0  0  0  0  0  0  0  0  0
    7.9139    0.7227   -2.1623 H   0  0  0  0  0  0  0  0  0  0  0  0
    6.8708    4.6288    0.2251 H   0  0  0  0  0  0  0  0  0  0  0  0
    9.4672    6.3974   -3.5636 H   0  0  0  0  0  0  0  0  0  0  0  0
   10.9107    8.3152   -7.5964 H   0  0  0  0  0  0  0  0  0  0  0  0
   12.0282    9.1939   -9.6451 H   0  0  0  0  0  0  0  0  0  0  0  0
   13.1441    7.5754  -11.1868 H   0  0  0  0  0  0  0  0  0  0  0  0
   12.1575    4.3738   -8.7922 H   0  0  0  0  0  0  0  0  0  0  0  0
    8.9136    2.7336   -5.7817 H   0  0  0  0  0  0  0  0  0  0  0  0
    7.5436    1.8401   -3.9382 H   0  0  0  0  0  0  0  0  0  0  0  0
    4.8882    2.9510   -0.0534 H   0  0  0  0  0  0  0  0  0  0  0  0
  1  2  2  0  0  0  0
  2  3  1  0  0  0  0
  2  9  1  0  0  0  0
  3  4  1  0  0  0  0
  3 33  1  0  0  0  0
  4  5  1  0  0  0  0
  4 34  1  0  0  0  0
  4 35  1  0  0  0  0
  5  6  1  0  0  0  0
  5  7  1  0  0  0  0
  5  8  1  0  0  0  0
  9 10  1  0  0  0  0
  9 36  1  0  0  0  0
 10 11  1  0  0  0  0
 10 32  2  0  0  0  0
 11 12  2  0  0  0  0
 11 37  1  0  0  0  0
 12 13  1  0  0  0  0
 12 38  1  0  0  0  0
 13 14  2  0  0  0  0
 13 39  1  0  0  0  0
 14 15  1  0  0  0  0
 14 32  1  0  0  0  0
 15 16  2  0  0  0  0
 15 31  1  0  0  0  0
 16 17  1  0  0  0  0
 16 40  1  0  0  0  0
 17 18  2  0  0  0  0
 18 19  1  0  0  0  0
 18 31  1  0  0  0  0
 19 20  2  0  0  0  0
 19 41  1  0  0  0  0
 20 21  1  0  0  0  0
 20 29  1  0  0  0  0
 21 22  3  0  0  0  0
 22 23  1  0  0  0  0
 23 24  1  0  0  0  0
 23 28  2  0  0  0  0
 24 25  2  0  0  0  0
 24 42  1  0  0  0  0
 25 26  1  0  0  0  0
 25 43  1  0  0  0  0
 26 27  2  0  0  0  0
 26 44  1  0  0  0  0
 27 28  1  0  0  0  0
 28 45  1  0  0  0  0
 29 30  2  0  0  0  0
 29 46  1  0  0  0  0
 30 31  1  0  0  0  0
 30 47  1  0  0  0  0
 32 48  1  0  0  0  0
M  END
$$$$
