CHEMBL3671522
 OpenBabel04072215373D

 54 56  0  0  0  0  0  0  0  0999 V2000
    3.2339   -3.9163    0.2906 C   0  0  0  0  0  0  0  0  0  0  0  0
    3.3859   -2.9973   -0.6718 C   0  0  0  0  0  0  0  0  0  0  0  0
    3.6364   -1.5779   -0.2972 C   0  0  0  0  0  0  0  0  0  0  0  0
    3.1913   -1.0904    0.7395 O   0  0  0  0  0  0  0  0  0  0  0  0
    4.4299   -0.8349   -1.1318 N   0  0  0  0  0  0  0  0  0  0  0  0
    5.2858   -1.4267   -2.0858 C   0  0  0  0  0  0  0  0  0  0  0  0
    6.3448   -2.2010   -1.6141 C   0  0  0  0  0  0  0  0  0  0  0  0
    7.0091   -3.0893   -2.4831 C   0  0  0  0  0  0  0  0  0  0  0  0
    7.9582   -4.0367   -2.0724 C   0  0  0  0  0  0  0  0  0  0  0  0
    8.2624   -4.1877   -0.6916 N   0  0  0  0  0  0  0  0  0  0  0  0
    8.8942   -5.3373   -0.1570 C   0  0  0  0  0  0  0  0  0  0  0  0
    8.4870   -6.6240   -0.5382 C   0  0  0  0  0  0  0  0  0  0  0  0
    9.2044   -7.7501   -0.1323 C   0  0  0  0  0  0  0  0  0  0  0  0
   10.3201   -7.5953    0.6867 C   0  0  0  0  0  0  0  0  0  0  0  0
   11.3539   -9.1102    1.1424 Br  0  0  0  0  0  0  0  0  0  0  0  0
   10.6930   -6.3350    1.1470 C   0  0  0  0  0  0  0  0  0  0  0  0
    9.9707   -5.2200    0.7294 C   0  0  0  0  0  0  0  0  0  0  0  0
   10.3474   -4.0022    1.1519 F   0  0  0  0  0  0  0  0  0  0  0  0
    8.5372   -4.8815   -2.9481 N   0  0  0  0  0  0  0  0  0  0  0  0
    8.1516   -4.7971   -4.2200 C   0  0  0  0  0  0  0  0  0  0  0  0
    7.2279   -3.9664   -4.7091 N   0  0  0  0  0  0  0  0  0  0  0  0
    6.6572   -3.1283   -3.8408 C   0  0  0  0  0  0  0  0  0  0  0  0
    5.6460   -2.2913   -4.2990 C   0  0  0  0  0  0  0  0  0  0  0  0
    4.9614   -1.4218   -3.4473 C   0  0  0  0  0  0  0  0  0  0  0  0
    3.9713   -0.6815   -4.0463 O   0  0  0  0  0  0  0  0  0  0  0  0
    3.7679    0.6201   -3.4817 C   0  0  0  0  0  0  0  0  0  0  0  0
    3.3353    1.6174   -4.5593 C   0  0  0  0  0  0  0  0  0  0  0  0
    3.2245    2.9684   -4.0278 N   0  0  0  0  0  0  0  0  0  0  0  0
    4.3452    3.7221   -3.7757 C   0  0  0  0  0  0  0  0  0  0  0  0
    5.4784    3.3548   -4.0693 O   0  0  0  0  0  0  0  0  0  0  0  0
    4.1136    5.0543   -3.1353 C   0  0  0  0  0  0  0  0  0  0  0  0
    3.1090    5.2773   -2.2701 C   0  0  0  0  0  0  0  0  0  0  0  0
    5.1295    6.1201   -3.4295 C   0  0  0  0  0  0  0  0  0  0  0  0
    3.1207   -4.9664    0.0419 H   0  0  0  0  0  0  0  0  0  0  0  0
    3.2471   -3.6440    1.3414 H   0  0  0  0  0  0  0  0  0  0  0  0
    3.3956   -3.2785   -1.7163 H   0  0  0  0  0  0  0  0  0  0  0  0
    4.8166   -0.0529   -0.6121 H   0  0  0  0  0  0  0  0  0  0  0  0
    6.5821   -2.1911   -0.5525 H   0  0  0  0  0  0  0  0  0  0  0  0
    8.6504   -3.3309   -0.3087 H   0  0  0  0  0  0  0  0  0  0  0  0
    7.6289   -6.7496   -1.1944 H   0  0  0  0  0  0  0  0  0  0  0  0
    8.8980   -8.7304   -0.4877 H   0  0  0  0  0  0  0  0  0  0  0  0
   11.5502   -6.2017    1.7975 H   0  0  0  0  0  0  0  0  0  0  0  0
    8.6228   -5.4801   -4.9192 H   0  0  0  0  0  0  0  0  0  0  0  0
    5.3603   -2.3439   -5.3484 H   0  0  0  0  0  0  0  0  0  0  0  0
    4.6822    0.9976   -3.0098 H   0  0  0  0  0  0  0  0  0  0  0  0
    2.9730    0.5552   -2.7291 H   0  0  0  0  0  0  0  0  0  0  0  0
    2.3631    1.3358   -4.9776 H   0  0  0  0  0  0  0  0  0  0  0  0
    4.0564    1.6146   -5.3847 H   0  0  0  0  0  0  0  0  0  0  0  0
    2.3102    3.3221   -3.7838 H   0  0  0  0  0  0  0  0  0  0  0  0
    2.3971    4.5157   -1.9756 H   0  0  0  0  0  0  0  0  0  0  0  0
    3.0025    6.2477   -1.7915 H   0  0  0  0  0  0  0  0  0  0  0  0
    5.8171    5.8337   -4.2313 H   0  0  0  0  0  0  0  0  0  0  0  0
    5.7286    6.3294   -2.5363 H   0  0  0  0  0  0  0  0  0  0  0  0
    4.6370    7.0465   -3.7435 H   0  0  0  0  0  0  0  0  0  0  0  0
  1  2  2  0  0  0  0
  1 34  1  0  0  0  0
  1 35  1  0  0  0  0
  2  3  1  0  0  0  0
  2 36  1  0  0  0  0
  3  4  2  0  0  0  0
  3  5  1  0  0  0  0
  5  6  1  0  0  0  0
  5 37  1  0  0  0  0
  6  7  1  0  0  0  0
  6 24  2  0  0  0  0
  7  8  2  0  0  0  0
  7 38  1  0  0  0  0
  8  9  1  0  0  0  0
  8 22  1  0  0  0  0
  9 10  1  0  0  0  0
  9 19  2  0  0  0  0
 10 11  1  0  0  0  0
 10 39  1  0  0  0  0
 11 12  1  0  0  0  0
 11 17  2  0  0  0  0
 12 13  2  0  0  0  0
 12 40  1  0  0  0  0
 13 14  1  0  0  0  0
 13 41  1  0  0  0  0
 14 15  1  0  0  0  0
 14 16  2  0  0  0  0
 16 17  1  0  0  0  0
 16 42  1  0  0  0  0
 17 18  1  0  0  0  0
 19 20  1  0  0  0  0
 20 21  2  0  0  0  0
 20 43  1  0  0  0  0
 21 22  1  0  0  0  0
 22 23  2  0  0  0  0
 23 24  1  0  0  0  0
 23 44  1  0  0  0  0
 24 25  1  0  0  0  0
 25 26  1  0  0  0  0
 26 27  1  0  0  0  0
 26 45  1  0  0  0  0
 26 46  1  0  0  0  0
 27 28  1  0  0  0  0
 27 47  1  0  0  0  0
 27 48  1  0  0  0  0
 28 29  1  0  0  0  0
 28 49  1  0  0  0  0
 29 30  2  0  0  0  0
 29 31  1  0  0  0  0
 31 32  2  0  0  0  0
 31 33  1  0  0  0  0
 32 50  1  0  0  0  0
 32 51  1  0  0  0  0
 33 52  1  0  0  0  0
 33 53  1  0  0  0  0
 33 54  1  0  0  0  0
M  END
$$$$
