CHEMBL178484
 OpenBabel04072215363D

 43 45  0  0  0  0  0  0  0  0999 V2000
    1.7662   -3.4180   -4.8550 O   0  0  0  0  0  0  0  0  0  0  0  0
    1.5659   -2.0821   -4.4139 C   0  0  0  0  0  0  0  0  0  0  0  0
    2.4956   -1.7934   -3.2446 C   0  0  0  0  0  0  0  0  0  0  0  0
    3.9613   -1.9048   -3.6661 C   0  0  0  0  0  0  0  0  0  0  0  0
    4.8246   -1.7293   -2.4906 N   0  0  0  0  0  0  0  0  0  0  0  0
    6.2259   -1.7654   -2.6929 C   0  0  0  0  0  0  0  0  0  0  0  0
    6.8141   -1.4069   -3.9197 C   0  0  0  0  0  0  0  0  0  0  0  0
    8.1375   -1.4195   -4.2078 N   0  0  0  0  0  0  0  0  0  0  0  0
    8.9539   -1.7803   -3.2093 C   0  0  0  0  0  0  0  0  0  0  0  0
    8.5058   -2.0835   -1.9377 C   0  0  0  0  0  0  0  0  0  0  0  0
    7.1252   -2.0488   -1.6331 C   0  0  0  0  0  0  0  0  0  0  0  0
    6.7316   -2.3135   -0.2265 C   0  0  0  0  0  0  0  0  0  0  0  0
    5.6647   -1.7034    0.4277 C   0  0  0  0  0  0  0  0  0  0  0  0
    5.3653   -1.9195    1.7329 N   0  0  0  0  0  0  0  0  0  0  0  0
    6.2211   -2.7406    2.3854 C   0  0  0  0  0  0  0  0  0  0  0  0
    7.3032   -3.3755    1.7768 C   0  0  0  0  0  0  0  0  0  0  0  0
    8.2128   -4.1314    2.5567 N   0  0  0  0  0  0  0  0  0  0  0  0
    9.0160   -5.1923    2.0659 C   0  0  0  0  0  0  0  0  0  0  0  0
    8.5826   -6.0332    1.0299 C   0  0  0  0  0  0  0  0  0  0  0  0
    9.3396   -7.1415    0.6440 C   0  0  0  0  0  0  0  0  0  0  0  0
   10.5360   -7.4284    1.2948 C   0  0  0  0  0  0  0  0  0  0  0  0
   10.9654   -6.6075    2.3333 C   0  0  0  0  0  0  0  0  0  0  0  0
   12.4404   -6.9658    3.1468 Cl  0  0  0  0  0  0  0  0  0  0  0  0
   10.2050   -5.5047    2.7341 C   0  0  0  0  0  0  0  0  0  0  0  0
    7.5488   -3.1611    0.4629 N   0  0  0  0  0  0  0  0  0  0  0  0
    1.1465   -3.5769   -5.5873 H   0  0  0  0  0  0  0  0  0  0  0  0
    0.5222   -1.9724   -4.1044 H   0  0  0  0  0  0  0  0  0  0  0  0
    1.7599   -1.4023   -5.2498 H   0  0  0  0  0  0  0  0  0  0  0  0
    2.2944   -2.5035   -2.4333 H   0  0  0  0  0  0  0  0  0  0  0  0
    2.2970   -0.7875   -2.8553 H   0  0  0  0  0  0  0  0  0  0  0  0
    4.1507   -1.1331   -4.4195 H   0  0  0  0  0  0  0  0  0  0  0  0
    4.1601   -2.8876   -4.1093 H   0  0  0  0  0  0  0  0  0  0  0  0
    4.5629   -2.4169   -1.7841 H   0  0  0  0  0  0  0  0  0  0  0  0
    6.2150   -1.0849   -4.7651 H   0  0  0  0  0  0  0  0  0  0  0  0
   10.0121   -1.8081   -3.4534 H   0  0  0  0  0  0  0  0  0  0  0  0
    9.2367   -2.3368   -1.1733 H   0  0  0  0  0  0  0  0  0  0  0  0
    5.0179   -0.9870   -0.0677 H   0  0  0  0  0  0  0  0  0  0  0  0
    6.0055   -2.8793    3.4391 H   0  0  0  0  0  0  0  0  0  0  0  0
    7.7710   -4.4425    3.4170 H   0  0  0  0  0  0  0  0  0  0  0  0
    7.6446   -5.8384    0.5167 H   0  0  0  0  0  0  0  0  0  0  0  0
    8.9895   -7.7817   -0.1633 H   0  0  0  0  0  0  0  0  0  0  0  0
   11.1239   -8.2912    0.9931 H   0  0  0  0  0  0  0  0  0  0  0  0
   10.5524   -4.8759    3.5479 H   0  0  0  0  0  0  0  0  0  0  0  0
  1  2  1  0  0  0  0
  1 26  1  0  0  0  0
  2  3  1  0  0  0  0
  2 27  1  0  0  0  0
  2 28  1  0  0  0  0
  3  4  1  0  0  0  0
  3 29  1  0  0  0  0
  3 30  1  0  0  0  0
  4  5  1  0  0  0  0
  4 31  1  0  0  0  0
  4 32  1  0  0  0  0
  5  6  1  0  0  0  0
  5 33  1  0  0  0  0
  6  7  1  0  0  0  0
  6 11  2  0  0  0  0
  7  8  2  0  0  0  0
  7 34  1  0  0  0  0
  8  9  1  0  0  0  0
  9 10  2  0  0  0  0
  9 35  1  0  0  0  0
 10 11  1  0  0  0  0
 10 36  1  0  0  0  0
 11 12  1  0  0  0  0
 12 13  1  0  0  0  0
 12 25  2  0  0  0  0
 13 14  2  0  0  0  0
 13 37  1  0  0  0  0
 14 15  1  0  0  0  0
 15 16  2  0  0  0  0
 15 38  1  0  0  0  0
 16 17  1  0  0  0  0
 16 25  1  0  0  0  0
 17 18  1  0  0  0  0
 17 39  1  0  0  0  0
 18 19  1  0  0  0  0
 18 24  2  0  0  0  0
 19 20  2  0  0  0  0
 19 40  1  0  0  0  0
 20 21  1  0  0  0  0
 20 41  1  0  0  0  0
 21 22  2  0  0  0  0
 21 42  1  0  0  0  0
 22 23  1  0  0  0  0
 22 24  1  0  0  0  0
 24 43  1  0  0  0  0
M  END
$$$$
