CHEMBL3586052
 OpenBabel04072215363D

 41 43  0  0  0  0  0  0  0  0999 V2000
    1.0957   -0.4397   -0.0377 O   0  0  0  0  0  0  0  0  0  0  0  0
    2.2259   -0.0234   -0.0345 C   0  0  0  0  0  0  0  0  0  0  0  0
    2.8984    0.5113    1.0597 N   0  0  0  0  0  0  0  0  0  0  0  0
    2.3106    0.7385    2.3241 C   0  0  0  0  0  0  0  0  0  0  0  0
    1.1439    0.1046    2.7423 C   0  0  0  0  0  0  0  0  0  0  0  0
    0.5654    0.4093    3.9749 C   0  0  0  0  0  0  0  0  0  0  0  0
    1.1398    1.3596    4.8276 C   0  0  0  0  0  0  0  0  0  0  0  0
    0.4995    1.7194    6.1021 C   0  0  0  0  0  0  0  0  0  0  0  0
   -0.2760    0.8107    6.8321 C   0  0  0  0  0  0  0  0  0  0  0  0
   -0.8703    1.2006    8.0295 C   0  0  0  0  0  0  0  0  0  0  0  0
   -0.6694    2.4967    8.4701 C   0  0  0  0  0  0  0  0  0  0  0  0
    0.0634    3.4109    7.8040 N   0  0  0  0  0  0  0  0  0  0  0  0
    0.6186    3.0003    6.6407 C   0  0  0  0  0  0  0  0  0  0  0  0
    2.3332    1.9730    4.4116 C   0  0  0  0  0  0  0  0  0  0  0  0
    2.9175    1.6652    3.1794 C   0  0  0  0  0  0  0  0  0  0  0  0
    3.0560   -0.0155   -1.1707 N   0  0  0  0  0  0  0  0  0  0  0  0
    2.6334   -0.5640   -2.4122 C   0  0  0  0  0  0  0  0  0  0  0  0
    1.5763    0.1000   -3.0609 C   0  0  0  0  0  0  0  0  0  0  0  0
    1.2223   -0.2298   -4.3689 C   0  0  0  0  0  0  0  0  0  0  0  0
   -0.1785    0.7048   -5.2294 Br  0  0  0  0  0  0  0  0  0  0  0  0
    1.9094   -1.2237   -5.0566 C   0  0  0  0  0  0  0  0  0  0  0  0
    2.9633   -1.9004   -4.4265 C   0  0  0  0  0  0  0  0  0  0  0  0
    3.3195   -1.5903   -3.0989 C   0  0  0  0  0  0  0  0  0  0  0  0
    4.3402   -2.3755   -2.6435 O   0  0  0  0  0  0  0  0  0  0  0  0
    4.3978   -2.7423   -1.2707 C   0  0  0  0  0  0  0  0  0  0  0  0
    3.3775   -2.2972   -0.5320 F   0  0  0  0  0  0  0  0  0  0  0  0
    4.4038   -4.0903   -1.1540 F   0  0  0  0  0  0  0  0  0  0  0  0
    5.5515   -2.2610   -0.7583 F   0  0  0  0  0  0  0  0  0  0  0  0
    3.7651    0.9960    0.8862 H   0  0  0  0  0  0  0  0  0  0  0  0
    0.6459   -0.6371    2.1264 H   0  0  0  0  0  0  0  0  0  0  0  0
   -0.3590   -0.0995    4.2411 H   0  0  0  0  0  0  0  0  0  0  0  0
   -0.4208   -0.2082    6.4824 H   0  0  0  0  0  0  0  0  0  0  0  0
   -1.4720    0.5057    8.6033 H   0  0  0  0  0  0  0  0  0  0  0  0
   -1.1060    2.8455    9.3983 H   0  0  0  0  0  0  0  0  0  0  0  0
    1.1790    3.7765    6.1267 H   0  0  0  0  0  0  0  0  0  0  0  0
    2.8265    2.7076    5.0460 H   0  0  0  0  0  0  0  0  0  0  0  0
    3.8277    2.1847    2.8954 H   0  0  0  0  0  0  0  0  0  0  0  0
    4.0398    0.0614   -0.9973 H   0  0  0  0  0  0  0  0  0  0  0  0
    1.0695    0.9245   -2.5624 H   0  0  0  0  0  0  0  0  0  0  0  0
    1.6401   -1.4863   -6.0764 H   0  0  0  0  0  0  0  0  0  0  0  0
    3.4829   -2.6813   -4.9640 H   0  0  0  0  0  0  0  0  0  0  0  0
  1  2  2  0  0  0  0
  2  3  1  0  0  0  0
  2 16  1  0  0  0  0
  3  4  1  0  0  0  0
  3 29  1  0  0  0  0
  4  5  1  0  0  0  0
  4 15  2  0  0  0  0
  5  6  2  0  0  0  0
  5 30  1  0  0  0  0
  6  7  1  0  0  0  0
  6 31  1  0  0  0  0
  7  8  1  0  0  0  0
  7 14  2  0  0  0  0
  8  9  1  0  0  0  0
  8 13  2  0  0  0  0
  9 10  2  0  0  0  0
  9 32  1  0  0  0  0
 10 11  1  0  0  0  0
 10 33  1  0  0  0  0
 11 12  2  0  0  0  0
 11 34  1  0  0  0  0
 12 13  1  0  0  0  0
 13 35  1  0  0  0  0
 14 15  1  0  0  0  0
 14 36  1  0  0  0  0
 15 37  1  0  0  0  0
 16 17  1  0  0  0  0
 16 38  1  0  0  0  0
 17 18  1  0  0  0  0
 17 23  2  0  0  0  0
 18 19  2  0  0  0  0
 18 39  1  0  0  0  0
 19 20  1  0  0  0  0
 19 21  1  0  0  0  0
 21 22  2  0  0  0  0
 21 40  1  0  0  0  0
 22 23  1  0  0  0  0
 22 41  1  0  0  0  0
 23 24  1  0  0  0  0
 24 25  1  0  0  0  0
 25 26  1  0  0  0  0
 25 27  1  0  0  0  0
 25 28  1  0  0  0  0
M  END
$$$$
