CHEMBL3694665
 OpenBabel04072215373D

 77 81  0  0  0  0  0  0  0  0999 V2000
    3.5182    5.0118   -1.5196 C   0  0  0  0  0  0  0  0  0  0  0  0
    3.4127    3.5334   -1.5674 N   0  0  0  0  0  0  0  0  0  0  0  0
    3.2723    3.0613   -2.9689 C   0  0  0  0  0  0  0  0  0  0  0  0
    4.6609    2.7131   -0.7704 S   0  0  0  0  0  0  0  0  0  0  0  0
    4.4108    1.2958   -0.8621 O   0  0  0  0  0  0  0  0  0  0  0  0
    5.9045    3.3054   -1.1954 O   0  0  0  0  0  0  0  0  0  0  0  0
    4.3198    3.1584    0.8191 N   0  0  0  0  0  0  0  0  0  0  0  0
    5.1859    2.5278    1.8622 C   0  0  0  0  0  0  0  0  0  0  0  0
    6.6661    2.9168    1.7285 C   0  0  0  0  0  0  0  0  0  0  0  0
    7.5613    2.1972    2.7495 C   0  0  0  0  0  0  0  0  0  0  0  0
    7.4147    2.7361    4.1683 C   0  0  0  0  0  0  0  0  0  0  0  0
    7.4958    4.1924    4.1855 N   0  0  0  0  0  0  0  0  0  0  0  0
    8.4342    4.8111    4.9858 C   0  0  0  0  0  0  0  0  0  0  0  0
    8.2069    6.0865    5.5068 C   0  0  0  0  0  0  0  0  0  0  0  0
    9.1559    6.7003    6.3237 C   0  0  0  0  0  0  0  0  0  0  0  0
   10.3382    6.0319    6.6123 C   0  0  0  0  0  0  0  0  0  0  0  0
   11.3759    6.6611    7.4366 C   0  0  0  0  0  0  0  0  0  0  0  0
   12.4119    7.5040    6.8441 C   0  0  0  0  0  0  0  0  0  0  0  0
   13.3243    8.0895    7.6348 C   0  0  0  0  0  0  0  0  0  0  0  0
   13.2589    7.9123    9.0188 N   0  0  0  0  0  0  0  0  0  0  0  0
   14.0172    8.4645   10.0450 C   0  0  0  0  0  0  0  0  0  0  0  0
   15.0766    9.4753    9.9217 C   0  0  0  0  0  0  0  0  0  0  0  0
   16.1873    9.4079   10.7739 C   0  0  0  0  0  0  0  0  0  0  0  0
   17.1849   10.3772   10.7178 C   0  0  0  0  0  0  0  0  0  0  0  0
   17.1152   11.3955    9.7698 C   0  0  0  0  0  0  0  0  0  0  0  0
   16.0552   11.4644    8.8677 C   0  0  0  0  0  0  0  0  0  0  0  0
   15.9979   12.4172    7.8246 N   0  0  0  0  0  0  0  0  0  0  0  0
   17.0807   13.1252    7.3475 C   0  0  0  0  0  0  0  0  0  0  0  0
   18.2432   13.0167    7.7180 O   0  0  0  0  0  0  0  0  0  0  0  0
   16.7353   14.0477    6.3881 N   0  0  0  0  0  0  0  0  0  0  0  0
   17.8110   14.8441    5.7856 C   0  0  0  0  0  0  0  0  0  0  0  0
   18.6328   14.1569    4.6847 C   0  0  0  0  0  0  0  0  0  0  0  0
   18.1038   12.9648    4.3246 F   0  0  0  0  0  0  0  0  0  0  0  0
   18.6454   14.9302    3.5690 F   0  0  0  0  0  0  0  0  0  0  0  0
   19.9165   13.9576    5.0467 F   0  0  0  0  0  0  0  0  0  0  0  0
   15.0068   10.5396    8.9973 C   0  0  0  0  0  0  0  0  0  0  0  0
   13.5434    7.8267   11.1838 C   0  0  0  0  0  0  0  0  0  0  0  0
   12.4970    6.9875   10.9146 N   0  0  0  0  0  0  0  0  0  0  0  0
   12.3194    7.0712    9.6158 C   0  0  0  0  0  0  0  0  0  0  0  0
   11.3528    6.4497    8.7721 C   0  0  0  0  0  0  0  0  0  0  0  0
   10.5017    4.7710    6.0586 C   0  0  0  0  0  0  0  0  0  0  0  0
    9.5794    4.1555    5.2771 N   0  0  0  0  0  0  0  0  0  0  0  0
    6.6616    4.9443    3.2577 C   0  0  0  0  0  0  0  0  0  0  0  0
    6.8774    4.4328    1.8358 C   0  0  0  0  0  0  0  0  0  0  0  0
    2.6701    5.4604   -2.0487 H   0  0  0  0  0  0  0  0  0  0  0  0
    4.4379    5.3633   -1.9975 H   0  0  0  0  0  0  0  0  0  0  0  0
    3.4777    5.3717   -0.4881 H   0  0  0  0  0  0  0  0  0  0  0  0
    2.4646    3.5991   -3.4737 H   0  0  0  0  0  0  0  0  0  0  0  0
    3.0148    1.9981   -2.9868 H   0  0  0  0  0  0  0  0  0  0  0  0
    4.1997    3.2217   -3.5291 H   0  0  0  0  0  0  0  0  0  0  0  0
    3.3455    2.8955    0.9825 H   0  0  0  0  0  0  0  0  0  0  0  0
    5.0579    1.4398    1.8176 H   0  0  0  0  0  0  0  0  0  0  0  0
    4.7843    2.8331    2.8357 H   0  0  0  0  0  0  0  0  0  0  0  0
    7.0257    2.5863    0.7502 H   0  0  0  0  0  0  0  0  0  0  0  0
    8.6063    2.3206    2.4347 H   0  0  0  0  0  0  0  0  0  0  0  0
    7.3598    1.1192    2.7376 H   0  0  0  0  0  0  0  0  0  0  0  0
    8.1615    2.2512    4.8083 H   0  0  0  0  0  0  0  0  0  0  0  0
    6.4400    2.4404    4.5740 H   0  0  0  0  0  0  0  0  0  0  0  0
    7.2735    6.6040    5.3164 H   0  0  0  0  0  0  0  0  0  0  0  0
    8.9577    7.6892    6.7271 H   0  0  0  0  0  0  0  0  0  0  0  0
   12.4279    7.6377    5.7668 H   0  0  0  0  0  0  0  0  0  0  0  0
   14.1224    8.6953    7.2314 H   0  0  0  0  0  0  0  0  0  0  0  0
   16.2901    8.6014   11.4966 H   0  0  0  0  0  0  0  0  0  0  0  0
   18.0290   10.3380   11.4017 H   0  0  0  0  0  0  0  0  0  0  0  0
   17.9068   12.1385    9.7688 H   0  0  0  0  0  0  0  0  0  0  0  0
   15.1519   12.4472    7.2738 H   0  0  0  0  0  0  0  0  0  0  0  0
   15.9262   13.8513    5.8184 H   0  0  0  0  0  0  0  0  0  0  0  0
   18.4893   15.1729    6.5818 H   0  0  0  0  0  0  0  0  0  0  0  0
   17.3343   15.7461    5.3820 H   0  0  0  0  0  0  0  0  0  0  0  0
   14.1300   10.6380    8.3619 H   0  0  0  0  0  0  0  0  0  0  0  0
   13.8935    7.9567   12.2008 H   0  0  0  0  0  0  0  0  0  0  0  0
   10.6046    5.8231    9.2480 H   0  0  0  0  0  0  0  0  0  0  0  0
   11.4093    4.1966    6.2251 H   0  0  0  0  0  0  0  0  0  0  0  0
    6.8872    6.0161    3.2528 H   0  0  0  0  0  0  0  0  0  0  0  0
    5.6122    4.8461    3.5563 H   0  0  0  0  0  0  0  0  0  0  0  0
    7.9041    4.6647    1.5238 H   0  0  0  0  0  0  0  0  0  0  0  0
    6.2180    4.9751    1.1492 H   0  0  0  0  0  0  0  0  0  0  0  0
  1  2  1  0  0  0  0
  1 45  1  0  0  0  0
  1 46  1  0  0  0  0
  1 47  1  0  0  0  0
  2  3  1  0  0  0  0
  2  4  1  0  0  0  0
  3 48  1  0  0  0  0
  3 49  1  0  0  0  0
  3 50  1  0  0  0  0
  4  5  2  0  0  0  0
  4  6  2  0  0  0  0
  4  7  1  0  0  0  0
  7  8  1  0  0  0  0
  7 51  1  0  0  0  0
  8  9  1  0  0  0  0
  8 52  1  0  0  0  0
  8 53  1  0  0  0  0
  9 10  1  0  0  0  0
  9 44  1  0  0  0  0
  9 54  1  0  0  0  0
 10 11  1  0  0  0  0
 10 55  1  0  0  0  0
 10 56  1  0  0  0  0
 11 12  1  0  0  0  0
 11 57  1  0  0  0  0
 11 58  1  0  0  0  0
 12 13  1  0  0  0  0
 12 43  1  0  0  0  0
 13 14  1  0  0  0  0
 13 42  2  0  0  0  0
 14 15  2  0  0  0  0
 14 59  1  0  0  0  0
 15 16  1  0  0  0  0
 15 60  1  0  0  0  0
 16 17  1  0  0  0  0
 16 41  2  0  0  0  0
 17 18  1  0  0  0  0
 17 40  2  0  0  0  0
 18 19  2  0  0  0  0
 18 61  1  0  0  0  0
 19 20  1  0  0  0  0
 19 62  1  0  0  0  0
 20 21  1  0  0  0  0
 20 39  1  0  0  0  0
 21 22  1  0  0  0  0
 21 37  2  0  0  0  0
 22 23  1  0  0  0  0
 22 36  2  0  0  0  0
 23 24  2  0  0  0  0
 23 63  1  0  0  0  0
 24 25  1  0  0  0  0
 24 64  1  0  0  0  0
 25 26  2  0  0  0  0
 25 65  1  0  0  0  0
 26 27  1  0  0  0  0
 26 36  1  0  0  0  0
 27 28  1  0  0  0  0
 27 66  1  0  0  0  0
 28 29  2  0  0  0  0
 28 30  1  0  0  0  0
 30 31  1  0  0  0  0
 30 67  1  0  0  0  0
 31 32  1  0  0  0  0
 31 68  1  0  0  0  0
 31 69  1  0  0  0  0
 32 33  1  0  0  0  0
 32 34  1  0  0  0  0
 32 35  1  0  0  0  0
 36 70  1  0  0  0  0
 37 38  1  0  0  0  0
 37 71  1  0  0  0  0
 38 39  2  0  0  0  0
 39 40  1  0  0  0  0
 40 72  1  0  0  0  0
 41 42  1  0  0  0  0
 41 73  1  0  0  0  0
 43 44  1  0  0  0  0
 43 74  1  0  0  0  0
 43 75  1  0  0  0  0
 44 76  1  0  0  0  0
 44 77  1  0  0  0  0
M  END
$$$$
