CHEMBL1934329
 OpenBabel04072215363D

 69 73  0  0  0  0  0  0  0  0999 V2000
    1.4408   12.5109   -0.3902 C   0  0  0  0  0  0  0  0  0  0  0  0
    2.0292   11.1888   -0.7949 C   0  0  0  0  0  0  0  0  0  0  0  0
    3.3423   10.9080   -0.4242 C   0  0  0  0  0  0  0  0  0  0  0  0
    3.9457    9.6993   -0.7836 C   0  0  0  0  0  0  0  0  0  0  0  0
    3.2645    8.7224   -1.5105 C   0  0  0  0  0  0  0  0  0  0  0  0
    3.8576    7.4781   -1.8949 N   0  0  0  0  0  0  0  0  0  0  0  0
    5.1293    7.0704   -1.5155 C   0  0  0  0  0  0  0  0  0  0  0  0
    5.8743    7.6877   -0.7634 O   0  0  0  0  0  0  0  0  0  0  0  0
    5.5155    5.8661   -2.1080 N   0  0  0  0  0  0  0  0  0  0  0  0
    6.8033    5.3481   -1.7999 C   0  0  0  0  0  0  0  0  0  0  0  0
    7.2373    5.2327   -0.4747 C   0  0  0  0  0  0  0  0  0  0  0  0
    8.5540    4.8591   -0.1834 C   0  0  0  0  0  0  0  0  0  0  0  0
    9.4605    4.5705   -1.2111 C   0  0  0  0  0  0  0  0  0  0  0  0
   10.8190    4.3196   -0.9004 N   0  0  0  0  0  0  0  0  0  0  0  0
   11.7347    3.5151   -1.6266 C   0  0  0  0  0  0  0  0  0  0  0  0
   11.2662    2.5976   -2.4911 N   0  0  0  0  0  0  0  0  0  0  0  0
   12.1668    1.8354   -3.1111 C   0  0  0  0  0  0  0  0  0  0  0  0
   13.4940    1.9080   -2.9768 N   0  0  0  0  0  0  0  0  0  0  0  0
   13.9573    2.8123   -2.1156 C   0  0  0  0  0  0  0  0  0  0  0  0
   15.3262    2.8645   -1.8907 C   0  0  0  0  0  0  0  0  0  0  0  0
   15.8714    3.7120   -0.9260 C   0  0  0  0  0  0  0  0  0  0  0  0
   17.2072    3.5532   -0.6652 O   0  0  0  0  0  0  0  0  0  0  0  0
   17.5605    3.7867    0.7053 C   0  0  0  0  0  0  0  0  0  0  0  0
   18.7083    2.8535    1.1181 C   0  0  0  0  0  0  0  0  0  0  0  0
   18.3215    1.3727    1.0101 C   0  0  0  0  0  0  0  0  0  0  0  0
   17.2513    0.9886    2.0326 C   0  0  0  0  0  0  0  0  0  0  0  0
   17.6588    1.2958    3.4097 N   0  0  0  0  0  0  0  0  0  0  0  0
   16.5480    1.0139    4.3260 C   0  0  0  0  0  0  0  0  0  0  0  0
   18.1274    2.6740    3.6008 C   0  0  0  0  0  0  0  0  0  0  0  0
   19.1536    3.1347    2.5580 C   0  0  0  0  0  0  0  0  0  0  0  0
   15.0584    4.6277   -0.2723 C   0  0  0  0  0  0  0  0  0  0  0  0
   13.6849    4.6104   -0.4981 C   0  0  0  0  0  0  0  0  0  0  0  0
   13.1168    3.6722   -1.3965 C   0  0  0  0  0  0  0  0  0  0  0  0
    9.0052    4.6715   -2.5339 C   0  0  0  0  0  0  0  0  0  0  0  0
    7.6815    5.0289   -2.8320 C   0  0  0  0  0  0  0  0  0  0  0  0
    1.9424    8.9924   -1.8847 C   0  0  0  0  0  0  0  0  0  0  0  0
    1.3339   10.2147   -1.5279 C   0  0  0  0  0  0  0  0  0  0  0  0
   -0.4633   10.4976   -2.0801 Br  0  0  0  0  0  0  0  0  0  0  0  0
    2.1728   13.1170    0.1611 H   0  0  0  0  0  0  0  0  0  0  0  0
    0.5812   12.3690    0.2705 H   0  0  0  0  0  0  0  0  0  0  0  0
    1.1489   13.0906   -1.2703 H   0  0  0  0  0  0  0  0  0  0  0  0
    3.9282   11.6267    0.1490 H   0  0  0  0  0  0  0  0  0  0  0  0
    4.9745    9.5768   -0.4573 H   0  0  0  0  0  0  0  0  0  0  0  0
    3.2804    6.8178   -2.3766 H   0  0  0  0  0  0  0  0  0  0  0  0
    5.2056    5.7545   -3.0609 H   0  0  0  0  0  0  0  0  0  0  0  0
    6.5639    5.4702    0.3457 H   0  0  0  0  0  0  0  0  0  0  0  0
    8.8611    4.8183    0.8575 H   0  0  0  0  0  0  0  0  0  0  0  0
   10.9690    4.1977    0.0935 H   0  0  0  0  0  0  0  0  0  0  0  0
   11.7856    1.0696   -3.7814 H   0  0  0  0  0  0  0  0  0  0  0  0
   15.9801    2.1906   -2.4416 H   0  0  0  0  0  0  0  0  0  0  0  0
   16.7074    3.6245    1.3742 H   0  0  0  0  0  0  0  0  0  0  0  0
   17.8725    4.8326    0.7984 H   0  0  0  0  0  0  0  0  0  0  0  0
   19.5503    3.0338    0.4374 H   0  0  0  0  0  0  0  0  0  0  0  0
   19.2147    0.7552    1.1742 H   0  0  0  0  0  0  0  0  0  0  0  0
   17.9652    1.1373    0.0006 H   0  0  0  0  0  0  0  0  0  0  0  0
   17.0720   -0.0905    1.9453 H   0  0  0  0  0  0  0  0  0  0  0  0
   16.3042    1.4820    1.7822 H   0  0  0  0  0  0  0  0  0  0  0  0
   16.2428   -0.0359    4.2559 H   0  0  0  0  0  0  0  0  0  0  0  0
   15.6725    1.6385    4.1083 H   0  0  0  0  0  0  0  0  0  0  0  0
   16.8432    1.1925    5.3656 H   0  0  0  0  0  0  0  0  0  0  0  0
   18.6072    2.7431    4.5869 H   0  0  0  0  0  0  0  0  0  0  0  0
   17.2855    3.3758    3.6139 H   0  0  0  0  0  0  0  0  0  0  0  0
   20.1081    2.6288    2.7419 H   0  0  0  0  0  0  0  0  0  0  0  0
   19.3396    4.2090    2.6895 H   0  0  0  0  0  0  0  0  0  0  0  0
   15.4630    5.3418    0.4353 H   0  0  0  0  0  0  0  0  0  0  0  0
   13.0584    5.3207    0.0345 H   0  0  0  0  0  0  0  0  0  0  0  0
    9.7006    4.5140   -3.3545 H   0  0  0  0  0  0  0  0  0  0  0  0
    7.3946    5.1407   -3.8721 H   0  0  0  0  0  0  0  0  0  0  0  0
    1.3745    8.2639   -2.4532 H   0  0  0  0  0  0  0  0  0  0  0  0
  1  2  1  0  0  0  0
  1 39  1  0  0  0  0
  1 40  1  0  0  0  0
  1 41  1  0  0  0  0
  2  3  1  0  0  0  0
  2 37  2  0  0  0  0
  3  4  2  0  0  0  0
  3 42  1  0  0  0  0
  4  5  1  0  0  0  0
  4 43  1  0  0  0  0
  5  6  1  0  0  0  0
  5 36  2  0  0  0  0
  6  7  1  0  0  0  0
  6 44  1  0  0  0  0
  7  8  2  0  0  0  0
  7  9  1  0  0  0  0
  9 10  1  0  0  0  0
  9 45  1  0  0  0  0
 10 11  1  0  0  0  0
 10 35  2  0  0  0  0
 11 12  2  0  0  0  0
 11 46  1  0  0  0  0
 12 13  1  0  0  0  0
 12 47  1  0  0  0  0
 13 14  1  0  0  0  0
 13 34  2  0  0  0  0
 14 15  1  0  0  0  0
 14 48  1  0  0  0  0
 15 16  1  0  0  0  0
 15 33  2  0  0  0  0
 16 17  2  0  0  0  0
 17 18  1  0  0  0  0
 17 49  1  0  0  0  0
 18 19  2  0  0  0  0
 19 20  1  0  0  0  0
 19 33  1  0  0  0  0
 20 21  2  0  0  0  0
 20 50  1  0  0  0  0
 21 22  1  0  0  0  0
 21 31  1  0  0  0  0
 22 23  1  0  0  0  0
 23 24  1  0  0  0  0
 23 51  1  0  0  0  0
 23 52  1  0  0  0  0
 24 25  1  0  0  0  0
 24 30  1  0  0  0  0
 24 53  1  0  0  0  0
 25 26  1  0  0  0  0
 25 54  1  0  0  0  0
 25 55  1  0  0  0  0
 26 27  1  0  0  0  0
 26 56  1  0  0  0  0
 26 57  1  0  0  0  0
 27 28  1  0  0  0  0
 27 29  1  0  0  0  0
 28 58  1  0  0  0  0
 28 59  1  0  0  0  0
 28 60  1  0  0  0  0
 29 30  1  0  0  0  0
 29 61  1  0  0  0  0
 29 62  1  0  0  0  0
 30 63  1  0  0  0  0
 30 64  1  0  0  0  0
 31 32  2  0  0  0  0
 31 65  1  0  0  0  0
 32 33  1  0  0  0  0
 32 66  1  0  0  0  0
 34 35  1  0  0  0  0
 34 67  1  0  0  0  0
 35 68  1  0  0  0  0
 36 37  1  0  0  0  0
 36 69  1  0  0  0  0
 37 38  1  0  0  0  0
M  END
$$$$
