CHEMBL425930
 OpenBabel04072215383D

 47 50  0  0  0  0  0  0  0  0999 V2000
    1.1011   -0.0035    0.0847 O   0  0  0  0  0  0  0  0  0  0  0  0
    2.3274   -0.0742    0.0227 C   0  0  0  0  0  0  0  0  0  0  0  0
    2.9837   -0.6282   -1.0649 N   0  0  0  0  0  0  0  0  0  0  0  0
    2.3215   -1.0842   -2.2262 C   0  0  0  0  0  0  0  0  0  0  0  0
    1.0322   -0.6640   -2.5534 C   0  0  0  0  0  0  0  0  0  0  0  0
    0.3446   -1.2227   -3.6263 C   0  0  0  0  0  0  0  0  0  0  0  0
    0.9418   -2.1832   -4.4481 C   0  0  0  0  0  0  0  0  0  0  0  0
    0.1784   -2.7805   -5.5650 C   0  0  0  0  0  0  0  0  0  0  0  0
   -0.8163   -2.0482   -6.2410 C   0  0  0  0  0  0  0  0  0  0  0  0
   -1.5628   -2.6110   -7.2769 C   0  0  0  0  0  0  0  0  0  0  0  0
   -1.3190   -3.9216   -7.6700 C   0  0  0  0  0  0  0  0  0  0  0  0
   -0.3437   -4.6701   -7.0170 C   0  0  0  0  0  0  0  0  0  0  0  0
    0.3889   -4.1085   -5.9690 C   0  0  0  0  0  0  0  0  0  0  0  0
    2.2706   -2.5406   -4.1565 C   0  0  0  0  0  0  0  0  0  0  0  0
    2.9586   -1.9977   -3.0581 C   0  0  0  0  0  0  0  0  0  0  0  0
    3.1372    0.3875    1.1352 C   0  0  0  0  0  0  0  0  0  0  0  0
    4.8440    0.2816    1.1763 S   0  0  0  0  0  0  0  0  0  0  0  0
    4.8335    1.0066    2.7282 C   0  0  0  0  0  0  0  0  0  0  0  0
    3.6539    1.3112    3.2190 N   0  0  0  0  0  0  0  0  0  0  0  0
    2.6651    0.9699    2.3062 C   0  0  0  0  0  0  0  0  0  0  0  0
    1.2206    1.2096    2.6614 C   0  0  0  0  0  0  0  0  0  0  0  0
    0.9813    2.4189    3.5584 C   0  0  0  0  0  0  0  0  0  0  0  0
   -0.4933    2.6201    3.8192 C   0  0  0  0  0  0  0  0  0  0  0  0
   -1.1179    1.9788    4.8912 C   0  0  0  0  0  0  0  0  0  0  0  0
   -2.4744    2.1853    5.0914 C   0  0  0  0  0  0  0  0  0  0  0  0
   -3.2422    2.9670    4.3026 N   0  0  0  0  0  0  0  0  0  0  0  0
   -2.6238    3.5628    3.2602 C   0  0  0  0  0  0  0  0  0  0  0  0
   -1.2734    3.4184    2.9773 C   0  0  0  0  0  0  0  0  0  0  0  0
    3.9612   -0.8621   -0.9489 H   0  0  0  0  0  0  0  0  0  0  0  0
    0.5051    0.0973   -1.9902 H   0  0  0  0  0  0  0  0  0  0  0  0
   -0.6824   -0.9013   -3.7788 H   0  0  0  0  0  0  0  0  0  0  0  0
   -1.0271   -1.0148   -5.9717 H   0  0  0  0  0  0  0  0  0  0  0  0
   -2.3296   -2.0221   -7.7736 H   0  0  0  0  0  0  0  0  0  0  0  0
   -1.8918   -4.3601   -8.4809 H   0  0  0  0  0  0  0  0  0  0  0  0
   -0.1564   -5.6973   -7.3168 H   0  0  0  0  0  0  0  0  0  0  0  0
    1.1187   -4.7339   -5.4587 H   0  0  0  0  0  0  0  0  0  0  0  0
    2.7919   -3.2676   -4.7774 H   0  0  0  0  0  0  0  0  0  0  0  0
    3.9700   -2.3354   -2.8549 H   0  0  0  0  0  0  0  0  0  0  0  0
    5.7494    1.1995    3.2721 H   0  0  0  0  0  0  0  0  0  0  0  0
    0.8236    0.2967    3.1240 H   0  0  0  0  0  0  0  0  0  0  0  0
    0.6340    1.3816    1.7538 H   0  0  0  0  0  0  0  0  0  0  0  0
    1.3922    3.3212    3.0873 H   0  0  0  0  0  0  0  0  0  0  0  0
    1.5088    2.3050    4.5125 H   0  0  0  0  0  0  0  0  0  0  0  0
   -0.5626    1.3304    5.5605 H   0  0  0  0  0  0  0  0  0  0  0  0
   -2.9940    1.7118    5.9191 H   0  0  0  0  0  0  0  0  0  0  0  0
   -3.2636    4.1802    2.6364 H   0  0  0  0  0  0  0  0  0  0  0  0
   -0.8459    3.9202    2.1156 H   0  0  0  0  0  0  0  0  0  0  0  0
  1  2  2  0  0  0  0
  2  3  1  0  0  0  0
  2 16  1  0  0  0  0
  3  4  1  0  0  0  0
  3 29  1  0  0  0  0
  4  5  1  0  0  0  0
  4 15  2  0  0  0  0
  5  6  2  0  0  0  0
  5 30  1  0  0  0  0
  6  7  1  0  0  0  0
  6 31  1  0  0  0  0
  7  8  1  0  0  0  0
  7 14  2  0  0  0  0
  8  9  1  0  0  0  0
  8 13  2  0  0  0  0
  9 10  2  0  0  0  0
  9 32  1  0  0  0  0
 10 11  1  0  0  0  0
 10 33  1  0  0  0  0
 11 12  2  0  0  0  0
 11 34  1  0  0  0  0
 12 13  1  0  0  0  0
 12 35  1  0  0  0  0
 13 36  1  0  0  0  0
 14 15  1  0  0  0  0
 14 37  1  0  0  0  0
 15 38  1  0  0  0  0
 16 17  1  0  0  0  0
 16 20  2  0  0  0  0
 17 18  1  0  0  0  0
 18 19  2  0  0  0  0
 18 39  1  0  0  0  0
 19 20  1  0  0  0  0
 20 21  1  0  0  0  0
 21 22  1  0  0  0  0
 21 40  1  0  0  0  0
 21 41  1  0  0  0  0
 22 23  1  0  0  0  0
 22 42  1  0  0  0  0
 22 43  1  0  0  0  0
 23 24  1  0  0  0  0
 23 28  2  0  0  0  0
 24 25  2  0  0  0  0
 24 44  1  0  0  0  0
 25 26  1  0  0  0  0
 25 45  1  0  0  0  0
 26 27  2  0  0  0  0
 27 28  1  0  0  0  0
 27 46  1  0  0  0  0
 28 47  1  0  0  0  0
M  END
$$$$
