CHEMBL3966912
 OpenBabel04072215373D

 53 57  0  0  0  0  0  0  0  0999 V2000
    2.0006    0.4887   -0.5255 C   0  0  0  0  0  0  0  0  0  0  0  0
    3.3521   -0.1689   -0.7700 C   0  0  0  0  0  0  0  0  0  0  0  0
    3.4721   -1.4520    0.0143 C   0  0  0  0  0  0  0  0  0  0  0  0
    4.0182   -1.4132    1.3021 C   0  0  0  0  0  0  0  0  0  0  0  0
    4.0721   -2.5669    2.0721 C   0  0  0  0  0  0  0  0  0  0  0  0
    3.5463   -3.7600    1.5791 C   0  0  0  0  0  0  0  0  0  0  0  0
    2.9495   -3.8199    0.3180 C   0  0  0  0  0  0  0  0  0  0  0  0
    2.2959   -4.9804   -0.1741 N   0  0  0  0  0  0  0  0  0  0  0  0
    2.1075   -6.1653    0.5310 C   0  0  0  0  0  0  0  0  0  0  0  0
    2.4560   -6.3794    1.6855 O   0  0  0  0  0  0  0  0  0  0  0  0
    1.4087   -7.2786   -0.1728 C   0  0  0  0  0  0  0  0  0  0  0  0
    1.4170   -7.4249   -1.5579 C   0  0  0  0  0  0  0  0  0  0  0  0
    0.8354   -8.5562   -2.1243 C   0  0  0  0  0  0  0  0  0  0  0  0
    0.2694   -9.5526   -1.3162 C   0  0  0  0  0  0  0  0  0  0  0  0
    0.2722   -9.4549    0.0821 C   0  0  0  0  0  0  0  0  0  0  0  0
   -0.1896  -10.4798    0.8860 N   0  0  0  0  0  0  0  0  0  0  0  0
    0.3776  -10.7161    2.2139 C   0  0  0  0  0  0  0  0  0  0  0  0
   -0.6614  -10.3587    3.2689 C   0  0  0  0  0  0  0  0  0  0  0  0
   -1.9880  -11.0148    2.9847 C   0  0  0  0  0  0  0  0  0  0  0  0
   -2.3038  -11.4571    1.6820 C   0  0  0  0  0  0  0  0  0  0  0  0
   -3.5435  -12.0542    1.4719 C   0  0  0  0  0  0  0  0  0  0  0  0
   -4.5044  -12.2269    2.4008 N   0  0  0  0  0  0  0  0  0  0  0  0
   -4.2117  -11.7591    3.6439 C   0  0  0  0  0  0  0  0  0  0  0  0
   -5.0933  -11.8118    4.7641 C   0  0  0  0  0  0  0  0  0  0  0  0
   -4.5456  -11.2561    5.8962 C   0  0  0  0  0  0  0  0  0  0  0  0
   -2.9653  -10.6760    5.6200 S   0  0  0  0  0  0  0  0  0  0  0  0
   -2.9921  -11.1625    3.9638 C   0  0  0  0  0  0  0  0  0  0  0  0
   -1.3237  -11.3374    0.5286 C   0  0  0  0  0  0  0  0  0  0  0  0
    0.8252   -8.2829    0.6208 C   0  0  0  0  0  0  0  0  0  0  0  0
    2.9595   -2.6666   -0.4819 C   0  0  0  0  0  0  0  0  0  0  0  0
    1.9461    1.4543   -1.0354 H   0  0  0  0  0  0  0  0  0  0  0  0
    1.8290    0.6599    0.5439 H   0  0  0  0  0  0  0  0  0  0  0  0
    1.1838   -0.1404   -0.8958 H   0  0  0  0  0  0  0  0  0  0  0  0
    4.1514    0.5220   -0.4729 H   0  0  0  0  0  0  0  0  0  0  0  0
    3.4953   -0.3616   -1.8391 H   0  0  0  0  0  0  0  0  0  0  0  0
    4.3889   -0.4802    1.7200 H   0  0  0  0  0  0  0  0  0  0  0  0
    4.4943   -2.5416    3.0728 H   0  0  0  0  0  0  0  0  0  0  0  0
    3.6026   -4.6241    2.2310 H   0  0  0  0  0  0  0  0  0  0  0  0
    1.8398   -4.8828   -1.0698 H   0  0  0  0  0  0  0  0  0  0  0  0
    1.9163   -6.7096   -2.2029 H   0  0  0  0  0  0  0  0  0  0  0  0
    0.8618   -8.6960   -3.2028 H   0  0  0  0  0  0  0  0  0  0  0  0
   -0.1135  -10.4466   -1.7983 H   0  0  0  0  0  0  0  0  0  0  0  0
    1.3083  -10.1646    2.3928 H   0  0  0  0  0  0  0  0  0  0  0  0
    0.6488  -11.7774    2.2968 H   0  0  0  0  0  0  0  0  0  0  0  0
   -0.8151   -9.2739    3.2948 H   0  0  0  0  0  0  0  0  0  0  0  0
   -0.2854  -10.6732    4.2503 H   0  0  0  0  0  0  0  0  0  0  0  0
   -3.8147  -12.4327    0.4882 H   0  0  0  0  0  0  0  0  0  0  0  0
   -6.0880  -12.2387    4.7281 H   0  0  0  0  0  0  0  0  0  0  0  0
   -4.9940  -11.1605    6.8751 H   0  0  0  0  0  0  0  0  0  0  0  0
   -1.8631  -10.9499   -0.3427 H   0  0  0  0  0  0  0  0  0  0  0  0
   -0.9498  -12.3387    0.2836 H   0  0  0  0  0  0  0  0  0  0  0  0
    0.8191   -8.1349    1.7014 H   0  0  0  0  0  0  0  0  0  0  0  0
    2.5422   -2.6890   -1.4856 H   0  0  0  0  0  0  0  0  0  0  0  0
  1  2  1  0  0  0  0
  1 31  1  0  0  0  0
  1 32  1  0  0  0  0
  1 33  1  0  0  0  0
  2  3  1  0  0  0  0
  2 34  1  0  0  0  0
  2 35  1  0  0  0  0
  3  4  1  0  0  0  0
  3 30  2  0  0  0  0
  4  5  2  0  0  0  0
  4 36  1  0  0  0  0
  5  6  1  0  0  0  0
  5 37  1  0  0  0  0
  6  7  2  0  0  0  0
  6 38  1  0  0  0  0
  7  8  1  0  0  0  0
  7 30  1  0  0  0  0
  8  9  1  0  0  0  0
  8 39  1  0  0  0  0
  9 10  2  0  0  0  0
  9 11  1  0  0  0  0
 11 12  1  0  0  0  0
 11 29  2  0  0  0  0
 12 13  2  0  0  0  0
 12 40  1  0  0  0  0
 13 14  1  0  0  0  0
 13 41  1  0  0  0  0
 14 15  2  0  0  0  0
 14 42  1  0  0  0  0
 15 16  1  0  0  0  0
 15 29  1  0  0  0  0
 16 17  1  0  0  0  0
 16 28  1  0  0  0  0
 17 18  1  0  0  0  0
 17 43  1  0  0  0  0
 17 44  1  0  0  0  0
 18 19  1  0  0  0  0
 18 45  1  0  0  0  0
 18 46  1  0  0  0  0
 19 20  1  0  0  0  0
 19 27  2  0  0  0  0
 20 21  2  0  0  0  0
 20 28  1  0  0  0  0
 21 22  1  0  0  0  0
 21 47  1  0  0  0  0
 22 23  2  0  0  0  0
 23 24  1  0  0  0  0
 23 27  1  0  0  0  0
 24 25  2  0  0  0  0
 24 48  1  0  0  0  0
 25 26  1  0  0  0  0
 25 49  1  0  0  0  0
 26 27  1  0  0  0  0
 28 50  1  0  0  0  0
 28 51  1  0  0  0  0
 29 52  1  0  0  0  0
 30 53  1  0  0  0  0
M  END
$$$$
