CHEMBL3690573
 OpenBabel04072215373D

 53 56  0  0  0  0  0  0  0  0999 V2000
    1.0950   -0.6747    1.0295 C   0  0  0  0  0  0  0  0  0  0  0  0
    2.5178   -0.4957    1.1505 N   0  0  0  0  0  0  0  0  0  0  0  0
    3.1760    0.4582    0.4041 C   0  0  0  0  0  0  0  0  0  0  0  0
    2.6183    1.2174   -0.3781 O   0  0  0  0  0  0  0  0  0  0  0  0
    4.6390    0.5390    0.6018 C   0  0  0  0  0  0  0  0  0  0  0  0
    5.4143   -0.5590    0.9604 C   0  0  0  0  0  0  0  0  0  0  0  0
    6.7961   -0.4136    1.0759 C   0  0  0  0  0  0  0  0  0  0  0  0
    7.3730    0.8318    0.8314 C   0  0  0  0  0  0  0  0  0  0  0  0
    8.8452    1.0358    0.8070 C   0  0  0  0  0  0  0  0  0  0  0  0
    9.4459    2.0430   -0.0787 C   0  0  0  0  0  0  0  0  0  0  0  0
   10.7763    2.2038   -0.1199 C   0  0  0  0  0  0  0  0  0  0  0  0
   11.5883    1.4298    0.7072 N   0  0  0  0  0  0  0  0  0  0  0  0
   12.9616    1.4424    0.9032 C   0  0  0  0  0  0  0  0  0  0  0  0
   13.9224    2.4022    0.3529 C   0  0  0  0  0  0  0  0  0  0  0  0
   15.1976    1.9570   -0.0170 C   0  0  0  0  0  0  0  0  0  0  0  0
   16.1633    2.8599   -0.4497 C   0  0  0  0  0  0  0  0  0  0  0  0
   15.8482    4.2111   -0.5702 C   0  0  0  0  0  0  0  0  0  0  0  0
   14.5640    4.6795   -0.2811 C   0  0  0  0  0  0  0  0  0  0  0  0
   14.1797    6.0233   -0.4830 N   0  0  0  0  0  0  0  0  0  0  0  0
   14.8662    6.9287   -1.2635 C   0  0  0  0  0  0  0  0  0  0  0  0
   15.8571    6.7067   -1.9454 O   0  0  0  0  0  0  0  0  0  0  0  0
   14.3480    8.2002   -1.1865 N   0  0  0  0  0  0  0  0  0  0  0  0
   14.9910    9.2576   -1.9788 C   0  0  0  0  0  0  0  0  0  0  0  0
   14.6461    9.2865   -3.4754 C   0  0  0  0  0  0  0  0  0  0  0  0
   13.6325    8.4437   -3.7806 F   0  0  0  0  0  0  0  0  0  0  0  0
   14.2361   10.5320   -3.8268 F   0  0  0  0  0  0  0  0  0  0  0  0
   15.7020    8.9790   -4.2560 F   0  0  0  0  0  0  0  0  0  0  0  0
   13.6270    3.7754    0.2404 C   0  0  0  0  0  0  0  0  0  0  0  0
   13.1876    0.3577    1.7385 C   0  0  0  0  0  0  0  0  0  0  0  0
   12.0238   -0.2410    2.1367 N   0  0  0  0  0  0  0  0  0  0  0  0
   11.0732    0.4389    1.5360 C   0  0  0  0  0  0  0  0  0  0  0  0
    9.6581    0.2866    1.5902 C   0  0  0  0  0  0  0  0  0  0  0  0
    6.6265    1.9123    0.4845 N   0  0  0  0  0  0  0  0  0  0  0  0
    5.2855    1.7444    0.3671 C   0  0  0  0  0  0  0  0  0  0  0  0
    0.7710   -1.4005    1.7785 H   0  0  0  0  0  0  0  0  0  0  0  0
    0.8686   -1.0464    0.0266 H   0  0  0  0  0  0  0  0  0  0  0  0
    0.5903    0.2817    1.1879 H   0  0  0  0  0  0  0  0  0  0  0  0
    2.9986   -0.9778    1.8975 H   0  0  0  0  0  0  0  0  0  0  0  0
    4.9749   -1.5423    1.1002 H   0  0  0  0  0  0  0  0  0  0  0  0
    7.4004   -1.2844    1.3071 H   0  0  0  0  0  0  0  0  0  0  0  0
    8.7878    2.6456   -0.6990 H   0  0  0  0  0  0  0  0  0  0  0  0
   11.2438    2.9151   -0.7857 H   0  0  0  0  0  0  0  0  0  0  0  0
   15.4600    0.9031    0.0405 H   0  0  0  0  0  0  0  0  0  0  0  0
   17.1640    2.5174   -0.6985 H   0  0  0  0  0  0  0  0  0  0  0  0
   16.6390    4.8859   -0.8841 H   0  0  0  0  0  0  0  0  0  0  0  0
   13.2623    6.2937   -0.1624 H   0  0  0  0  0  0  0  0  0  0  0  0
   13.3602    8.2946   -1.0000 H   0  0  0  0  0  0  0  0  0  0  0  0
   16.0779    9.1588   -1.8674 H   0  0  0  0  0  0  0  0  0  0  0  0
   14.7066   10.2060   -1.5136 H   0  0  0  0  0  0  0  0  0  0  0  0
   12.6552    4.1448    0.5528 H   0  0  0  0  0  0  0  0  0  0  0  0
   14.1426    0.0027    2.1064 H   0  0  0  0  0  0  0  0  0  0  0  0
    9.2878   -0.4581    2.2827 H   0  0  0  0  0  0  0  0  0  0  0  0
    4.7364    2.6324    0.0625 H   0  0  0  0  0  0  0  0  0  0  0  0
  1  2  1  0  0  0  0
  1 35  1  0  0  0  0
  1 36  1  0  0  0  0
  1 37  1  0  0  0  0
  2  3  1  0  0  0  0
  2 38  1  0  0  0  0
  3  4  2  0  0  0  0
  3  5  1  0  0  0  0
  5  6  1  0  0  0  0
  5 34  2  0  0  0  0
  6  7  2  0  0  0  0
  6 39  1  0  0  0  0
  7  8  1  0  0  0  0
  7 40  1  0  0  0  0
  8  9  1  0  0  0  0
  8 33  2  0  0  0  0
  9 10  1  0  0  0  0
  9 32  2  0  0  0  0
 10 11  2  0  0  0  0
 10 41  1  0  0  0  0
 11 12  1  0  0  0  0
 11 42  1  0  0  0  0
 12 13  1  0  0  0  0
 12 31  1  0  0  0  0
 13 14  1  0  0  0  0
 13 29  2  0  0  0  0
 14 15  1  0  0  0  0
 14 28  2  0  0  0  0
 15 16  2  0  0  0  0
 15 43  1  0  0  0  0
 16 17  1  0  0  0  0
 16 44  1  0  0  0  0
 17 18  2  0  0  0  0
 17 45  1  0  0  0  0
 18 19  1  0  0  0  0
 18 28  1  0  0  0  0
 19 20  1  0  0  0  0
 19 46  1  0  0  0  0
 20 21  2  0  0  0  0
 20 22  1  0  0  0  0
 22 23  1  0  0  0  0
 22 47  1  0  0  0  0
 23 24  1  0  0  0  0
 23 48  1  0  0  0  0
 23 49  1  0  0  0  0
 24 25  1  0  0  0  0
 24 26  1  0  0  0  0
 24 27  1  0  0  0  0
 28 50  1  0  0  0  0
 29 30  1  0  0  0  0
 29 51  1  0  0  0  0
 30 31  2  0  0  0  0
 31 32  1  0  0  0  0
 32 52  1  0  0  0  0
 33 34  1  0  0  0  0
 34 53  1  0  0  0  0
M  END
$$$$
