CHEMBL3694686
 OpenBabel04072215373D

 48 51  0  0  0  0  0  0  0  0999 V2000
    3.2455   -0.0984    1.9365 O   0  0  0  0  0  0  0  0  0  0  0  0
    2.7963    0.4730    0.9542 C   0  0  0  0  0  0  0  0  0  0  0  0
    1.6224    1.1928    1.0072 N   0  0  0  0  0  0  0  0  0  0  0  0
    0.8255    1.1371    2.2395 C   0  0  0  0  0  0  0  0  0  0  0  0
   -0.0739   -0.0999    2.3723 C   0  0  0  0  0  0  0  0  0  0  0  0
   -0.0143   -0.8847    1.2705 F   0  0  0  0  0  0  0  0  0  0  0  0
    0.2403   -0.8538    3.4442 F   0  0  0  0  0  0  0  0  0  0  0  0
   -1.3681    0.2828    2.5072 F   0  0  0  0  0  0  0  0  0  0  0  0
    3.3652    0.5471   -0.2986 N   0  0  0  0  0  0  0  0  0  0  0  0
    4.5821   -0.0528   -0.6906 C   0  0  0  0  0  0  0  0  0  0  0  0
    5.2100   -1.0648    0.0316 C   0  0  0  0  0  0  0  0  0  0  0  0
    6.4503   -1.5453   -0.3844 C   0  0  0  0  0  0  0  0  0  0  0  0
    7.2890   -2.9346    0.5884 Br  0  0  0  0  0  0  0  0  0  0  0  0
    7.0874   -1.0055   -1.5009 C   0  0  0  0  0  0  0  0  0  0  0  0
    6.4661    0.0019   -2.2504 C   0  0  0  0  0  0  0  0  0  0  0  0
    7.1566    0.5774   -3.4124 C   0  0  0  0  0  0  0  0  0  0  0  0
    8.0302   -0.0323   -4.3026 C   0  0  0  0  0  0  0  0  0  0  0  0
    8.4672    0.8254   -5.2731 N   0  0  0  0  0  0  0  0  0  0  0  0
    7.8979    1.9745   -4.9903 C   0  0  0  0  0  0  0  0  0  0  0  0
    8.0028    3.2308   -5.6519 C   0  0  0  0  0  0  0  0  0  0  0  0
    7.4099    4.3425   -5.1488 C   0  0  0  0  0  0  0  0  0  0  0  0
    7.5981    5.6585   -5.8193 C   0  0  0  0  0  0  0  0  0  0  0  0
    8.7729    5.9851   -6.4673 C   0  0  0  0  0  0  0  0  0  0  0  0
    8.8476    7.2493   -6.9976 C   0  0  0  0  0  0  0  0  0  0  0  0
    7.8581    8.1509   -6.9036 N   0  0  0  0  0  0  0  0  0  0  0  0
    6.7385    7.7733   -6.2402 C   0  0  0  0  0  0  0  0  0  0  0  0
    5.5996    8.7914   -6.0891 C   0  0  0  0  0  0  0  0  0  0  0  0
    5.8698   10.0145   -6.6386 F   0  0  0  0  0  0  0  0  0  0  0  0
    4.4333    8.3829   -6.6752 F   0  0  0  0  0  0  0  0  0  0  0  0
    5.2826    9.0476   -4.7829 F   0  0  0  0  0  0  0  0  0  0  0  0
    6.5819    6.5414   -5.6892 N   0  0  0  0  0  0  0  0  0  0  0  0
    6.5968    4.2139   -3.9312 C   0  0  0  0  0  0  0  0  0  0  0  0
    6.4929    3.0306   -3.3057 C   0  0  0  0  0  0  0  0  0  0  0  0
    7.1219    1.9033   -3.8385 N   0  0  0  0  0  0  0  0  0  0  0  0
    5.1836    0.4234   -1.8624 C   0  0  0  0  0  0  0  0  0  0  0  0
    1.0956    1.2229    0.1438 H   0  0  0  0  0  0  0  0  0  0  0  0
    0.2120    2.0434    2.2494 H   0  0  0  0  0  0  0  0  0  0  0  0
    1.4998    1.1928    3.1028 H   0  0  0  0  0  0  0  0  0  0  0  0
    3.0029    1.2761   -0.8944 H   0  0  0  0  0  0  0  0  0  0  0  0
    4.7483   -1.4978    0.9135 H   0  0  0  0  0  0  0  0  0  0  0  0
    8.0733   -1.3717   -1.7776 H   0  0  0  0  0  0  0  0  0  0  0  0
    8.3586   -1.0646   -4.2967 H   0  0  0  0  0  0  0  0  0  0  0  0
    8.5979    3.2395   -6.5565 H   0  0  0  0  0  0  0  0  0  0  0  0
    9.6137    5.3101   -6.5463 H   0  0  0  0  0  0  0  0  0  0  0  0
    9.7392    7.5863   -7.5205 H   0  0  0  0  0  0  0  0  0  0  0  0
    6.0993    5.0977   -3.5425 H   0  0  0  0  0  0  0  0  0  0  0  0
    5.9369    2.9293   -2.3855 H   0  0  0  0  0  0  0  0  0  0  0  0
    4.6507    1.1486   -2.4711 H   0  0  0  0  0  0  0  0  0  0  0  0
  1  2  2  0  0  0  0
  2  3  1  0  0  0  0
  2  9  1  0  0  0  0
  3  4  1  0  0  0  0
  3 36  1  0  0  0  0
  4  5  1  0  0  0  0
  4 37  1  0  0  0  0
  4 38  1  0  0  0  0
  5  6  1  0  0  0  0
  5  7  1  0  0  0  0
  5  8  1  0  0  0  0
  9 10  1  0  0  0  0
  9 39  1  0  0  0  0
 10 11  1  0  0  0  0
 10 35  2  0  0  0  0
 11 12  2  0  0  0  0
 11 40  1  0  0  0  0
 12 13  1  0  0  0  0
 12 14  1  0  0  0  0
 14 15  2  0  0  0  0
 14 41  1  0  0  0  0
 15 16  1  0  0  0  0
 15 35  1  0  0  0  0
 16 17  2  0  0  0  0
 16 34  1  0  0  0  0
 17 18  1  0  0  0  0
 17 42  1  0  0  0  0
 18 19  2  0  0  0  0
 19 20  1  0  0  0  0
 19 34  1  0  0  0  0
 20 21  2  0  0  0  0
 20 43  1  0  0  0  0
 21 22  1  0  0  0  0
 21 32  1  0  0  0  0
 22 23  1  0  0  0  0
 22 31  2  0  0  0  0
 23 24  2  0  0  0  0
 23 44  1  0  0  0  0
 24 25  1  0  0  0  0
 24 45  1  0  0  0  0
 25 26  2  0  0  0  0
 26 27  1  0  0  0  0
 26 31  1  0  0  0  0
 27 28  1  0  0  0  0
 27 29  1  0  0  0  0
 27 30  1  0  0  0  0
 32 33  2  0  0  0  0
 32 46  1  0  0  0  0
 33 34  1  0  0  0  0
 33 47  1  0  0  0  0
 35 48  1  0  0  0  0
M  END
$$$$
