CHEMBL248391
 OpenBabel04072215363D

 60 64  0  0  1  0  0  0  0  0999 V2000
    1.3074    1.2508   -0.4969 C   0  0  0  0  0  0  0  0  0  0  0  0
    2.3024    0.3157   -0.0865 O   0  0  0  0  0  0  0  0  0  0  0  0
    2.9971   -0.3487   -1.0632 C   0  0  0  0  0  0  0  0  0  0  0  0
    2.7101   -0.2247   -2.4293 C   0  0  0  0  0  0  0  0  0  0  0  0
    3.4182   -0.9267   -3.4426 C   0  0  0  0  0  0  0  0  0  0  0  0
    3.0979   -0.8861   -4.8489 C   0  0  0  0  0  0  0  0  0  0  0  0
    2.0220   -0.0556   -5.2741 N   0  0  0  0  0  0  0  0  0  0  0  0
    1.7785    0.4305   -6.6482 C   0  0  2  0  0  0  0  0  0  0  0  0
    0.5367    1.2738   -6.7854 C   0  0  0  0  0  0  0  0  0  0  0  0
    0.6084   -0.0835   -7.4441 C   0  0  1  0  0  0  0  0  0  0  0  0
    0.3464   -0.0789   -8.9292 C   0  0  0  0  0  0  0  0  0  0  0  0
    1.2790   -0.4126   -9.9183 C   0  0  0  0  0  0  0  0  0  0  0  0
    0.8838   -0.5926  -11.2518 C   0  0  0  0  0  0  0  0  0  0  0  0
   -0.4478   -0.4180  -11.6241 C   0  0  0  0  0  0  0  0  0  0  0  0
   -1.3793   -0.0223  -10.6743 C   0  0  0  0  0  0  0  0  0  0  0  0
   -0.9791    0.1516   -9.3510 C   0  0  0  0  0  0  0  0  0  0  0  0
    3.7832   -1.7676   -5.6932 C   0  0  0  0  0  0  0  0  0  0  0  0
    3.4087   -2.0948   -7.0347 C   0  0  0  0  0  0  0  0  0  0  0  0
    3.1608   -2.4667   -8.1005 N   0  0  0  0  0  0  0  0  0  0  0  0
    4.8497   -2.4832   -5.1681 C   0  0  0  0  0  0  0  0  0  0  0  0
    5.2264   -2.4620   -3.8755 N   0  0  0  0  0  0  0  0  0  0  0  0
    4.4922   -1.7418   -3.0221 C   0  0  0  0  0  0  0  0  0  0  0  0
    4.7883   -1.8462   -1.6745 C   0  0  0  0  0  0  0  0  0  0  0  0
    4.0358   -1.2029   -0.6842 C   0  0  0  0  0  0  0  0  0  0  0  0
    4.4516   -1.4959    0.5891 O   0  0  0  0  0  0  0  0  0  0  0  0
    3.4360   -1.5539    1.5898 C   0  0  0  0  0  0  0  0  0  0  0  0
    3.8321   -2.5946    2.6382 C   0  0  0  0  0  0  0  0  0  0  0  0
    2.7909   -2.6361    3.7554 C   0  0  0  0  0  0  0  0  0  0  0  0
    3.1090   -3.6527    4.8132 C   0  0  0  0  0  0  0  0  0  0  0  0
    2.6129   -4.9566    4.7424 C   0  0  0  0  0  0  0  0  0  0  0  0
    2.9158   -5.8640    5.7528 C   0  0  0  0  0  0  0  0  0  0  0  0
    3.7140   -5.4368    6.8007 C   0  0  0  0  0  0  0  0  0  0  0  0
    4.2206   -4.1895    6.8995 N   0  0  0  0  0  0  0  0  0  0  0  0
    3.9094   -3.3290    5.9047 C   0  0  0  0  0  0  0  0  0  0  0  0
    0.7894    1.6123    0.3952 H   0  0  0  0  0  0  0  0  0  0  0  0
    0.5496    0.7858   -1.1370 H   0  0  0  0  0  0  0  0  0  0  0  0
    1.7715    2.1094   -0.9938 H   0  0  0  0  0  0  0  0  0  0  0  0
    1.8808    0.4044   -2.7214 H   0  0  0  0  0  0  0  0  0  0  0  0
    1.7749    0.6448   -4.5832 H   0  0  0  0  0  0  0  0  0  0  0  0
    2.6602    0.8285   -7.1424 H   0  0  0  0  0  0  0  0  0  0  0  0
    0.6122    2.1681   -7.3951 H   0  0  0  0  0  0  0  0  0  0  0  0
   -0.1594    1.3646   -5.9600 H   0  0  0  0  0  0  0  0  0  0  0  0
    0.1165   -0.9184   -6.9462 H   0  0  0  0  0  0  0  0  0  0  0  0
    2.3185   -0.5910   -9.6586 H   0  0  0  0  0  0  0  0  0  0  0  0
    1.6131   -0.9067  -11.9948 H   0  0  0  0  0  0  0  0  0  0  0  0
   -0.7616   -0.6023  -12.6477 H   0  0  0  0  0  0  0  0  0  0  0  0
   -2.4214    0.1178  -10.9456 H   0  0  0  0  0  0  0  0  0  0  0  0
   -1.7261    0.4283   -8.6091 H   0  0  0  0  0  0  0  0  0  0  0  0
    5.4365   -3.1566   -5.7908 H   0  0  0  0  0  0  0  0  0  0  0  0
    5.6123   -2.4889   -1.3696 H   0  0  0  0  0  0  0  0  0  0  0  0
    2.4658   -1.8460    1.1700 H   0  0  0  0  0  0  0  0  0  0  0  0
    3.3583   -0.5691    2.0643 H   0  0  0  0  0  0  0  0  0  0  0  0
    4.8281   -2.3652    3.0380 H   0  0  0  0  0  0  0  0  0  0  0  0
    3.9263   -3.5784    2.1593 H   0  0  0  0  0  0  0  0  0  0  0  0
    1.8003   -2.8531    3.3354 H   0  0  0  0  0  0  0  0  0  0  0  0
    2.7056   -1.6467    4.2228 H   0  0  0  0  0  0  0  0  0  0  0  0
    1.9859   -5.2676    3.9110 H   0  0  0  0  0  0  0  0  0  0  0  0
    2.5354   -6.8787    5.7259 H   0  0  0  0  0  0  0  0  0  0  0  0
    3.9741   -6.1068    7.6148 H   0  0  0  0  0  0  0  0  0  0  0  0
    4.3314   -2.3338    6.0190 H   0  0  0  0  0  0  0  0  0  0  0  0
  1  2  1  0  0  0  0
  1 35  1  0  0  0  0
  1 36  1  0  0  0  0
  1 37  1  0  0  0  0
  2  3  1  0  0  0  0
  3  4  1  0  0  0  0
  3 24  2  0  0  0  0
  4  5  2  0  0  0  0
  4 38  1  0  0  0  0
  5  6  1  0  0  0  0
  5 22  1  0  0  0  0
  6  7  1  0  0  0  0
  6 17  2  0  0  0  0
  7  8  1  0  0  0  0
  7 39  1  0  0  0  0
  8  9  1  0  0  0  0
  8 10  1  0  0  0  0
  8 40  1  6  0  0  0
  9 10  1  0  0  0  0
  9 41  1  0  0  0  0
  9 42  1  0  0  0  0
 10 11  1  0  0  0  0
 10 43  1  1  0  0  0
 11 12  1  0  0  0  0
 11 16  2  0  0  0  0
 12 13  2  0  0  0  0
 12 44  1  0  0  0  0
 13 14  1  0  0  0  0
 13 45  1  0  0  0  0
 14 15  2  0  0  0  0
 14 46  1  0  0  0  0
 15 16  1  0  0  0  0
 15 47  1  0  0  0  0
 16 48  1  0  0  0  0
 17 18  1  0  0  0  0
 17 20  1  0  0  0  0
 18 19  3  0  0  0  0
 20 21  2  0  0  0  0
 20 49  1  0  0  0  0
 21 22  1  0  0  0  0
 22 23  2  0  0  0  0
 23 24  1  0  0  0  0
 23 50  1  0  0  0  0
 24 25  1  0  0  0  0
 25 26  1  0  0  0  0
 26 27  1  0  0  0  0
 26 51  1  0  0  0  0
 26 52  1  0  0  0  0
 27 28  1  0  0  0  0
 27 53  1  0  0  0  0
 27 54  1  0  0  0  0
 28 29  1  0  0  0  0
 28 55  1  0  0  0  0
 28 56  1  0  0  0  0
 29 30  1  0  0  0  0
 29 34  2  0  0  0  0
 30 31  2  0  0  0  0
 30 57  1  0  0  0  0
 31 32  1  0  0  0  0
 31 58  1  0  0  0  0
 32 33  2  0  0  0  0
 32 59  1  0  0  0  0
 33 34  1  0  0  0  0
 34 60  1  0  0  0  0
M  END
$$$$
