CHEMBL1945804
 OpenBabel04072215363D

 56 59  0  0  0  0  0  0  0  0999 V2000
    2.4711    0.1545   -0.0673 C   0  0  0  0  0  0  0  0  0  0  0  0
    0.9707    0.0796   -0.0681 C   0  0  0  0  0  0  0  0  0  0  0  0
    0.3453    1.2863   -0.1467 N   0  0  0  0  0  0  0  0  0  0  0  0
   -1.0033    1.3008   -0.1452 C   0  0  0  0  0  0  0  0  0  0  0  0
   -1.7818    0.1593   -0.0993 C   0  0  0  0  0  0  0  0  0  0  0  0
   -3.2845    0.2156   -0.0780 C   0  0  0  0  0  0  0  0  0  0  0  0
   -3.9232   -0.5078    1.1190 C   0  0  0  0  0  0  0  0  0  0  0  0
   -3.4923    0.0751    2.4750 C   0  0  0  0  0  0  0  0  0  0  0  0
   -4.1705   -0.5536    3.6261 N   0  0  0  0  0  0  0  0  0  0  0  0
   -3.8481   -1.9787    3.7424 C   0  0  0  0  0  0  0  0  0  0  0  0
   -3.7779    0.1353    4.8610 C   0  0  0  0  0  0  0  0  0  0  0  0
   -1.1101   -1.0649   -0.0522 C   0  0  0  0  0  0  0  0  0  0  0  0
    0.2832   -1.1478    0.0351 C   0  0  0  0  0  0  0  0  0  0  0  0
    0.9422   -2.3795    0.1911 N   0  0  0  0  0  0  0  0  0  0  0  0
    0.4636   -3.6226    0.6263 C   0  0  0  0  0  0  0  0  0  0  0  0
    1.3997   -4.4799    1.0522 N   0  0  0  0  0  0  0  0  0  0  0  0
    0.9730   -5.6669    1.5242 C   0  0  0  0  0  0  0  0  0  0  0  0
   -0.3510   -6.0405    1.5787 C   0  0  0  0  0  0  0  0  0  0  0  0
   -1.2553   -5.0987    1.1377 C   0  0  0  0  0  0  0  0  0  0  0  0
   -0.8486   -3.9111    0.6450 N   0  0  0  0  0  0  0  0  0  0  0  0
   -2.7168   -5.3175    1.1846 C   0  0  0  0  0  0  0  0  0  0  0  0
   -3.5141   -4.9081    0.0933 C   0  0  0  0  0  0  0  0  0  0  0  0
   -4.9034   -5.0676    0.0991 C   0  0  0  0  0  0  0  0  0  0  0  0
   -5.5312   -5.5852    1.2241 C   0  0  0  0  0  0  0  0  0  0  0  0
   -7.2349   -5.8218    1.2285 Cl  0  0  0  0  0  0  0  0  0  0  0  0
   -4.7827   -5.9595    2.3343 C   0  0  0  0  0  0  0  0  0  0  0  0
   -3.3814   -5.8868    2.2993 C   0  0  0  0  0  0  0  0  0  0  0  0
   -2.7299   -6.4504    3.4179 N   0  0  0  0  0  0  0  0  0  0  0  0
   -1.5707   -7.1777    3.4073 C   0  0  0  0  0  0  0  0  0  0  0  0
   -1.0995   -7.9590    4.8116 S   0  0  0  0  0  0  0  0  0  0  0  0
   -0.8042   -7.3557    2.1149 C   0  0  0  0  0  0  0  0  0  0  0  0
    2.8037    1.1725   -0.3056 H   0  0  0  0  0  0  0  0  0  0  0  0
    2.8981   -0.5107   -0.8243 H   0  0  0  0  0  0  0  0  0  0  0  0
    2.8687   -0.1035    0.9183 H   0  0  0  0  0  0  0  0  0  0  0  0
   -1.4453    2.2924   -0.1750 H   0  0  0  0  0  0  0  0  0  0  0  0
   -3.6503   -0.2419   -1.0042 H   0  0  0  0  0  0  0  0  0  0  0  0
   -3.6235    1.2591   -0.0917 H   0  0  0  0  0  0  0  0  0  0  0  0
   -3.6752   -1.5733    1.0660 H   0  0  0  0  0  0  0  0  0  0  0  0
   -5.0137   -0.4371    1.0238 H   0  0  0  0  0  0  0  0  0  0  0  0
   -3.7393    1.1451    2.4660 H   0  0  0  0  0  0  0  0  0  0  0  0
   -2.4045   -0.0009    2.5953 H   0  0  0  0  0  0  0  0  0  0  0  0
   -4.2756   -2.5483    2.9119 H   0  0  0  0  0  0  0  0  0  0  0  0
   -4.2931   -2.4025    4.6501 H   0  0  0  0  0  0  0  0  0  0  0  0
   -2.7676   -2.1593    3.7743 H   0  0  0  0  0  0  0  0  0  0  0  0
   -4.0519    1.1953    4.8178 H   0  0  0  0  0  0  0  0  0  0  0  0
   -2.7011    0.0643    5.0499 H   0  0  0  0  0  0  0  0  0  0  0  0
   -4.3068   -0.2879    5.7230 H   0  0  0  0  0  0  0  0  0  0  0  0
   -1.7149   -1.9639   -0.0638 H   0  0  0  0  0  0  0  0  0  0  0  0
    1.9343   -2.3420    0.3861 H   0  0  0  0  0  0  0  0  0  0  0  0
    1.7622   -6.3278    1.8768 H   0  0  0  0  0  0  0  0  0  0  0  0
   -3.0413   -4.4728   -0.7864 H   0  0  0  0  0  0  0  0  0  0  0  0
   -5.4839   -4.7870   -0.7755 H   0  0  0  0  0  0  0  0  0  0  0  0
   -5.2921   -6.3807    3.1980 H   0  0  0  0  0  0  0  0  0  0  0  0
   -3.2691   -6.5556    4.2733 H   0  0  0  0  0  0  0  0  0  0  0  0
   -1.4578   -7.8459    1.3797 H   0  0  0  0  0  0  0  0  0  0  0  0
    0.0491   -8.0304    2.2473 H   0  0  0  0  0  0  0  0  0  0  0  0
  1  2  1  0  0  0  0
  1 32  1  0  0  0  0
  1 33  1  0  0  0  0
  1 34  1  0  0  0  0
  2  3  1  0  0  0  0
  2 13  2  0  0  0  0
  3  4  2  0  0  0  0
  4  5  1  0  0  0  0
  4 35  1  0  0  0  0
  5  6  1  0  0  0  0
  5 12  2  0  0  0  0
  6  7  1  0  0  0  0
  6 36  1  0  0  0  0
  6 37  1  0  0  0  0
  7  8  1  0  0  0  0
  7 38  1  0  0  0  0
  7 39  1  0  0  0  0
  8  9  1  0  0  0  0
  8 40  1  0  0  0  0
  8 41  1  0  0  0  0
  9 10  1  0  0  0  0
  9 11  1  0  0  0  0
 10 42  1  0  0  0  0
 10 43  1  0  0  0  0
 10 44  1  0  0  0  0
 11 45  1  0  0  0  0
 11 46  1  0  0  0  0
 11 47  1  0  0  0  0
 12 13  1  0  0  0  0
 12 48  1  0  0  0  0
 13 14  1  0  0  0  0
 14 15  1  0  0  0  0
 14 49  1  0  0  0  0
 15 16  1  0  0  0  0
 15 20  2  0  0  0  0
 16 17  2  0  0  0  0
 17 18  1  0  0  0  0
 17 50  1  0  0  0  0
 18 19  2  0  0  0  0
 18 31  1  0  0  0  0
 19 20  1  0  0  0  0
 19 21  1  0  0  0  0
 21 22  1  0  0  0  0
 21 27  2  0  0  0  0
 22 23  2  0  0  0  0
 22 51  1  0  0  0  0
 23 24  1  0  0  0  0
 23 52  1  0  0  0  0
 24 25  1  0  0  0  0
 24 26  2  0  0  0  0
 26 27  1  0  0  0  0
 26 53  1  0  0  0  0
 27 28  1  0  0  0  0
 28 29  1  0  0  0  0
 28 54  1  0  0  0  0
 29 30  2  0  0  0  0
 29 31  1  0  0  0  0
 31 55  1  0  0  0  0
 31 56  1  0  0  0  0
M  END
$$$$
