CHEMBL1964382
 OpenBabel04072215363D

 33 34  0  0  0  0  0  0  0  0999 V2000
    0.9459   -0.0337   -0.0331 C   0  0  0  0  0  0  0  0  0  0  0  0
    2.4965   -0.0612    0.0407 C   0  0  0  0  0  0  0  0  0  0  0  0
    3.0036   -0.3219   -1.4081 C   0  0  0  0  0  0  0  0  0  0  0  0
    3.0335    1.3365    0.4617 C   0  0  0  0  0  0  0  0  0  0  0  0
    2.7792    2.4642   -0.3514 C   0  0  0  0  0  0  0  0  0  0  0  0
    3.3565    3.7101   -0.0808 C   0  0  0  0  0  0  0  0  0  0  0  0
    3.0511    5.1382   -1.2915 Br  0  0  0  0  0  0  0  0  0  0  0  0
    4.1602    3.8885    1.0406 C   0  0  0  0  0  0  0  0  0  0  0  0
    4.7616    5.0919    1.2933 O   0  0  0  0  0  0  0  0  0  0  0  0
    4.3680    2.8109    1.9023 C   0  0  0  0  0  0  0  0  0  0  0  0
    5.4914    3.0049    3.6607 I   0  0  0  0  0  0  0  0  0  0  0  0
    3.8302    1.5474    1.6026 C   0  0  0  0  0  0  0  0  0  0  0  0
    2.8907   -1.2296    0.9916 C   0  0  0  0  0  0  0  0  0  0  0  0
    2.3949   -1.2764    2.3132 C   0  0  0  0  0  0  0  0  0  0  0  0
    2.7236   -2.3264    3.1792 C   0  0  0  0  0  0  0  0  0  0  0  0
    2.0759   -2.2760    4.9608 Br  0  0  0  0  0  0  0  0  0  0  0  0
    3.5242   -3.3816    2.7424 C   0  0  0  0  0  0  0  0  0  0  0  0
    3.8325   -4.4251    3.5752 O   0  0  0  0  0  0  0  0  0  0  0  0
    4.0122   -3.3713    1.4379 C   0  0  0  0  0  0  0  0  0  0  0  0
    5.1780   -4.9342    0.6772 I   0  0  0  0  0  0  0  0  0  0  0  0
    3.7127   -2.2949    0.5820 C   0  0  0  0  0  0  0  0  0  0  0  0
    0.5798    0.6800   -0.7795 H   0  0  0  0  0  0  0  0  0  0  0  0
    0.4897    0.2477    0.9225 H   0  0  0  0  0  0  0  0  0  0  0  0
    0.5499   -1.0197   -0.3103 H   0  0  0  0  0  0  0  0  0  0  0  0
    2.6454    0.4274   -2.1224 H   0  0  0  0  0  0  0  0  0  0  0  0
    2.6568   -1.2886   -1.7909 H   0  0  0  0  0  0  0  0  0  0  0  0
    4.0996   -0.3023   -1.4569 H   0  0  0  0  0  0  0  0  0  0  0  0
    2.1501    2.3713   -1.2346 H   0  0  0  0  0  0  0  0  0  0  0  0
    4.5966    5.6735    0.5296 H   0  0  0  0  0  0  0  0  0  0  0  0
    4.0651    0.7273    2.2747 H   0  0  0  0  0  0  0  0  0  0  0  0
    1.7633   -0.4705    2.6838 H   0  0  0  0  0  0  0  0  0  0  0  0
    3.4104   -4.2559    4.4370 H   0  0  0  0  0  0  0  0  0  0  0  0
    4.1294   -2.3245   -0.4216 H   0  0  0  0  0  0  0  0  0  0  0  0
  1  2  1  0  0  0  0
  1 22  1  0  0  0  0
  1 23  1  0  0  0  0
  1 24  1  0  0  0  0
  2  3  1  0  0  0  0
  2  4  1  0  0  0  0
  2 13  1  0  0  0  0
  3 25  1  0  0  0  0
  3 26  1  0  0  0  0
  3 27  1  0  0  0  0
  4  5  1  0  0  0  0
  4 12  2  0  0  0  0
  5  6  2  0  0  0  0
  5 28  1  0  0  0  0
  6  7  1  0  0  0  0
  6  8  1  0  0  0  0
  8  9  1  0  0  0  0
  8 10  2  0  0  0  0
  9 29  1  0  0  0  0
 10 11  1  0  0  0  0
 10 12  1  0  0  0  0
 12 30  1  0  0  0  0
 13 14  1  0  0  0  0
 13 21  2  0  0  0  0
 14 15  2  0  0  0  0
 14 31  1  0  0  0  0
 15 16  1  0  0  0  0
 15 17  1  0  0  0  0
 17 18  1  0  0  0  0
 17 19  2  0  0  0  0
 18 32  1  0  0  0  0
 19 20  1  0  0  0  0
 19 21  1  0  0  0  0
 21 33  1  0  0  0  0
M  END
$$$$
