CHEMBL2322701
 OpenBabel04072215363D

 37 40  0  0  0  0  0  0  0  0999 V2000
    0.9640   -0.1145    0.0916 C   0  0  0  0  0  0  0  0  0  0  0  0
    2.4359   -0.0004    0.1098 C   0  0  0  0  0  0  0  0  0  0  0  0
    3.2738   -1.0217   -0.2505 N   0  0  0  0  0  0  0  0  0  0  0  0
    4.5816   -0.7153   -0.1594 N   0  0  0  0  0  0  0  0  0  0  0  0
    4.5820    0.5512    0.2605 C   0  0  0  0  0  0  0  0  0  0  0  0
    3.2724    1.0244    0.4716 C   0  0  0  0  0  0  0  0  0  0  0  0
    2.8623    2.2017    1.0837 N   0  0  0  0  0  0  0  0  0  0  0  0
    3.5078    3.3113    0.8759 C   0  0  0  0  0  0  0  0  0  0  0  0
    3.0693    4.4765    1.7429 C   0  0  0  0  0  0  0  0  0  0  0  0
    4.0558    5.3490    2.2426 C   0  0  0  0  0  0  0  0  0  0  0  0
    3.7290    6.3663    3.1450 C   0  0  0  0  0  0  0  0  0  0  0  0
    2.4190    6.5123    3.5871 C   0  0  0  0  0  0  0  0  0  0  0  0
    1.4292    5.6587    3.1044 C   0  0  0  0  0  0  0  0  0  0  0  0
    1.7409    4.6517    2.1778 C   0  0  0  0  0  0  0  0  0  0  0  0
    0.3952    3.7265    1.5999 Cl  0  0  0  0  0  0  0  0  0  0  0  0
    4.6594    3.5242   -0.0802 C   0  0  0  0  0  0  0  0  0  0  0  0
    4.6889    4.7088   -0.8434 C   0  0  0  0  0  0  0  0  0  0  0  0
    5.7435    4.9818   -1.7215 C   0  0  0  0  0  0  0  0  0  0  0  0
    5.8250    6.2179   -2.3739 N   0  0  0  0  0  0  0  0  0  0  0  0
    6.8281    4.1083   -1.7578 C   0  0  0  0  0  0  0  0  0  0  0  0
    6.8096    2.9239   -1.0221 C   0  0  0  0  0  0  0  0  0  0  0  0
    5.7191    2.6025   -0.1984 C   0  0  0  0  0  0  0  0  0  0  0  0
    5.6911    1.3127    0.3841 N   0  0  0  0  0  0  0  0  0  0  0  0
    0.6411   -1.0711   -0.3319 H   0  0  0  0  0  0  0  0  0  0  0  0
    0.5272    0.6837   -0.5178 H   0  0  0  0  0  0  0  0  0  0  0  0
    0.5582   -0.0356    1.1043 H   0  0  0  0  0  0  0  0  0  0  0  0
    3.0212   -1.9510   -0.5651 H   0  0  0  0  0  0  0  0  0  0  0  0
    5.1003    5.2351    1.9608 H   0  0  0  0  0  0  0  0  0  0  0  0
    4.5055    7.0300    3.5192 H   0  0  0  0  0  0  0  0  0  0  0  0
    2.1668    7.2849    4.3096 H   0  0  0  0  0  0  0  0  0  0  0  0
    0.4073    5.7777    3.4588 H   0  0  0  0  0  0  0  0  0  0  0  0
    3.8746    5.4247   -0.7620 H   0  0  0  0  0  0  0  0  0  0  0  0
    4.9236    6.6452   -2.5637 H   0  0  0  0  0  0  0  0  0  0  0  0
    6.4184    6.2062   -3.1994 H   0  0  0  0  0  0  0  0  0  0  0  0
    7.6896    4.3251   -2.3844 H   0  0  0  0  0  0  0  0  0  0  0  0
    7.6414    2.2313   -1.1283 H   0  0  0  0  0  0  0  0  0  0  0  0
    6.5428    0.7894    0.2175 H   0  0  0  0  0  0  0  0  0  0  0  0
  1  2  1  0  0  0  0
  1 24  1  0  0  0  0
  1 25  1  0  0  0  0
  1 26  1  0  0  0  0
  2  3  1  0  0  0  0
  2  6  2  0  0  0  0
  3  4  1  0  0  0  0
  3 27  1  0  0  0  0
  4  5  2  0  0  0  0
  5  6  1  0  0  0  0
  5 23  1  0  0  0  0
  6  7  1  0  0  0  0
  7  8  2  0  0  0  0
  8  9  1  0  0  0  0
  8 16  1  0  0  0  0
  9 10  1  0  0  0  0
  9 14  2  0  0  0  0
 10 11  2  0  0  0  0
 10 28  1  0  0  0  0
 11 12  1  0  0  0  0
 11 29  1  0  0  0  0
 12 13  2  0  0  0  0
 12 30  1  0  0  0  0
 13 14  1  0  0  0  0
 13 31  1  0  0  0  0
 14 15  1  0  0  0  0
 16 17  1  0  0  0  0
 16 22  2  0  0  0  0
 17 18  2  0  0  0  0
 17 32  1  0  0  0  0
 18 19  1  0  0  0  0
 18 20  1  0  0  0  0
 19 33  1  0  0  0  0
 19 34  1  0  0  0  0
 20 21  2  0  0  0  0
 20 35  1  0  0  0  0
 21 22  1  0  0  0  0
 21 36  1  0  0  0  0
 22 23  1  0  0  0  0
 23 37  1  0  0  0  0
M  END
$$$$
