CHEMBL4162400
 OpenBabel04072215383D

 70 74  0  0  0  0  0  0  0  0999 V2000
    1.6299    3.7833   -1.2414 C   0  0  0  0  0  0  0  0  0  0  0  0
    2.8942    3.1945   -0.9341 O   0  0  0  0  0  0  0  0  0  0  0  0
    3.7295    4.0345   -0.2839 C   0  0  0  0  0  0  0  0  0  0  0  0
    3.4938    5.1949    0.0127 O   0  0  0  0  0  0  0  0  0  0  0  0
    5.0219    3.3618    0.0159 C   0  0  0  0  0  0  0  0  0  0  0  0
    5.3058    2.0294   -0.3524 C   0  0  0  0  0  0  0  0  0  0  0  0
    6.5843    1.4745   -0.1497 C   0  0  0  0  0  0  0  0  0  0  0  0
    7.5802    2.2788    0.3761 C   0  0  0  0  0  0  0  0  0  0  0  0
    7.2470    3.5778    0.7870 C   0  0  0  0  0  0  0  0  0  0  0  0
    5.9960    4.1376    0.6377 C   0  0  0  0  0  0  0  0  0  0  0  0
    8.3665    4.2738    1.2260 N   0  0  0  0  0  0  0  0  0  0  0  0
    9.5038    3.5453    0.9583 C   0  0  0  0  0  0  0  0  0  0  0  0
   10.6286    4.0250    0.8161 O   0  0  0  0  0  0  0  0  0  0  0  0
    9.0459    2.1500    0.6114 C   0  0  0  0  0  0  0  0  0  0  0  0
    9.8935    1.1016    0.5989 C   0  0  0  0  0  0  0  0  0  0  0  0
   11.1850    1.0559    1.1345 N   0  0  0  0  0  0  0  0  0  0  0  0
   11.5231    0.5885    2.4305 C   0  0  0  0  0  0  0  0  0  0  0  0
   12.7591   -0.0231    2.6593 C   0  0  0  0  0  0  0  0  0  0  0  0
   12.9981   -0.8270    3.8029 C   0  0  0  0  0  0  0  0  0  0  0  0
   11.9756   -0.9821    4.7531 C   0  0  0  0  0  0  0  0  0  0  0  0
   10.7795   -0.2533    4.6272 C   0  0  0  0  0  0  0  0  0  0  0  0
   10.5696    0.5229    3.4580 C   0  0  0  0  0  0  0  0  0  0  0  0
    9.9722   -0.5236    5.7787 C   0  0  0  0  0  0  0  0  0  0  0  0
    8.6489    0.1012    6.1218 C   0  0  0  0  0  0  0  0  0  0  0  0
    8.6675    0.7780    7.4369 N   0  0  0  0  0  0  0  0  0  0  0  0
    9.6430    1.8722    7.4995 C   0  0  0  0  0  0  0  0  0  0  0  0
    7.3360    1.3278    7.7220 C   0  0  0  0  0  0  0  0  0  0  0  0
   10.6179   -1.5283    6.4709 C   0  0  0  0  0  0  0  0  0  0  0  0
   11.8420   -1.7781    5.8928 N   0  0  0  0  0  0  0  0  0  0  0  0
   12.8204   -2.7067    6.4737 C   0  0  0  0  0  0  0  0  0  0  0  0
   13.2132   -2.2970    7.9024 C   0  0  0  0  0  0  0  0  0  0  0  0
   12.3633   -4.1748    6.5107 C   0  0  0  0  0  0  0  0  0  0  0  0
    9.4885   -0.1541   -0.0824 C   0  0  0  0  0  0  0  0  0  0  0  0
    9.7493   -0.2984   -1.4605 C   0  0  0  0  0  0  0  0  0  0  0  0
    9.2712   -1.4019   -2.1737 C   0  0  0  0  0  0  0  0  0  0  0  0
    8.5607   -2.4008   -1.5125 C   0  0  0  0  0  0  0  0  0  0  0  0
    8.3528   -2.3070   -0.1362 C   0  0  0  0  0  0  0  0  0  0  0  0
    8.8127   -1.1895    0.5754 C   0  0  0  0  0  0  0  0  0  0  0  0
    0.9520    2.9819   -1.5468 H   0  0  0  0  0  0  0  0  0  0  0  0
    1.7406    4.4892   -2.0702 H   0  0  0  0  0  0  0  0  0  0  0  0
    1.2022    4.2779   -0.3642 H   0  0  0  0  0  0  0  0  0  0  0  0
    4.5433    1.4198   -0.8346 H   0  0  0  0  0  0  0  0  0  0  0  0
    6.7688    0.4502   -0.4554 H   0  0  0  0  0  0  0  0  0  0  0  0
    5.8034    5.1672    0.9219 H   0  0  0  0  0  0  0  0  0  0  0  0
    8.3825    5.2629    1.4192 H   0  0  0  0  0  0  0  0  0  0  0  0
   11.9143    1.5399    0.6196 H   0  0  0  0  0  0  0  0  0  0  0  0
   13.5397    0.0303    1.9024 H   0  0  0  0  0  0  0  0  0  0  0  0
   13.9372   -1.3693    3.8774 H   0  0  0  0  0  0  0  0  0  0  0  0
    9.6172    1.0268    3.3317 H   0  0  0  0  0  0  0  0  0  0  0  0
    7.9077   -0.7094    6.1509 H   0  0  0  0  0  0  0  0  0  0  0  0
    8.3364    0.7960    5.3346 H   0  0  0  0  0  0  0  0  0  0  0  0
   10.6677    1.5249    7.3347 H   0  0  0  0  0  0  0  0  0  0  0  0
    9.6386    2.3169    8.5023 H   0  0  0  0  0  0  0  0  0  0  0  0
    9.4232    2.6648    6.7756 H   0  0  0  0  0  0  0  0  0  0  0  0
    6.5716    0.5434    7.7071 H   0  0  0  0  0  0  0  0  0  0  0  0
    7.0474    2.1017    6.9997 H   0  0  0  0  0  0  0  0  0  0  0  0
    7.3085    1.7736    8.7235 H   0  0  0  0  0  0  0  0  0  0  0  0
   10.3076   -2.0607    7.3608 H   0  0  0  0  0  0  0  0  0  0  0  0
   13.7155   -2.6591    5.8437 H   0  0  0  0  0  0  0  0  0  0  0  0
   12.3427   -2.2346    8.5656 H   0  0  0  0  0  0  0  0  0  0  0  0
   13.7141   -1.3252    7.9110 H   0  0  0  0  0  0  0  0  0  0  0  0
   13.8985   -3.0318    8.3415 H   0  0  0  0  0  0  0  0  0  0  0  0
   11.4417   -4.3107    7.0882 H   0  0  0  0  0  0  0  0  0  0  0  0
   13.1315   -4.7997    6.9870 H   0  0  0  0  0  0  0  0  0  0  0  0
   12.2027   -4.5754    5.5048 H   0  0  0  0  0  0  0  0  0  0  0  0
   10.3184    0.4622   -1.9917 H   0  0  0  0  0  0  0  0  0  0  0  0
    9.4488   -1.4793   -3.2444 H   0  0  0  0  0  0  0  0  0  0  0  0
    8.1736   -3.2524   -2.0667 H   0  0  0  0  0  0  0  0  0  0  0  0
    7.8243   -3.1000    0.3848 H   0  0  0  0  0  0  0  0  0  0  0  0
    8.6266   -1.1235    1.6448 H   0  0  0  0  0  0  0  0  0  0  0  0
  1  2  1  0  0  0  0
  1 39  1  0  0  0  0
  1 40  1  0  0  0  0
  1 41  1  0  0  0  0
  2  3  1  0  0  0  0
  3  4  2  0  0  0  0
  3  5  1  0  0  0  0
  5  6  1  0  0  0  0
  5 10  2  0  0  0  0
  6  7  2  0  0  0  0
  6 42  1  0  0  0  0
  7  8  1  0  0  0  0
  7 43  1  0  0  0  0
  8  9  2  0  0  0  0
  8 14  1  0  0  0  0
  9 10  1  0  0  0  0
  9 11  1  0  0  0  0
 10 44  1  0  0  0  0
 11 12  1  0  0  0  0
 11 45  1  0  0  0  0
 12 13  2  0  0  0  0
 12 14  1  0  0  0  0
 14 15  2  0  0  0  0
 15 16  1  0  0  0  0
 15 33  1  0  0  0  0
 16 17  1  0  0  0  0
 16 46  1  0  0  0  0
 17 18  1  0  0  0  0
 17 22  2  0  0  0  0
 18 19  2  0  0  0  0
 18 47  1  0  0  0  0
 19 20  1  0  0  0  0
 19 48  1  0  0  0  0
 20 21  2  0  0  0  0
 20 29  1  0  0  0  0
 21 22  1  0  0  0  0
 21 23  1  0  0  0  0
 22 49  1  0  0  0  0
 23 24  1  0  0  0  0
 23 28  2  0  0  0  0
 24 25  1  0  0  0  0
 24 50  1  0  0  0  0
 24 51  1  0  0  0  0
 25 26  1  0  0  0  0
 25 27  1  0  0  0  0
 26 52  1  0  0  0  0
 26 53  1  0  0  0  0
 26 54  1  0  0  0  0
 27 55  1  0  0  0  0
 27 56  1  0  0  0  0
 27 57  1  0  0  0  0
 28 29  1  0  0  0  0
 28 58  1  0  0  0  0
 29 30  1  0  0  0  0
 30 31  1  0  0  0  0
 30 32  1  0  0  0  0
 30 59  1  0  0  0  0
 31 60  1  0  0  0  0
 31 61  1  0  0  0  0
 31 62  1  0  0  0  0
 32 63  1  0  0  0  0
 32 64  1  0  0  0  0
 32 65  1  0  0  0  0
 33 34  1  0  0  0  0
 33 38  2  0  0  0  0
 34 35  2  0  0  0  0
 34 66  1  0  0  0  0
 35 36  1  0  0  0  0
 35 67  1  0  0  0  0
 36 37  2  0  0  0  0
 36 68  1  0  0  0  0
 37 38  1  0  0  0  0
 37 69  1  0  0  0  0
 38 70  1  0  0  0  0
M  END
$$$$
