CHEMBL4213341
 OpenBabel04072215383D

 62 66  0  0  0  0  0  0  0  0999 V2000
   11.9538   -1.3199    3.3346 C   0  0  0  0  0  0  0  0  0  0  0  0
   10.5016   -1.2273    3.0478 C   0  0  0  0  0  0  0  0  0  0  0  0
    9.6430   -2.0014    2.3059 C   0  0  0  0  0  0  0  0  0  0  0  0
    9.9800   -3.1501    1.6038 C   0  0  0  0  0  0  0  0  0  0  0  0
    8.8561   -3.6781    0.9306 C   0  0  0  0  0  0  0  0  0  0  0  0
    7.5212   -3.1214    0.9575 C   0  0  0  0  0  0  0  0  0  0  0  0
    6.5075   -3.7813    0.2244 N   0  0  0  0  0  0  0  0  0  0  0  0
    5.4440   -2.9967   -0.4073 C   0  0  0  0  0  0  0  0  0  0  0  0
    6.2696   -5.1735    0.1433 C   0  0  0  0  0  0  0  0  0  0  0  0
    6.5741   -6.0080    1.1954 C   0  0  0  0  0  0  0  0  0  0  0  0
    6.2246   -7.3296    1.0587 C   0  0  0  0  0  0  0  0  0  0  0  0
    5.6513   -7.8449   -0.0434 N   0  0  0  0  0  0  0  0  0  0  0  0
    5.3756   -6.9762   -1.0198 C   0  0  0  0  0  0  0  0  0  0  0  0
    4.7436   -7.4679   -2.1574 N   0  0  0  0  0  0  0  0  0  0  0  0
    4.0990   -6.7362   -3.1614 C   0  0  0  0  0  0  0  0  0  0  0  0
    4.1545   -7.1672   -4.4856 C   0  0  0  0  0  0  0  0  0  0  0  0
    3.6862   -6.3405   -5.5076 C   0  0  0  0  0  0  0  0  0  0  0  0
    3.1615   -5.0686   -5.2147 C   0  0  0  0  0  0  0  0  0  0  0  0
    2.7286   -4.2377   -6.3616 C   0  0  0  0  0  0  0  0  0  0  0  0
    2.2986   -4.8500   -7.3370 O   0  0  0  0  0  0  0  0  0  0  0  0
    2.9387   -2.8649   -6.2628 N   0  0  0  0  0  0  0  0  0  0  0  0
    2.7418   -1.9573   -7.3471 C   0  0  0  0  0  0  0  0  0  0  0  0
    1.9520   -2.3104   -8.4481 C   0  0  0  0  0  0  0  0  0  0  0  0
    1.8321   -1.4676   -9.5549 C   0  0  0  0  0  0  0  0  0  0  0  0
    2.4644   -0.2338   -9.5446 C   0  0  0  0  0  0  0  0  0  0  0  0
    3.1931    0.1677   -8.4239 C   0  0  0  0  0  0  0  0  0  0  0  0
    3.3803   -0.7053   -7.3327 C   0  0  0  0  0  0  0  0  0  0  0  0
    4.0637   -0.2106   -6.1956 N   0  0  0  0  0  0  0  0  0  0  0  0
    3.0382   -4.6496   -3.8976 C   0  0  0  0  0  0  0  0  0  0  0  0
    3.5078   -5.4894   -2.8870 C   0  0  0  0  0  0  0  0  0  0  0  0
    5.6681   -5.6666   -0.9496 N   0  0  0  0  0  0  0  0  0  0  0  0
    7.2415   -1.9459    1.6998 C   0  0  0  0  0  0  0  0  0  0  0  0
    8.3418   -1.3914    2.3792 C   0  0  0  0  0  0  0  0  0  0  0  0
    8.4092   -0.2987    3.1557 N   0  0  0  0  0  0  0  0  0  0  0  0
    9.7025   -0.2183    3.5325 N   0  0  0  0  0  0  0  0  0  0  0  0
   10.1196    0.8853    4.3681 C   0  0  0  0  0  0  0  0  0  0  0  0
   12.4064   -2.1947    2.8584 H   0  0  0  0  0  0  0  0  0  0  0  0
   12.1313   -1.3999    4.4117 H   0  0  0  0  0  0  0  0  0  0  0  0
   12.4765   -0.4333    2.9610 H   0  0  0  0  0  0  0  0  0  0  0  0
   10.9618   -3.5972    1.5470 H   0  0  0  0  0  0  0  0  0  0  0  0
    9.0274   -4.5649    0.3165 H   0  0  0  0  0  0  0  0  0  0  0  0
    5.5853   -1.9147   -0.3211 H   0  0  0  0  0  0  0  0  0  0  0  0
    4.4744   -3.2367    0.0480 H   0  0  0  0  0  0  0  0  0  0  0  0
    5.3822   -3.2011   -1.4833 H   0  0  0  0  0  0  0  0  0  0  0  0
    7.0099   -5.6368    2.1134 H   0  0  0  0  0  0  0  0  0  0  0  0
    6.3792   -8.0321    1.8716 H   0  0  0  0  0  0  0  0  0  0  0  0
    4.7323   -8.4740   -2.1966 H   0  0  0  0  0  0  0  0  0  0  0  0
    4.6036   -8.1222   -4.7472 H   0  0  0  0  0  0  0  0  0  0  0  0
    3.7544   -6.6740   -6.5404 H   0  0  0  0  0  0  0  0  0  0  0  0
    3.4243   -2.5019   -5.4639 H   0  0  0  0  0  0  0  0  0  0  0  0
    1.3935   -3.2376   -8.4781 H   0  0  0  0  0  0  0  0  0  0  0  0
    1.2422   -1.7874  -10.4035 H   0  0  0  0  0  0  0  0  0  0  0  0
    2.3731    0.4237  -10.4058 H   0  0  0  0  0  0  0  0  0  0  0  0
    3.6430    1.1542   -8.4258 H   0  0  0  0  0  0  0  0  0  0  0  0
    4.6410    0.5988   -6.4089 H   0  0  0  0  0  0  0  0  0  0  0  0
    4.6056   -0.9185   -5.7140 H   0  0  0  0  0  0  0  0  0  0  0  0
    2.5819   -3.7058   -3.6339 H   0  0  0  0  0  0  0  0  0  0  0  0
    3.4103   -5.1585   -1.8556 H   0  0  0  0  0  0  0  0  0  0  0  0
    6.2622   -1.4978    1.7770 H   0  0  0  0  0  0  0  0  0  0  0  0
    9.2599    1.5225    4.5913 H   0  0  0  0  0  0  0  0  0  0  0  0
   10.8755    1.4598    3.8270 H   0  0  0  0  0  0  0  0  0  0  0  0
   10.5313    0.4799    5.2956 H   0  0  0  0  0  0  0  0  0  0  0  0
  1  2  1  0  0  0  0
  1 37  1  0  0  0  0
  1 38  1  0  0  0  0
  1 39  1  0  0  0  0
  2  3  2  0  0  0  0
  2 35  1  0  0  0  0
  3  4  1  0  0  0  0
  3 33  1  0  0  0  0
  4  5  2  0  0  0  0
  4 40  1  0  0  0  0
  5  6  1  0  0  0  0
  5 41  1  0  0  0  0
  6  7  1  0  0  0  0
  6 32  2  0  0  0  0
  7  8  1  0  0  0  0
  7  9  1  0  0  0  0
  8 42  1  0  0  0  0
  8 43  1  0  0  0  0
  8 44  1  0  0  0  0
  9 10  1  0  0  0  0
  9 31  2  0  0  0  0
 10 11  2  0  0  0  0
 10 45  1  0  0  0  0
 11 12  1  0  0  0  0
 11 46  1  0  0  0  0
 12 13  2  0  0  0  0
 13 14  1  0  0  0  0
 13 31  1  0  0  0  0
 14 15  1  0  0  0  0
 14 47  1  0  0  0  0
 15 16  1  0  0  0  0
 15 30  2  0  0  0  0
 16 17  2  0  0  0  0
 16 48  1  0  0  0  0
 17 18  1  0  0  0  0
 17 49  1  0  0  0  0
 18 19  1  0  0  0  0
 18 29  2  0  0  0  0
 19 20  2  0  0  0  0
 19 21  1  0  0  0  0
 21 22  1  0  0  0  0
 21 50  1  0  0  0  0
 22 23  1  0  0  0  0
 22 27  2  0  0  0  0
 23 24  2  0  0  0  0
 23 51  1  0  0  0  0
 24 25  1  0  0  0  0
 24 52  1  0  0  0  0
 25 26  2  0  0  0  0
 25 53  1  0  0  0  0
 26 27  1  0  0  0  0
 26 54  1  0  0  0  0
 27 28  1  0  0  0  0
 28 55  1  0  0  0  0
 28 56  1  0  0  0  0
 29 30  1  0  0  0  0
 29 57  1  0  0  0  0
 30 58  1  0  0  0  0
 32 33  1  0  0  0  0
 32 59  1  0  0  0  0
 33 34  2  0  0  0  0
 34 35  1  0  0  0  0
 35 36  1  0  0  0  0
 36 60  1  0  0  0  0
 36 61  1  0  0  0  0
 36 62  1  0  0  0  0
M  END
$$$$
