CHEMBL171558
 OpenBabel04072215363D

 58 62  0  0  0  0  0  0  0  0999 V2000
    2.7714    1.4629   -0.0107 C   0  0  0  0  0  0  0  0  0  0  0  0
    2.5036    0.0690   -0.0665 O   0  0  0  0  0  0  0  0  0  0  0  0
    3.2739   -0.8142    0.6266 C   0  0  0  0  0  0  0  0  0  0  0  0
    4.4621   -0.4346    1.2387 C   0  0  0  0  0  0  0  0  0  0  0  0
    5.1806   -1.3223    2.0620 C   0  0  0  0  0  0  0  0  0  0  0  0
    6.3281   -0.9436    2.7766 C   0  0  0  0  0  0  0  0  0  0  0  0
    6.6977    0.4326    2.7926 N   0  0  0  0  0  0  0  0  0  0  0  0
    7.9950    0.8851    3.1188 C   0  0  0  0  0  0  0  0  0  0  0  0
    9.1129    0.2559    2.5256 C   0  0  0  0  0  0  0  0  0  0  0  0
   10.4199    0.6027    2.8484 C   0  0  0  0  0  0  0  0  0  0  0  0
   10.6783    1.6175    3.7703 C   0  0  0  0  0  0  0  0  0  0  0  0
    9.5718    2.2697    4.3036 C   0  0  0  0  0  0  0  0  0  0  0  0
    9.6319    3.2974    5.1959 O   0  0  0  0  0  0  0  0  0  0  0  0
    8.3535    3.6588    5.4712 C   0  0  0  0  0  0  0  0  0  0  0  0
    7.4673    2.8795    4.7647 C   0  0  0  0  0  0  0  0  0  0  0  0
    8.2481    1.9611    4.0020 C   0  0  0  0  0  0  0  0  0  0  0  0
    7.0454   -1.8285    3.4804 N   0  0  0  0  0  0  0  0  0  0  0  0
    6.5984   -3.0828    3.5018 C   0  0  0  0  0  0  0  0  0  0  0  0
    5.4855   -3.5377    2.9071 N   0  0  0  0  0  0  0  0  0  0  0  0
    4.7850   -2.6498    2.1907 C   0  0  0  0  0  0  0  0  0  0  0  0
    3.6265   -3.0406    1.5218 C   0  0  0  0  0  0  0  0  0  0  0  0
    2.8656   -2.1546    0.7402 C   0  0  0  0  0  0  0  0  0  0  0  0
    1.7875   -2.7673    0.1464 O   0  0  0  0  0  0  0  0  0  0  0  0
    0.9526   -2.0094   -0.7267 C   0  0  0  0  0  0  0  0  0  0  0  0
    0.3187   -2.9153   -1.7694 C   0  0  0  0  0  0  0  0  0  0  0  0
   -0.5800   -4.0010   -1.1844 C   0  0  0  0  0  0  0  0  0  0  0  0
   -1.2651   -4.7606   -2.2482 N   0  0  0  0  0  0  0  0  0  0  0  0
   -2.1789   -5.7739   -1.6749 C   0  0  0  0  0  0  0  0  0  0  0  0
   -1.4725   -7.0228   -1.1108 C   0  0  0  0  0  0  0  0  0  0  0  0
   -0.5692   -7.6129   -2.0554 O   0  0  0  0  0  0  0  0  0  0  0  0
    0.3789   -6.6484   -2.5278 C   0  0  0  0  0  0  0  0  0  0  0  0
   -0.3448   -5.4601   -3.1743 C   0  0  0  0  0  0  0  0  0  0  0  0
    3.3327    1.7627   -0.9005 H   0  0  0  0  0  0  0  0  0  0  0  0
    3.2841    1.7894    0.8966 H   0  0  0  0  0  0  0  0  0  0  0  0
    1.8059    1.9765   -0.0227 H   0  0  0  0  0  0  0  0  0  0  0  0
    4.8850    0.5495    1.0635 H   0  0  0  0  0  0  0  0  0  0  0  0
    5.9753    0.9617    3.2695 H   0  0  0  0  0  0  0  0  0  0  0  0
    8.9455   -0.5447    1.8049 H   0  0  0  0  0  0  0  0  0  0  0  0
   11.2455    0.0658    2.3872 H   0  0  0  0  0  0  0  0  0  0  0  0
   11.6868    1.8864    4.0549 H   0  0  0  0  0  0  0  0  0  0  0  0
    8.2444    4.4695    6.1796 H   0  0  0  0  0  0  0  0  0  0  0  0
    6.3912    2.9617    4.8051 H   0  0  0  0  0  0  0  0  0  0  0  0
    7.1911   -3.8052    4.0553 H   0  0  0  0  0  0  0  0  0  0  0  0
    3.3030   -4.0771    1.6180 H   0  0  0  0  0  0  0  0  0  0  0  0
    1.5230   -1.3050   -1.3322 H   0  0  0  0  0  0  0  0  0  0  0  0
    0.1940   -1.4867   -0.1341 H   0  0  0  0  0  0  0  0  0  0  0  0
    1.1421   -3.3731   -2.3261 H   0  0  0  0  0  0  0  0  0  0  0  0
   -0.2544   -2.2930   -2.4662 H   0  0  0  0  0  0  0  0  0  0  0  0
   -1.3418   -3.5100   -0.5647 H   0  0  0  0  0  0  0  0  0  0  0  0
   -0.0022   -4.6521   -0.5201 H   0  0  0  0  0  0  0  0  0  0  0  0
   -2.8524   -6.0929   -2.4809 H   0  0  0  0  0  0  0  0  0  0  0  0
   -2.8197   -5.3256   -0.9065 H   0  0  0  0  0  0  0  0  0  0  0  0
   -2.2228   -7.7816   -0.8666 H   0  0  0  0  0  0  0  0  0  0  0  0
   -0.9251   -6.7933   -0.1904 H   0  0  0  0  0  0  0  0  0  0  0  0
    1.0125   -7.1422   -3.2712 H   0  0  0  0  0  0  0  0  0  0  0  0
    1.0289   -6.3365   -1.7018 H   0  0  0  0  0  0  0  0  0  0  0  0
   -0.9481   -5.8345   -4.0118 H   0  0  0  0  0  0  0  0  0  0  0  0
    0.3752   -4.7749   -3.6310 H   0  0  0  0  0  0  0  0  0  0  0  0
  1  2  1  0  0  0  0
  1 33  1  0  0  0  0
  1 34  1  0  0  0  0
  1 35  1  0  0  0  0
  2  3  1  0  0  0  0
  3  4  1  0  0  0  0
  3 22  2  0  0  0  0
  4  5  2  0  0  0  0
  4 36  1  0  0  0  0
  5  6  1  0  0  0  0
  5 20  1  0  0  0  0
  6  7  1  0  0  0  0
  6 17  2  0  0  0  0
  7  8  1  0  0  0  0
  7 37  1  0  0  0  0
  8  9  1  0  0  0  0
  8 16  2  0  0  0  0
  9 10  2  0  0  0  0
  9 38  1  0  0  0  0
 10 11  1  0  0  0  0
 10 39  1  0  0  0  0
 11 12  2  0  0  0  0
 11 40  1  0  0  0  0
 12 13  1  0  0  0  0
 12 16  1  0  0  0  0
 13 14  1  0  0  0  0
 14 15  2  0  0  0  0
 14 41  1  0  0  0  0
 15 16  1  0  0  0  0
 15 42  1  0  0  0  0
 17 18  1  0  0  0  0
 18 19  2  0  0  0  0
 18 43  1  0  0  0  0
 19 20  1  0  0  0  0
 20 21  2  0  0  0  0
 21 22  1  0  0  0  0
 21 44  1  0  0  0  0
 22 23  1  0  0  0  0
 23 24  1  0  0  0  0
 24 25  1  0  0  0  0
 24 45  1  0  0  0  0
 24 46  1  0  0  0  0
 25 26  1  0  0  0  0
 25 47  1  0  0  0  0
 25 48  1  0  0  0  0
 26 27  1  0  0  0  0
 26 49  1  0  0  0  0
 26 50  1  0  0  0  0
 27 28  1  0  0  0  0
 27 32  1  0  0  0  0
 28 29  1  0  0  0  0
 28 51  1  0  0  0  0
 28 52  1  0  0  0  0
 29 30  1  0  0  0  0
 29 53  1  0  0  0  0
 29 54  1  0  0  0  0
 30 31  1  0  0  0  0
 31 32  1  0  0  0  0
 31 55  1  0  0  0  0
 31 56  1  0  0  0  0
 32 57  1  0  0  0  0
 32 58  1  0  0  0  0
M  END
$$$$
