CHEMBL2086733
 OpenBabel04072215363D

 41 45  0  0  0  0  0  0  0  0999 V2000
    1.5531    0.0831    0.2445 O   0  0  0  0  0  0  0  0  0  0  0  0
    2.7459   -0.1484    0.2159 C   0  0  0  0  0  0  0  0  0  0  0  0
    3.7317    0.8203    0.2102 N   0  0  0  0  0  0  0  0  0  0  0  0
    4.9986    0.2602    0.1379 C   0  0  0  0  0  0  0  0  0  0  0  0
    6.1887    0.9629    0.0877 C   0  0  0  0  0  0  0  0  0  0  0  0
    7.3662    0.2250   -0.0222 C   0  0  0  0  0  0  0  0  0  0  0  0
    7.3095   -1.1716   -0.1253 C   0  0  0  0  0  0  0  0  0  0  0  0
    8.9139   -2.1644   -0.2821 Br  0  0  0  0  0  0  0  0  0  0  0  0
    6.0896   -1.8524   -0.1065 C   0  0  0  0  0  0  0  0  0  0  0  0
    4.9190   -1.1342    0.0824 C   0  0  0  0  0  0  0  0  0  0  0  0
    3.4809   -1.4898    0.1891 C   0  0  0  0  0  0  0  0  0  0  0  0
    2.8441   -2.6844    0.2826 C   0  0  0  0  0  0  0  0  0  0  0  0
    1.3571   -2.7196    0.2554 C   0  0  0  0  0  0  0  0  0  0  0  0
    0.6879   -2.8013   -0.9766 C   0  0  0  0  0  0  0  0  0  0  0  0
   -0.6998   -2.9326   -1.0124 C   0  0  0  0  0  0  0  0  0  0  0  0
   -1.4242   -2.9719    0.1760 C   0  0  0  0  0  0  0  0  0  0  0  0
   -0.7654   -2.8863    1.4045 C   0  0  0  0  0  0  0  0  0  0  0  0
    0.6244   -2.7681    1.4461 C   0  0  0  0  0  0  0  0  0  0  0  0
    3.5651   -3.9284    0.3573 C   0  0  0  0  0  0  0  0  0  0  0  0
    4.7245   -4.2791    0.8844 N   0  0  0  0  0  0  0  0  0  0  0  0
    4.9700   -5.5650    0.4589 C   0  0  0  0  0  0  0  0  0  0  0  0
    6.1084   -6.3727    0.5980 C   0  0  0  0  0  0  0  0  0  0  0  0
    6.1141   -7.6339   -0.0173 C   0  0  0  0  0  0  0  0  0  0  0  0
    5.0027   -8.0918   -0.7311 C   0  0  0  0  0  0  0  0  0  0  0  0
    3.8474   -7.3150   -0.8482 C   0  0  0  0  0  0  0  0  0  0  0  0
    3.8823   -6.0571   -0.2496 C   0  0  0  0  0  0  0  0  0  0  0  0
    2.9692   -5.0422   -0.2003 N   0  0  0  0  0  0  0  0  0  0  0  0
    3.5169    1.8060    0.2287 H   0  0  0  0  0  0  0  0  0  0  0  0
    6.2171    2.0458    0.1358 H   0  0  0  0  0  0  0  0  0  0  0  0
    8.3260    0.7367   -0.0396 H   0  0  0  0  0  0  0  0  0  0  0  0
    6.0864   -2.9237   -0.2451 H   0  0  0  0  0  0  0  0  0  0  0  0
    1.2441   -2.7684   -1.9109 H   0  0  0  0  0  0  0  0  0  0  0  0
   -1.2153   -2.9954   -1.9679 H   0  0  0  0  0  0  0  0  0  0  0  0
   -2.5078   -3.0590    0.1487 H   0  0  0  0  0  0  0  0  0  0  0  0
   -1.3350   -2.9069    2.3294 H   0  0  0  0  0  0  0  0  0  0  0  0
    1.1294   -2.7065    2.4076 H   0  0  0  0  0  0  0  0  0  0  0  0
    6.9750   -6.0122    1.1415 H   0  0  0  0  0  0  0  0  0  0  0  0
    7.0004   -8.2612    0.0535 H   0  0  0  0  0  0  0  0  0  0  0  0
    5.0363   -9.0684   -1.2099 H   0  0  0  0  0  0  0  0  0  0  0  0
    2.9821   -7.6634   -1.4010 H   0  0  0  0  0  0  0  0  0  0  0  0
    2.0422   -5.0757   -0.5956 H   0  0  0  0  0  0  0  0  0  0  0  0
  1  2  2  0  0  0  0
  2  3  1  0  0  0  0
  2 11  1  0  0  0  0
  3  4  1  0  0  0  0
  3 28  1  0  0  0  0
  4  5  1  0  0  0  0
  4 10  2  0  0  0  0
  5  6  2  0  0  0  0
  5 29  1  0  0  0  0
  6  7  1  0  0  0  0
  6 30  1  0  0  0  0
  7  8  1  0  0  0  0
  7  9  2  0  0  0  0
  9 10  1  0  0  0  0
  9 31  1  0  0  0  0
 10 11  1  0  0  0  0
 11 12  2  3  0  0  0
 12 13  1  0  0  0  0
 12 19  1  0  0  0  0
 13 14  1  0  0  0  0
 13 18  2  0  0  0  0
 14 15  2  0  0  0  0
 14 32  1  0  0  0  0
 15 16  1  0  0  0  0
 15 33  1  0  0  0  0
 16 17  2  0  0  0  0
 16 34  1  0  0  0  0
 17 18  1  0  0  0  0
 17 35  1  0  0  0  0
 18 36  1  0  0  0  0
 19 20  2  0  0  0  0
 19 27  1  0  0  0  0
 20 21  1  0  0  0  0
 21 22  1  0  0  0  0
 21 26  2  0  0  0  0
 22 23  2  0  0  0  0
 22 37  1  0  0  0  0
 23 24  1  0  0  0  0
 23 38  1  0  0  0  0
 24 25  2  0  0  0  0
 24 39  1  0  0  0  0
 25 26  1  0  0  0  0
 25 40  1  0  0  0  0
 26 27  1  0  0  0  0
 27 41  1  0  0  0  0
M  END
$$$$
