CHEMBL1277620
 OpenBabel04072215363D

 36 38  0  0  0  0  0  0  0  0999 V2000
    3.4239   -0.3974    1.2192 C   0  0  0  0  0  0  0  0  0  0  0  0
    2.5282    0.1288    0.2347 O   0  0  0  0  0  0  0  0  0  0  0  0
    3.1114    0.5059   -0.9461 C   0  0  0  0  0  0  0  0  0  0  0  0
    4.2202   -0.1855   -1.4616 C   0  0  0  0  0  0  0  0  0  0  0  0
    4.9241    0.2569   -2.5714 C   0  0  0  0  0  0  0  0  0  0  0  0
    6.0317   -0.3995   -2.9346 N   0  0  0  0  0  0  0  0  0  0  0  0
    6.7390    0.1227   -3.9392 C   0  0  0  0  0  0  0  0  0  0  0  0
    6.4485    1.2455   -4.5959 N   0  0  0  0  0  0  0  0  0  0  0  0
    5.3198    1.8901   -4.2361 C   0  0  0  0  0  0  0  0  0  0  0  0
    5.0416    3.1456   -4.8310 N   0  0  0  0  0  0  0  0  0  0  0  0
    6.0071    3.9375   -5.4883 C   0  0  0  0  0  0  0  0  0  0  0  0
    7.2893    4.1083   -4.9472 C   0  0  0  0  0  0  0  0  0  0  0  0
    8.2773    4.7963   -5.6518 C   0  0  0  0  0  0  0  0  0  0  0  0
    7.9788    5.3388   -6.8989 C   0  0  0  0  0  0  0  0  0  0  0  0
    9.3430    6.1850   -7.8954 Br  0  0  0  0  0  0  0  0  0  0  0  0
    6.6930    5.2415   -7.4245 C   0  0  0  0  0  0  0  0  0  0  0  0
    5.7184    4.5505   -6.7107 C   0  0  0  0  0  0  0  0  0  0  0  0
    4.4856    4.4386   -7.2301 F   0  0  0  0  0  0  0  0  0  0  0  0
    4.4766    1.4026   -3.2247 C   0  0  0  0  0  0  0  0  0  0  0  0
    3.2833    2.0192   -2.8042 C   0  0  0  0  0  0  0  0  0  0  0  0
    2.5971    1.5885   -1.6654 C   0  0  0  0  0  0  0  0  0  0  0  0
    1.5047    2.3697   -1.4249 O   0  0  0  0  0  0  0  0  0  0  0  0
    0.7580    2.2028   -0.2338 C   0  0  0  0  0  0  0  0  0  0  0  0
    3.0819   -0.0646    2.2037 H   0  0  0  0  0  0  0  0  0  0  0  0
    4.4579   -0.0466    1.1084 H   0  0  0  0  0  0  0  0  0  0  0  0
    3.3905   -1.4910    1.1948 H   0  0  0  0  0  0  0  0  0  0  0  0
    4.5944   -1.0803   -0.9662 H   0  0  0  0  0  0  0  0  0  0  0  0
    7.6457   -0.3990   -4.2327 H   0  0  0  0  0  0  0  0  0  0  0  0
    4.1434    3.1405   -5.3065 H   0  0  0  0  0  0  0  0  0  0  0  0
    7.5315    3.6766   -3.9784 H   0  0  0  0  0  0  0  0  0  0  0  0
    9.2734    4.8779   -5.2257 H   0  0  0  0  0  0  0  0  0  0  0  0
    6.4420    5.6693   -8.3881 H   0  0  0  0  0  0  0  0  0  0  0  0
    2.8947    2.8836   -3.3386 H   0  0  0  0  0  0  0  0  0  0  0  0
    0.0901    3.0673   -0.1561 H   0  0  0  0  0  0  0  0  0  0  0  0
    1.3924    2.2162    0.6547 H   0  0  0  0  0  0  0  0  0  0  0  0
    0.1327    1.3077   -0.2874 H   0  0  0  0  0  0  0  0  0  0  0  0
  1  2  1  0  0  0  0
  1 24  1  0  0  0  0
  1 25  1  0  0  0  0
  1 26  1  0  0  0  0
  2  3  1  0  0  0  0
  3  4  1  0  0  0  0
  3 21  2  0  0  0  0
  4  5  2  0  0  0  0
  4 27  1  0  0  0  0
  5  6  1  0  0  0  0
  5 19  1  0  0  0  0
  6  7  2  0  0  0  0
  7  8  1  0  0  0  0
  7 28  1  0  0  0  0
  8  9  2  0  0  0  0
  9 10  1  0  0  0  0
  9 19  1  0  0  0  0
 10 11  1  0  0  0  0
 10 29  1  0  0  0  0
 11 12  1  0  0  0  0
 11 17  2  0  0  0  0
 12 13  2  0  0  0  0
 12 30  1  0  0  0  0
 13 14  1  0  0  0  0
 13 31  1  0  0  0  0
 14 15  1  0  0  0  0
 14 16  2  0  0  0  0
 16 17  1  0  0  0  0
 16 32  1  0  0  0  0
 17 18  1  0  0  0  0
 19 20  2  0  0  0  0
 20 21  1  0  0  0  0
 20 33  1  0  0  0  0
 21 22  1  0  0  0  0
 22 23  1  0  0  0  0
 23 34  1  0  0  0  0
 23 35  1  0  0  0  0
 23 36  1  0  0  0  0
M  END
$$$$
