CHEMBL1945498
 OpenBabel04072215363D

 57 60  0  0  0  0  0  0  0  0999 V2000
    2.6258    1.8231    4.0949 C   0  0  0  0  0  0  0  0  0  0  0  0
    4.0732    1.6220    4.1725 N   0  0  0  0  0  0  0  0  0  0  0  0
    4.4487    1.1965    5.5247 C   0  0  0  0  0  0  0  0  0  0  0  0
    4.5493    0.6404    3.1829 C   0  0  0  0  0  0  0  0  0  0  0  0
    4.3665    1.0750    1.7240 C   0  0  0  0  0  0  0  0  0  0  0  0
    5.0203    2.4221    1.3843 C   0  0  0  0  0  0  0  0  0  0  0  0
    6.5235    2.4152    1.5118 C   0  0  0  0  0  0  0  0  0  0  0  0
    7.1749    3.2382    2.4217 C   0  0  0  0  0  0  0  0  0  0  0  0
    8.5671    3.2247    2.4868 C   0  0  0  0  0  0  0  0  0  0  0  0
    9.3424    2.3585    1.6749 C   0  0  0  0  0  0  0  0  0  0  0  0
   10.8352    2.4630    1.7643 C   0  0  0  0  0  0  0  0  0  0  0  0
   11.2756    3.4214    2.6370 F   0  0  0  0  0  0  0  0  0  0  0  0
   11.4340    1.3054    2.1666 F   0  0  0  0  0  0  0  0  0  0  0  0
   11.4128    2.7781    0.5701 F   0  0  0  0  0  0  0  0  0  0  0  0
    8.6938    1.4548    0.8076 C   0  0  0  0  0  0  0  0  0  0  0  0
    9.3573    0.4467    0.0548 N   0  0  0  0  0  0  0  0  0  0  0  0
    8.9031   -0.8805   -0.1467 C   0  0  0  0  0  0  0  0  0  0  0  0
    7.6764   -1.2070    0.2994 N   0  0  0  0  0  0  0  0  0  0  0  0
    7.4281   -2.4812    0.5981 C   0  0  0  0  0  0  0  0  0  0  0  0
    8.3677   -3.4600    0.4130 C   0  0  0  0  0  0  0  0  0  0  0  0
    9.4643   -3.1043   -0.3472 C   0  0  0  0  0  0  0  0  0  0  0  0
    9.7789   -1.8066   -0.5824 N   0  0  0  0  0  0  0  0  0  0  0  0
   10.4396   -4.1549   -0.6726 C   0  0  0  0  0  0  0  0  0  0  0  0
   10.4721   -4.7834   -1.9284 C   0  0  0  0  0  0  0  0  0  0  0  0
   11.3582   -5.8422   -2.1715 C   0  0  0  0  0  0  0  0  0  0  0  0
   12.2841   -6.2084   -1.1954 C   0  0  0  0  0  0  0  0  0  0  0  0
   13.3955   -7.4857   -1.5036 Cl  0  0  0  0  0  0  0  0  0  0  0  0
   12.2552   -5.6165    0.0633 C   0  0  0  0  0  0  0  0  0  0  0  0
   11.2385   -4.7020    0.3506 C   0  0  0  0  0  0  0  0  0  0  0  0
   10.9175   -4.5115    1.7116 N   0  0  0  0  0  0  0  0  0  0  0  0
    9.6293   -4.5522    2.2129 C   0  0  0  0  0  0  0  0  0  0  0  0
    9.4044   -4.4911    3.8716 S   0  0  0  0  0  0  0  0  0  0  0  0
    8.4262   -4.6915    1.2506 C   0  0  0  0  0  0  0  0  0  0  0  0
    7.2905    1.5612    0.7083 C   0  0  0  0  0  0  0  0  0  0  0  0
    2.2986    2.5467    4.8492 H   0  0  0  0  0  0  0  0  0  0  0  0
    2.0703    0.8907    4.2440 H   0  0  0  0  0  0  0  0  0  0  0  0
    2.3379    2.2508    3.1293 H   0  0  0  0  0  0  0  0  0  0  0  0
    4.0946    1.9184    6.2699 H   0  0  0  0  0  0  0  0  0  0  0  0
    5.5390    1.1563    5.6246 H   0  0  0  0  0  0  0  0  0  0  0  0
    4.0391    0.2126    5.7764 H   0  0  0  0  0  0  0  0  0  0  0  0
    4.0489   -0.3265    3.3325 H   0  0  0  0  0  0  0  0  0  0  0  0
    5.6167    0.4618    3.3572 H   0  0  0  0  0  0  0  0  0  0  0  0
    3.2978    1.1320    1.4807 H   0  0  0  0  0  0  0  0  0  0  0  0
    4.7686    0.2838    1.0789 H   0  0  0  0  0  0  0  0  0  0  0  0
    4.5892    3.2168    2.0024 H   0  0  0  0  0  0  0  0  0  0  0  0
    4.7749    2.6829    0.3481 H   0  0  0  0  0  0  0  0  0  0  0  0
    6.6068    3.8994    3.0733 H   0  0  0  0  0  0  0  0  0  0  0  0
    9.0535    3.9054    3.1863 H   0  0  0  0  0  0  0  0  0  0  0  0
   10.3710    0.4018    0.1301 H   0  0  0  0  0  0  0  0  0  0  0  0
    6.4842   -2.6703    1.0930 H   0  0  0  0  0  0  0  0  0  0  0  0
    9.7563   -4.5052   -2.7015 H   0  0  0  0  0  0  0  0  0  0  0  0
   11.3128   -6.3848   -3.1136 H   0  0  0  0  0  0  0  0  0  0  0  0
   12.9260   -5.9662    0.8421 H   0  0  0  0  0  0  0  0  0  0  0  0
   11.6498   -4.6340    2.4041 H   0  0  0  0  0  0  0  0  0  0  0  0
    7.4904   -4.8203    1.8090 H   0  0  0  0  0  0  0  0  0  0  0  0
    8.5448   -5.5906    0.6338 H   0  0  0  0  0  0  0  0  0  0  0  0
    6.7621    0.9402   -0.0130 H   0  0  0  0  0  0  0  0  0  0  0  0
  1  2  1  0  0  0  0
  1 35  1  0  0  0  0
  1 36  1  0  0  0  0
  1 37  1  0  0  0  0
  2  3  1  0  0  0  0
  2  4  1  0  0  0  0
  3 38  1  0  0  0  0
  3 39  1  0  0  0  0
  3 40  1  0  0  0  0
  4  5  1  0  0  0  0
  4 41  1  0  0  0  0
  4 42  1  0  0  0  0
  5  6  1  0  0  0  0
  5 43  1  0  0  0  0
  5 44  1  0  0  0  0
  6  7  1  0  0  0  0
  6 45  1  0  0  0  0
  6 46  1  0  0  0  0
  7  8  1  0  0  0  0
  7 34  2  0  0  0  0
  8  9  2  0  0  0  0
  8 47  1  0  0  0  0
  9 10  1  0  0  0  0
  9 48  1  0  0  0  0
 10 11  1  0  0  0  0
 10 15  2  0  0  0  0
 11 12  1  0  0  0  0
 11 13  1  0  0  0  0
 11 14  1  0  0  0  0
 15 16  1  0  0  0  0
 15 34  1  0  0  0  0
 16 17  1  0  0  0  0
 16 49  1  0  0  0  0
 17 18  1  0  0  0  0
 17 22  2  0  0  0  0
 18 19  2  0  0  0  0
 19 20  1  0  0  0  0
 19 50  1  0  0  0  0
 20 21  2  0  0  0  0
 20 33  1  0  0  0  0
 21 22  1  0  0  0  0
 21 23  1  0  0  0  0
 23 24  1  0  0  0  0
 23 29  2  0  0  0  0
 24 25  2  0  0  0  0
 24 51  1  0  0  0  0
 25 26  1  0  0  0  0
 25 52  1  0  0  0  0
 26 27  1  0  0  0  0
 26 28  2  0  0  0  0
 28 29  1  0  0  0  0
 28 53  1  0  0  0  0
 29 30  1  0  0  0  0
 30 31  1  0  0  0  0
 30 54  1  0  0  0  0
 31 32  2  0  0  0  0
 31 33  1  0  0  0  0
 33 55  1  0  0  0  0
 33 56  1  0  0  0  0
 34 57  1  0  0  0  0
M  END
$$$$
