CHEMBL77933
 OpenBabel04072215383D

 43 46  0  0  0  0  0  0  0  0999 V2000
   -1.6392    0.7331    5.3390 F   0  0  0  0  0  0  0  0  0  0  0  0
   -0.4515    0.1268    5.0592 C   0  0  0  0  0  0  0  0  0  0  0  0
   -0.3433   -0.9040    5.9411 F   0  0  0  0  0  0  0  0  0  0  0  0
   -0.6085   -0.4442    3.8321 F   0  0  0  0  0  0  0  0  0  0  0  0
    0.7269    1.0656    5.1106 C   0  0  0  0  0  0  0  0  0  0  0  0
    0.5777    2.4165    5.4407 C   0  0  0  0  0  0  0  0  0  0  0  0
    1.6902    3.2569    5.4459 C   0  0  0  0  0  0  0  0  0  0  0  0
    1.4714    5.0864    5.8727 Br  0  0  0  0  0  0  0  0  0  0  0  0
    2.9618    2.7708    5.1300 C   0  0  0  0  0  0  0  0  0  0  0  0
    3.1427    1.4191    4.8264 C   0  0  0  0  0  0  0  0  0  0  0  0
    4.4088    0.9387    4.4349 N   0  0  0  0  0  0  0  0  0  0  0  0
    4.8559   -0.3981    4.5711 C   0  0  0  0  0  0  0  0  0  0  0  0
    4.4070   -1.1268    5.6159 N   0  0  0  0  0  0  0  0  0  0  0  0
    4.7575   -2.4298    5.7609 N   0  0  0  0  0  0  0  0  0  0  0  0
    5.5132   -3.0374    4.8202 C   0  0  0  0  0  0  0  0  0  0  0  0
    5.9021   -4.4582    5.1587 C   0  0  0  0  0  0  0  0  0  0  0  0
    7.2763   -4.5543    5.7835 C   0  0  0  0  0  0  0  0  0  0  0  0
    7.5461   -3.9324    7.0102 C   0  0  0  0  0  0  0  0  0  0  0  0
    8.8309   -4.0008    7.5255 C   0  0  0  0  0  0  0  0  0  0  0  0
    9.8472   -4.6499    6.9204 N   0  0  0  0  0  0  0  0  0  0  0  0
    9.5628   -5.2607    5.7513 C   0  0  0  0  0  0  0  0  0  0  0  0
    8.3110   -5.2471    5.1533 C   0  0  0  0  0  0  0  0  0  0  0  0
    5.9794   -2.3485    3.6858 C   0  0  0  0  0  0  0  0  0  0  0  0
    6.6897   -2.9587    2.6198 C   0  0  0  0  0  0  0  0  0  0  0  0
    7.1617   -2.2212    1.5322 C   0  0  0  0  0  0  0  0  0  0  0  0
    6.9598   -0.8505    1.4904 C   0  0  0  0  0  0  0  0  0  0  0  0
    6.2276   -0.2316    2.5031 C   0  0  0  0  0  0  0  0  0  0  0  0
    5.6974   -0.9665    3.5935 C   0  0  0  0  0  0  0  0  0  0  0  0
    2.0105    0.5853    4.8044 C   0  0  0  0  0  0  0  0  0  0  0  0
   -0.4074    2.8115    5.6812 H   0  0  0  0  0  0  0  0  0  0  0  0
    3.8102    3.4486    5.1234 H   0  0  0  0  0  0  0  0  0  0  0  0
    5.1768    1.5861    4.5688 H   0  0  0  0  0  0  0  0  0  0  0  0
    5.8217   -5.0970    4.2721 H   0  0  0  0  0  0  0  0  0  0  0  0
    5.1741   -4.8715    5.8697 H   0  0  0  0  0  0  0  0  0  0  0  0
    6.7770   -3.3874    7.5515 H   0  0  0  0  0  0  0  0  0  0  0  0
    9.0823   -3.5158    8.4647 H   0  0  0  0  0  0  0  0  0  0  0  0
   10.3977   -5.7780    5.2876 H   0  0  0  0  0  0  0  0  0  0  0  0
    8.1604   -5.7618    4.2115 H   0  0  0  0  0  0  0  0  0  0  0  0
    6.8625   -4.0317    2.6061 H   0  0  0  0  0  0  0  0  0  0  0  0
    7.6866   -2.7197    0.7204 H   0  0  0  0  0  0  0  0  0  0  0  0
    7.3501   -0.2647    0.6617 H   0  0  0  0  0  0  0  0  0  0  0  0
    6.0590    0.8412    2.4261 H   0  0  0  0  0  0  0  0  0  0  0  0
    2.1165   -0.4658    4.5311 H   0  0  0  0  0  0  0  0  0  0  0  0
  1  2  1  0  0  0  0
  2  3  1  0  0  0  0
  2  4  1  0  0  0  0
  2  5  1  0  0  0  0
  5  6  1  0  0  0  0
  5 29  2  0  0  0  0
  6  7  2  0  0  0  0
  6 30  1  0  0  0  0
  7  8  1  0  0  0  0
  7  9  1  0  0  0  0
  9 10  2  0  0  0  0
  9 31  1  0  0  0  0
 10 11  1  0  0  0  0
 10 29  1  0  0  0  0
 11 12  1  0  0  0  0
 11 32  1  0  0  0  0
 12 13  1  0  0  0  0
 12 28  2  0  0  0  0
 13 14  2  0  0  0  0
 14 15  1  0  0  0  0
 15 16  1  0  0  0  0
 15 23  2  0  0  0  0
 16 17  1  0  0  0  0
 16 33  1  0  0  0  0
 16 34  1  0  0  0  0
 17 18  1  0  0  0  0
 17 22  2  0  0  0  0
 18 19  2  0  0  0  0
 18 35  1  0  0  0  0
 19 20  1  0  0  0  0
 19 36  1  0  0  0  0
 20 21  2  0  0  0  0
 21 22  1  0  0  0  0
 21 37  1  0  0  0  0
 22 38  1  0  0  0  0
 23 24  1  0  0  0  0
 23 28  1  0  0  0  0
 24 25  2  0  0  0  0
 24 39  1  0  0  0  0
 25 26  1  0  0  0  0
 25 40  1  0  0  0  0
 26 27  2  0  0  0  0
 26 41  1  0  0  0  0
 27 28  1  0  0  0  0
 27 42  1  0  0  0  0
 29 43  1  0  0  0  0
M  END
$$$$
