CHEMBL3986507
 OpenBabel04072215373D

 47 50  0  0  0  0  0  0  0  0999 V2000
    2.7877    0.7573   -2.4494 C   0  0  0  0  0  0  0  0  0  0  0  0
    1.3878    0.4898   -1.9767 C   0  0  0  0  0  0  0  0  0  0  0  0
    0.8708   -0.8079   -2.0363 C   0  0  0  0  0  0  0  0  0  0  0  0
   -0.4112   -1.0671   -1.5687 C   0  0  0  0  0  0  0  0  0  0  0  0
   -1.1919   -0.0307   -1.0615 C   0  0  0  0  0  0  0  0  0  0  0  0
   -2.3557   -0.3931   -0.5051 F   0  0  0  0  0  0  0  0  0  0  0  0
   -0.7325    1.2953   -1.0452 C   0  0  0  0  0  0  0  0  0  0  0  0
   -1.5039    2.4198   -0.6347 N   0  0  0  0  0  0  0  0  0  0  0  0
   -2.8839    2.4467   -0.5762 C   0  0  0  0  0  0  0  0  0  0  0  0
   -3.6262    1.5309   -0.8990 O   0  0  0  0  0  0  0  0  0  0  0  0
   -3.3862    3.6878   -0.1761 N   0  0  0  0  0  0  0  0  0  0  0  0
   -4.7810    3.8173    0.0309 C   0  0  0  0  0  0  0  0  0  0  0  0
   -5.4687    2.8882    0.8189 C   0  0  0  0  0  0  0  0  0  0  0  0
   -6.8570    2.9437    0.9350 C   0  0  0  0  0  0  0  0  0  0  0  0
   -7.5715    3.9707    0.3135 C   0  0  0  0  0  0  0  0  0  0  0  0
   -8.9433    4.1077    0.3968 O   0  0  0  0  0  0  0  0  0  0  0  0
   -9.5795    3.7854    1.5836 C   0  0  0  0  0  0  0  0  0  0  0  0
   -8.9935    3.9789    2.8376 C   0  0  0  0  0  0  0  0  0  0  0  0
   -9.6704    3.5751    3.9689 C   0  0  0  0  0  0  0  0  0  0  0  0
  -10.9063    3.0561    3.9833 N   0  0  0  0  0  0  0  0  0  0  0  0
  -11.5206    2.9566    2.7755 C   0  0  0  0  0  0  0  0  0  0  0  0
  -12.8516    2.4943    2.5917 C   0  0  0  0  0  0  0  0  0  0  0  0
  -13.2538    2.5130    1.2719 C   0  0  0  0  0  0  0  0  0  0  0  0
  -14.5638    2.1316    0.7741 C   0  0  0  0  0  0  0  0  0  0  0  0
  -15.4837    1.7224    1.4627 O   0  0  0  0  0  0  0  0  0  0  0  0
  -14.6953    2.2817   -0.5675 O   0  0  0  0  0  0  0  0  0  0  0  0
  -11.9866    3.0522    0.2527 S   0  0  0  0  0  0  0  0  0  0  0  0
  -10.9045    3.3055    1.5725 C   0  0  0  0  0  0  0  0  0  0  0  0
   -6.8876    4.8955   -0.4823 C   0  0  0  0  0  0  0  0  0  0  0  0
   -5.4909    4.8364   -0.6056 C   0  0  0  0  0  0  0  0  0  0  0  0
    0.5832    1.5352   -1.4812 C   0  0  0  0  0  0  0  0  0  0  0  0
    3.2751   -0.1623   -2.7916 H   0  0  0  0  0  0  0  0  0  0  0  0
    3.3910    1.1669   -1.6334 H   0  0  0  0  0  0  0  0  0  0  0  0
    2.7792    1.4608   -3.2877 H   0  0  0  0  0  0  0  0  0  0  0  0
    1.4669   -1.6298   -2.4275 H   0  0  0  0  0  0  0  0  0  0  0  0
   -0.8158   -2.0730   -1.5793 H   0  0  0  0  0  0  0  0  0  0  0  0
   -1.0215    3.2951   -0.5195 H   0  0  0  0  0  0  0  0  0  0  0  0
   -2.9205    4.4750   -0.6001 H   0  0  0  0  0  0  0  0  0  0  0  0
   -4.9280    2.0917    1.3286 H   0  0  0  0  0  0  0  0  0  0  0  0
   -7.3603    2.1725    1.5129 H   0  0  0  0  0  0  0  0  0  0  0  0
   -8.0043    4.4139    2.9406 H   0  0  0  0  0  0  0  0  0  0  0  0
   -9.2012    3.6629    4.9468 H   0  0  0  0  0  0  0  0  0  0  0  0
  -13.4946    2.1756    3.4049 H   0  0  0  0  0  0  0  0  0  0  0  0
  -13.8797    2.6244   -0.9797 H   0  0  0  0  0  0  0  0  0  0  0  0
   -7.4454    5.6549   -1.0261 H   0  0  0  0  0  0  0  0  0  0  0  0
   -4.9888    5.5446   -1.2571 H   0  0  0  0  0  0  0  0  0  0  0  0
    0.9906    2.5436   -1.4600 H   0  0  0  0  0  0  0  0  0  0  0  0
  1  2  1  0  0  0  0
  1 32  1  0  0  0  0
  1 33  1  0  0  0  0
  1 34  1  0  0  0  0
  2  3  1  0  0  0  0
  2 31  2  0  0  0  0
  3  4  2  0  0  0  0
  3 35  1  0  0  0  0
  4  5  1  0  0  0  0
  4 36  1  0  0  0  0
  5  6  1  0  0  0  0
  5  7  2  0  0  0  0
  7  8  1  0  0  0  0
  7 31  1  0  0  0  0
  8  9  1  0  0  0  0
  8 37  1  0  0  0  0
  9 10  2  0  0  0  0
  9 11  1  0  0  0  0
 11 12  1  0  0  0  0
 11 38  1  0  0  0  0
 12 13  1  0  0  0  0
 12 30  2  0  0  0  0
 13 14  2  0  0  0  0
 13 39  1  0  0  0  0
 14 15  1  0  0  0  0
 14 40  1  0  0  0  0
 15 16  1  0  0  0  0
 15 29  2  0  0  0  0
 16 17  1  0  0  0  0
 17 18  1  0  0  0  0
 17 28  2  0  0  0  0
 18 19  2  0  0  0  0
 18 41  1  0  0  0  0
 19 20  1  0  0  0  0
 19 42  1  0  0  0  0
 20 21  2  0  0  0  0
 21 22  1  0  0  0  0
 21 28  1  0  0  0  0
 22 23  2  0  0  0  0
 22 43  1  0  0  0  0
 23 24  1  0  0  0  0
 23 27  1  0  0  0  0
 24 25  2  0  0  0  0
 24 26  1  0  0  0  0
 26 44  1  0  0  0  0
 27 28  1  0  0  0  0
 29 30  1  0  0  0  0
 29 45  1  0  0  0  0
 30 46  1  0  0  0  0
 31 47  1  0  0  0  0
M  END
$$$$
