CHEMBL3747182
 OpenBabel04072215373D

 51 55  0  0  1  0  0  0  0  0999 V2000
    3.9777   -2.1863    1.1973 C   0  0  0  0  0  0  0  0  0  0  0  0
    3.2000   -0.9024    0.9239 C   0  0  2  0  0  0  0  0  0  0  0  0
    3.3176    0.0078    2.0960 N   0  0  0  0  0  0  0  0  0  0  0  0
    1.9394    0.2226    2.6239 C   0  0  0  0  0  0  0  0  0  0  0  0
    1.0122   -0.5125    1.7027 C   0  0  0  0  0  0  0  0  0  0  0  0
   -0.3216   -0.5723    1.8083 N   0  0  0  0  0  0  0  0  0  0  0  0
   -0.9148   -1.3058    0.8511 C   0  0  0  0  0  0  0  0  0  0  0  0
   -0.3003   -1.9481   -0.1599 N   0  0  0  0  0  0  0  0  0  0  0  0
    1.0482   -1.8694   -0.1774 C   0  0  0  0  0  0  0  0  0  0  0  0
    1.7646   -2.5147   -1.1712 O   0  0  0  0  0  0  0  0  0  0  0  0
    1.3019   -3.7366   -1.6034 C   0  0  0  0  0  0  0  0  0  0  0  0
    0.6618   -4.6577   -0.7742 C   0  0  0  0  0  0  0  0  0  0  0  0
    0.1832   -5.8708   -1.2753 C   0  0  0  0  0  0  0  0  0  0  0  0
    0.4073   -6.1592   -2.6320 C   0  0  0  0  0  0  0  0  0  0  0  0
    1.1411   -5.2928   -3.4524 C   0  0  0  0  0  0  0  0  0  0  0  0
    1.3139   -5.9302   -4.7052 C   0  0  0  0  0  0  0  0  0  0  0  0
    0.7144   -7.1627   -4.6225 C   0  0  0  0  0  0  0  0  0  0  0  0
    0.1001   -7.2874   -3.3884 N   0  0  0  0  0  0  0  0  0  0  0  0
   -0.6002   -8.4348   -2.9821 C   0  0  0  0  0  0  0  0  0  0  0  0
   -0.1771   -9.5241   -3.3332 O   0  0  0  0  0  0  0  0  0  0  0  0
   -1.7907   -8.1323   -2.3278 N   0  0  0  0  0  0  0  0  0  0  0  0
   -2.6602   -9.1495   -1.8619 C   0  0  0  0  0  0  0  0  0  0  0  0
   -2.1553  -10.3786   -1.4267 C   0  0  0  0  0  0  0  0  0  0  0  0
   -3.0077  -11.4124   -1.0500 C   0  0  0  0  0  0  0  0  0  0  0  0
   -4.3842  -11.2290   -1.1051 C   0  0  0  0  0  0  0  0  0  0  0  0
   -4.9207   -9.9951   -1.5052 C   0  0  0  0  0  0  0  0  0  0  0  0
   -6.4186   -9.8207   -1.5924 C   0  0  0  0  0  0  0  0  0  0  0  0
   -7.1162  -10.9619   -1.3269 F   0  0  0  0  0  0  0  0  0  0  0  0
   -6.8886   -8.8871   -0.7207 F   0  0  0  0  0  0  0  0  0  0  0  0
   -6.8257   -9.4191   -2.8285 F   0  0  0  0  0  0  0  0  0  0  0  0
   -4.0455   -8.9422   -1.8536 C   0  0  0  0  0  0  0  0  0  0  0  0
    1.5870   -4.0618   -2.9319 C   0  0  0  0  0  0  0  0  0  0  0  0
    1.7501   -1.1431    0.7357 C   0  0  0  0  0  0  0  0  0  0  0  0
    5.0401   -1.9731    1.3543 H   0  0  0  0  0  0  0  0  0  0  0  0
    3.9043   -2.8841    0.3561 H   0  0  0  0  0  0  0  0  0  0  0  0
    3.5999   -2.7080    2.0848 H   0  0  0  0  0  0  0  0  0  0  0  0
    3.6064   -0.3998    0.0360 H   0  0  0  0  0  0  0  0  0  0  0  0
    3.6619    0.9073    1.7617 H   0  0  0  0  0  0  0  0  0  0  0  0
    1.6988    1.2905    2.6286 H   0  0  0  0  0  0  0  0  0  0  0  0
    1.8668   -0.1759    3.6391 H   0  0  0  0  0  0  0  0  0  0  0  0
   -1.9943   -1.4003    0.9013 H   0  0  0  0  0  0  0  0  0  0  0  0
    0.5154   -4.4429    0.2815 H   0  0  0  0  0  0  0  0  0  0  0  0
   -0.3101   -6.5723   -0.6104 H   0  0  0  0  0  0  0  0  0  0  0  0
    1.8536   -5.5508   -5.5634 H   0  0  0  0  0  0  0  0  0  0  0  0
    0.6321   -7.9678   -5.3411 H   0  0  0  0  0  0  0  0  0  0  0  0
   -2.1751   -7.2036   -2.4647 H   0  0  0  0  0  0  0  0  0  0  0  0
   -1.0835  -10.5554   -1.3717 H   0  0  0  0  0  0  0  0  0  0  0  0
   -2.5910  -12.3655   -0.7345 H   0  0  0  0  0  0  0  0  0  0  0  0
   -5.0379  -12.0598   -0.8428 H   0  0  0  0  0  0  0  0  0  0  0  0
   -4.4665   -7.9913   -2.1766 H   0  0  0  0  0  0  0  0  0  0  0  0
    2.1586   -3.3778   -3.5531 H   0  0  0  0  0  0  0  0  0  0  0  0
  1 34  1  0  0  0  0
  1 35  1  0  0  0  0
  1 36  1  0  0  0  0
  2  3  1  0  0  0  0
  2 33  1  0  0  0  0
  2  1  1  0  0  0  0
  2 37  1  6  0  0  0
  3  4  1  0  0  0  0
  3 38  1  0  0  0  0
  4  5  1  0  0  0  0
  4 39  1  0  0  0  0
  4 40  1  0  0  0  0
  5  6  1  0  0  0  0
  5 33  2  0  0  0  0
  6  7  2  0  0  0  0
  7  8  1  0  0  0  0
  7 41  1  0  0  0  0
  8  9  2  0  0  0  0
  9 10  1  0  0  0  0
  9 33  1  0  0  0  0
 10 11  1  0  0  0  0
 11 12  1  0  0  0  0
 11 32  2  0  0  0  0
 12 13  2  0  0  0  0
 12 42  1  0  0  0  0
 13 14  1  0  0  0  0
 13 43  1  0  0  0  0
 14 15  2  0  0  0  0
 14 18  1  0  0  0  0
 15 16  1  0  0  0  0
 15 32  1  0  0  0  0
 16 17  2  0  0  0  0
 16 44  1  0  0  0  0
 17 18  1  0  0  0  0
 17 45  1  0  0  0  0
 18 19  1  0  0  0  0
 19 20  2  0  0  0  0
 19 21  1  0  0  0  0
 21 22  1  0  0  0  0
 21 46  1  0  0  0  0
 22 23  1  0  0  0  0
 22 31  2  0  0  0  0
 23 24  2  0  0  0  0
 23 47  1  0  0  0  0
 24 25  1  0  0  0  0
 24 48  1  0  0  0  0
 25 26  2  0  0  0  0
 25 49  1  0  0  0  0
 26 27  1  0  0  0  0
 26 31  1  0  0  0  0
 27 28  1  0  0  0  0
 27 29  1  0  0  0  0
 27 30  1  0  0  0  0
 31 50  1  0  0  0  0
 32 51  1  0  0  0  0
M  END
$$$$
