CHEMBL1823220
 OpenBabel04072215363D

 60 65  0  0  0  0  0  0  0  0999 V2000
    0.9792   -0.2524   -0.0084 C   0  0  0  0  0  0  0  0  0  0  0  0
    2.1750   -0.1814    0.0198 C   0  0  0  0  0  0  0  0  0  0  0  0
    3.6108   -0.0853    0.0868 C   0  0  0  0  0  0  0  0  0  0  0  0
    4.3060   -1.3002    0.1031 C   0  0  0  0  0  0  0  0  0  0  0  0
    5.7048   -1.3253    0.1027 C   0  0  0  0  0  0  0  0  0  0  0  0
    6.4434   -0.1280    0.1032 C   0  0  0  0  0  0  0  0  0  0  0  0
    5.7176    1.0728    0.1183 C   0  0  0  0  0  0  0  0  0  0  0  0
    4.3109    1.1423    0.1015 C   0  0  0  0  0  0  0  0  0  0  0  0
    3.7283    2.4001    0.1624 N   0  0  0  0  0  0  0  0  0  0  0  0
    4.2579    3.5417   -0.6031 C   0  0  0  0  0  0  0  0  0  0  0  0
    4.1823    4.8404    0.2287 C   0  0  0  0  0  0  0  0  0  0  0  0
    2.8745    5.1420    0.8532 N   0  0  0  0  0  0  0  0  0  0  0  0
    1.8139    5.4078   -0.1444 C   0  0  0  0  0  0  0  0  0  0  0  0
    1.9910    6.7188   -0.9271 C   0  0  0  0  0  0  0  0  0  0  0  0
    0.6546    7.1553   -0.5417 O   0  0  0  0  0  0  0  0  0  0  0  0
    0.6664    6.1838    0.5397 C   0  0  0  0  0  0  0  0  0  0  0  0
    2.4862    3.9524    1.6537 C   0  0  0  0  0  0  0  0  0  0  0  0
    2.4769    2.6068    0.8960 C   0  0  0  0  0  0  0  0  0  0  0  0
    7.9841   -0.0764    0.0735 C   0  0  0  0  0  0  0  0  0  0  0  0
    8.4366    0.6242   -1.2283 C   0  0  0  0  0  0  0  0  0  0  0  0
    8.5139    0.6957    1.3031 C   0  0  0  0  0  0  0  0  0  0  0  0
    8.5372   -1.4752    0.0915 C   0  0  0  0  0  0  0  0  0  0  0  0
    9.8666   -1.8125    0.0949 N   0  0  0  0  0  0  0  0  0  0  0  0
    9.9986   -3.1835    0.1001 C   0  0  0  0  0  0  0  0  0  0  0  0
   11.1457   -3.9817    0.1002 C   0  0  0  0  0  0  0  0  0  0  0  0
   10.9634   -5.3750    0.0977 C   0  0  0  0  0  0  0  0  0  0  0  0
   12.1076   -6.2296    0.0994 C   0  0  0  0  0  0  0  0  0  0  0  0
   13.0452   -6.9176    0.1022 N   0  0  0  0  0  0  0  0  0  0  0  0
    9.6867   -5.9382    0.0993 C   0  0  0  0  0  0  0  0  0  0  0  0
    8.5559   -5.1270    0.0976 C   0  0  0  0  0  0  0  0  0  0  0  0
    8.7137   -3.7273    0.0989 C   0  0  0  0  0  0  0  0  0  0  0  0
    7.8050   -2.6437    0.0963 C   0  0  0  0  0  0  0  0  0  0  0  0
    6.3610   -2.6595    0.0927 C   0  0  0  0  0  0  0  0  0  0  0  0
    5.7007   -3.6923    0.0805 O   0  0  0  0  0  0  0  0  0  0  0  0
   -0.0882   -0.2771   -0.0125 H   0  0  0  0  0  0  0  0  0  0  0  0
    3.7511   -2.2379    0.1047 H   0  0  0  0  0  0  0  0  0  0  0  0
    6.2795    1.9997    0.1873 H   0  0  0  0  0  0  0  0  0  0  0  0
    3.7029    3.6511   -1.5414 H   0  0  0  0  0  0  0  0  0  0  0  0
    5.3053    3.4077   -0.8960 H   0  0  0  0  0  0  0  0  0  0  0  0
    4.5380    5.6883   -0.3662 H   0  0  0  0  0  0  0  0  0  0  0  0
    4.9115    4.7430    1.0478 H   0  0  0  0  0  0  0  0  0  0  0  0
    1.4858    4.5719   -0.7696 H   0  0  0  0  0  0  0  0  0  0  0  0
    2.0570    6.5906   -2.0122 H   0  0  0  0  0  0  0  0  0  0  0  0
    2.7432    7.4383   -0.5922 H   0  0  0  0  0  0  0  0  0  0  0  0
   -0.2789    5.6395    0.6160 H   0  0  0  0  0  0  0  0  0  0  0  0
    0.8810    6.6798    1.4938 H   0  0  0  0  0  0  0  0  0  0  0  0
    1.5065    4.1045    2.1204 H   0  0  0  0  0  0  0  0  0  0  0  0
    3.1972    3.8633    2.4862 H   0  0  0  0  0  0  0  0  0  0  0  0
    1.6268    2.5628    0.2063 H   0  0  0  0  0  0  0  0  0  0  0  0
    2.3411    1.8336    1.6610 H   0  0  0  0  0  0  0  0  0  0  0  0
    8.0517    1.6476   -1.3057 H   0  0  0  0  0  0  0  0  0  0  0  0
    8.0857    0.0783   -2.1136 H   0  0  0  0  0  0  0  0  0  0  0  0
    9.5289    0.6877   -1.2952 H   0  0  0  0  0  0  0  0  0  0  0  0
    8.1396    1.7246    1.3462 H   0  0  0  0  0  0  0  0  0  0  0  0
    9.6083    0.7614    1.2980 H   0  0  0  0  0  0  0  0  0  0  0  0
    8.2180    0.2033    2.2377 H   0  0  0  0  0  0  0  0  0  0  0  0
   10.6413   -1.1622    0.0888 H   0  0  0  0  0  0  0  0  0  0  0  0
   12.1390   -3.5439    0.0990 H   0  0  0  0  0  0  0  0  0  0  0  0
    9.5535   -7.0203    0.0969 H   0  0  0  0  0  0  0  0  0  0  0  0
    7.5584   -5.5608    0.0944 H   0  0  0  0  0  0  0  0  0  0  0  0
  1  2  3  0  0  0  0
  1 35  1  0  0  0  0
  2  3  1  0  0  0  0
  3  4  1  0  0  0  0
  3  8  2  0  0  0  0
  4  5  2  0  0  0  0
  4 36  1  0  0  0  0
  5  6  1  0  0  0  0
  5 33  1  0  0  0  0
  6  7  2  0  0  0  0
  6 19  1  0  0  0  0
  7  8  1  0  0  0  0
  7 37  1  0  0  0  0
  8  9  1  0  0  0  0
  9 10  1  0  0  0  0
  9 18  1  0  0  0  0
 10 11  1  0  0  0  0
 10 38  1  0  0  0  0
 10 39  1  0  0  0  0
 11 12  1  0  0  0  0
 11 40  1  0  0  0  0
 11 41  1  0  0  0  0
 12 13  1  0  0  0  0
 12 17  1  0  0  0  0
 13 14  1  0  0  0  0
 13 16  1  0  0  0  0
 13 42  1  0  0  0  0
 14 15  1  0  0  0  0
 14 43  1  0  0  0  0
 14 44  1  0  0  0  0
 15 16  1  0  0  0  0
 16 45  1  0  0  0  0
 16 46  1  0  0  0  0
 17 18  1  0  0  0  0
 17 47  1  0  0  0  0
 17 48  1  0  0  0  0
 18 49  1  0  0  0  0
 18 50  1  0  0  0  0
 19 20  1  0  0  0  0
 19 21  1  0  0  0  0
 19 22  1  0  0  0  0
 20 51  1  0  0  0  0
 20 52  1  0  0  0  0
 20 53  1  0  0  0  0
 21 54  1  0  0  0  0
 21 55  1  0  0  0  0
 21 56  1  0  0  0  0
 22 23  1  0  0  0  0
 22 32  2  0  0  0  0
 23 24  1  0  0  0  0
 23 57  1  0  0  0  0
 24 25  1  0  0  0  0
 24 31  2  0  0  0  0
 25 26  2  0  0  0  0
 25 58  1  0  0  0  0
 26 27  1  0  0  0  0
 26 29  1  0  0  0  0
 27 28  3  0  0  0  0
 29 30  2  0  0  0  0
 29 59  1  0  0  0  0
 30 31  1  0  0  0  0
 30 60  1  0  0  0  0
 31 32  1  0  0  0  0
 32 33  1  0  0  0  0
 33 34  2  0  0  0  0
M  END
$$$$
