CHEMBL432941
 OpenBabel04072215383D

 59 63  0  0  0  0  0  0  0  0999 V2000
    1.7024    3.9672   -3.2490 C   0  0  0  0  0  0  0  0  0  0  0  0
    3.0486    3.5086   -3.2630 O   0  0  0  0  0  0  0  0  0  0  0  0
    3.2355    2.1897   -2.9490 C   0  0  0  0  0  0  0  0  0  0  0  0
    2.2499    1.3074   -2.5171 C   0  0  0  0  0  0  0  0  0  0  0  0
    2.5750   -0.0155   -2.2249 C   0  0  0  0  0  0  0  0  0  0  0  0
    3.8851   -0.4667   -2.3851 C   0  0  0  0  0  0  0  0  0  0  0  0
    4.8938    0.3850   -2.8593 C   0  0  0  0  0  0  0  0  0  0  0  0
    6.2627   -0.1132   -3.1133 C   0  0  0  0  0  0  0  0  0  0  0  0
    7.3766    0.7405   -2.9223 C   0  0  0  0  0  0  0  0  0  0  0  0
    8.6793    0.3239   -3.1809 C   0  0  0  0  0  0  0  0  0  0  0  0
    8.8737   -0.9721   -3.6145 C   0  0  0  0  0  0  0  0  0  0  0  0
    7.7997   -1.8363   -3.7891 C   0  0  0  0  0  0  0  0  0  0  0  0
    6.4975   -1.4320   -3.5649 C   0  0  0  0  0  0  0  0  0  0  0  0
    8.2525   -3.0964   -4.1855 N   0  0  0  0  0  0  0  0  0  0  0  0
    9.6386   -3.1207   -4.2853 C   0  0  0  0  0  0  0  0  0  0  0  0
   10.3419   -4.0823   -4.5636 O   0  0  0  0  0  0  0  0  0  0  0  0
   10.0866   -1.7224   -3.9629 C   0  0  0  0  0  0  0  0  0  0  0  0
   11.2733   -1.1030   -3.9781 C   0  0  0  0  0  0  0  0  0  0  0  0
   12.5566   -1.5722   -4.3437 C   0  0  0  0  0  0  0  0  0  0  0  0
   12.7919   -2.8946   -4.6257 N   0  0  0  0  0  0  0  0  0  0  0  0
   14.1058   -3.0539   -4.9571 C   0  0  0  0  0  0  0  0  0  0  0  0
   14.7500   -1.8403   -4.8395 C   0  0  0  0  0  0  0  0  0  0  0  0
   13.7601   -0.8739   -4.4803 C   0  0  0  0  0  0  0  0  0  0  0  0
   13.9657    0.6090   -4.2762 C   0  0  0  0  0  0  0  0  0  0  0  0
   14.3554    1.3291   -5.5639 C   0  0  0  0  0  0  0  0  0  0  0  0
   14.4987    2.8165   -5.3691 C   0  0  0  0  0  0  0  0  0  0  0  0
   14.3104    3.4154   -4.3209 O   0  0  0  0  0  0  0  0  0  0  0  0
   14.8682    3.4451   -6.5106 O   0  0  0  0  0  0  0  0  0  0  0  0
   16.2255   -1.7065   -5.0465 C   0  0  0  0  0  0  0  0  0  0  0  0
   16.8410   -2.9724   -5.6784 C   0  0  0  0  0  0  0  0  0  0  0  0
   16.2353   -4.2733   -5.1223 C   0  0  0  0  0  0  0  0  0  0  0  0
   14.7214   -4.3390   -5.3776 C   0  0  0  0  0  0  0  0  0  0  0  0
    4.5452    1.7279   -3.1064 C   0  0  0  0  0  0  0  0  0  0  0  0
    1.6934    5.0070   -3.5873 H   0  0  0  0  0  0  0  0  0  0  0  0
    1.2941    3.9401   -2.2334 H   0  0  0  0  0  0  0  0  0  0  0  0
    1.0822    3.3868   -3.9408 H   0  0  0  0  0  0  0  0  0  0  0  0
    1.2173    1.6151   -2.3983 H   0  0  0  0  0  0  0  0  0  0  0  0
    1.8049   -0.6993   -1.8812 H   0  0  0  0  0  0  0  0  0  0  0  0
    4.1054   -1.5016   -2.1344 H   0  0  0  0  0  0  0  0  0  0  0  0
    7.2401    1.7563   -2.5545 H   0  0  0  0  0  0  0  0  0  0  0  0
    9.5008    1.0143   -3.0304 H   0  0  0  0  0  0  0  0  0  0  0  0
    5.6757   -2.1167   -3.7521 H   0  0  0  0  0  0  0  0  0  0  0  0
    7.6764   -3.9082   -4.3506 H   0  0  0  0  0  0  0  0  0  0  0  0
   11.2710   -0.0578   -3.6918 H   0  0  0  0  0  0  0  0  0  0  0  0
   12.0975   -3.6374   -4.6038 H   0  0  0  0  0  0  0  0  0  0  0  0
   14.7189    0.7688   -3.4949 H   0  0  0  0  0  0  0  0  0  0  0  0
   13.0484    1.0706   -3.8906 H   0  0  0  0  0  0  0  0  0  0  0  0
   13.5937    1.1594   -6.3316 H   0  0  0  0  0  0  0  0  0  0  0  0
   15.3166    0.9570   -5.9327 H   0  0  0  0  0  0  0  0  0  0  0  0
   14.9782    2.8470   -7.2716 H   0  0  0  0  0  0  0  0  0  0  0  0
   16.6989   -1.5220   -4.0749 H   0  0  0  0  0  0  0  0  0  0  0  0
   16.4561   -0.8528   -5.6894 H   0  0  0  0  0  0  0  0  0  0  0  0
   17.9250   -2.9671   -5.5178 H   0  0  0  0  0  0  0  0  0  0  0  0
   16.6827   -2.9472   -6.7647 H   0  0  0  0  0  0  0  0  0  0  0  0
   16.4295   -4.3256   -4.0434 H   0  0  0  0  0  0  0  0  0  0  0  0
   16.7228   -5.1400   -5.5817 H   0  0  0  0  0  0  0  0  0  0  0  0
   14.2820   -5.1895   -4.8472 H   0  0  0  0  0  0  0  0  0  0  0  0
   14.5377   -4.4810   -6.4498 H   0  0  0  0  0  0  0  0  0  0  0  0
    5.2899    2.4381   -3.4606 H   0  0  0  0  0  0  0  0  0  0  0  0
  1  2  1  0  0  0  0
  1 34  1  0  0  0  0
  1 35  1  0  0  0  0
  1 36  1  0  0  0  0
  2  3  1  0  0  0  0
  3  4  1  0  0  0  0
  3 33  2  0  0  0  0
  4  5  2  0  0  0  0
  4 37  1  0  0  0  0
  5  6  1  0  0  0  0
  5 38  1  0  0  0  0
  6  7  2  0  0  0  0
  6 39  1  0  0  0  0
  7  8  1  0  0  0  0
  7 33  1  0  0  0  0
  8  9  1  0  0  0  0
  8 13  2  0  0  0  0
  9 10  2  0  0  0  0
  9 40  1  0  0  0  0
 10 11  1  0  0  0  0
 10 41  1  0  0  0  0
 11 12  2  0  0  0  0
 11 17  1  0  0  0  0
 12 13  1  0  0  0  0
 12 14  1  0  0  0  0
 13 42  1  0  0  0  0
 14 15  1  0  0  0  0
 14 43  1  0  0  0  0
 15 16  2  0  0  0  0
 15 17  1  0  0  0  0
 17 18  2  0  0  0  0
 18 19  1  0  0  0  0
 18 44  1  0  0  0  0
 19 20  1  0  0  0  0
 19 23  2  0  0  0  0
 20 21  1  0  0  0  0
 20 45  1  0  0  0  0
 21 22  2  0  0  0  0
 21 32  1  0  0  0  0
 22 23  1  0  0  0  0
 22 29  1  0  0  0  0
 23 24  1  0  0  0  0
 24 25  1  0  0  0  0
 24 46  1  0  0  0  0
 24 47  1  0  0  0  0
 25 26  1  0  0  0  0
 25 48  1  0  0  0  0
 25 49  1  0  0  0  0
 26 27  2  0  0  0  0
 26 28  1  0  0  0  0
 28 50  1  0  0  0  0
 29 30  1  0  0  0  0
 29 51  1  0  0  0  0
 29 52  1  0  0  0  0
 30 31  1  0  0  0  0
 30 53  1  0  0  0  0
 30 54  1  0  0  0  0
 31 32  1  0  0  0  0
 31 55  1  0  0  0  0
 31 56  1  0  0  0  0
 32 57  1  0  0  0  0
 32 58  1  0  0  0  0
 33 59  1  0  0  0  0
M  END
$$$$
