CHEMBL4245241
 OpenBabel04072215383D

 51 55  0  0  0  0  0  0  0  0999 V2000
    1.3496   -0.0953   -1.7514 N   0  0  0  0  0  0  0  0  0  0  0  0
    2.6475   -0.2760   -1.4303 C   0  0  0  0  0  0  0  0  0  0  0  0
    3.4777    0.7458   -1.7857 O   0  0  0  0  0  0  0  0  0  0  0  0
    4.7647    0.4920   -1.3371 N   0  0  0  0  0  0  0  0  0  0  0  0
    4.7023   -0.6878   -0.7240 C   0  0  0  0  0  0  0  0  0  0  0  0
    5.7336   -1.3179   -0.1036 N   0  0  0  0  0  0  0  0  0  0  0  0
    5.3890   -2.5191    0.4380 C   0  0  0  0  0  0  0  0  0  0  0  0
    6.4903   -3.2400    1.1221 C   0  0  0  0  0  0  0  0  0  0  0  0
    7.4932   -2.5401    1.8169 C   0  0  0  0  0  0  0  0  0  0  0  0
    8.5416   -3.2126    2.4534 C   0  0  0  0  0  0  0  0  0  0  0  0
    8.6072   -4.6020    2.4107 C   0  0  0  0  0  0  0  0  0  0  0  0
    7.6235   -5.3189    1.7371 C   0  0  0  0  0  0  0  0  0  0  0  0
    6.5797   -4.6455    1.0990 C   0  0  0  0  0  0  0  0  0  0  0  0
    4.0864   -3.0836    0.3841 C   0  0  0  0  0  0  0  0  0  0  0  0
    2.9726   -2.4699   -0.2393 C   0  0  0  0  0  0  0  0  0  0  0  0
    1.6376   -3.0705   -0.2085 C   0  0  0  0  0  0  0  0  0  0  0  0
    1.2125   -3.7149    0.9629 C   0  0  0  0  0  0  0  0  0  0  0  0
   -0.0427   -4.3082    1.0571 C   0  0  0  0  0  0  0  0  0  0  0  0
   -0.9534   -4.2242    0.0060 C   0  0  0  0  0  0  0  0  0  0  0  0
   -2.2712   -4.7205    0.1199 N   0  0  0  0  0  0  0  0  0  0  0  0
   -2.9009   -4.9182    1.3359 C   0  0  0  0  0  0  0  0  0  0  0  0
   -2.4515   -4.5553    2.4186 O   0  0  0  0  0  0  0  0  0  0  0  0
   -4.0927   -5.6205    1.2012 N   0  0  0  0  0  0  0  0  0  0  0  0
   -4.7820   -5.9779    2.3847 C   0  0  0  0  0  0  0  0  0  0  0  0
   -5.0473   -5.0194    3.3735 C   0  0  0  0  0  0  0  0  0  0  0  0
   -5.5252   -5.4115    4.6217 C   0  0  0  0  0  0  0  0  0  0  0  0
   -5.7405   -6.7599    4.8684 C   0  0  0  0  0  0  0  0  0  0  0  0
   -6.1260   -7.1514    6.0894 F   0  0  0  0  0  0  0  0  0  0  0  0
   -5.5381   -7.7142    3.8744 C   0  0  0  0  0  0  0  0  0  0  0  0
   -5.0817   -7.3215    2.6143 C   0  0  0  0  0  0  0  0  0  0  0  0
   -0.5373   -3.6389   -1.1890 C   0  0  0  0  0  0  0  0  0  0  0  0
    0.7538   -3.0910   -1.2987 C   0  0  0  0  0  0  0  0  0  0  0  0
    3.3772   -1.2406   -0.7816 C   0  0  0  0  0  0  0  0  0  0  0  0
    1.0775    0.8282   -2.0715 H   0  0  0  0  0  0  0  0  0  0  0  0
    0.6346   -0.5307   -1.1706 H   0  0  0  0  0  0  0  0  0  0  0  0
    7.4641   -1.4519    1.8646 H   0  0  0  0  0  0  0  0  0  0  0  0
    9.3092   -2.6471    2.9757 H   0  0  0  0  0  0  0  0  0  0  0  0
    9.4281   -5.1257    2.8936 H   0  0  0  0  0  0  0  0  0  0  0  0
    7.6721   -6.4042    1.6989 H   0  0  0  0  0  0  0  0  0  0  0  0
    5.8434   -5.2417    0.5645 H   0  0  0  0  0  0  0  0  0  0  0  0
    3.9310   -4.0450    0.8733 H   0  0  0  0  0  0  0  0  0  0  0  0
    1.8522   -3.7643    1.8427 H   0  0  0  0  0  0  0  0  0  0  0  0
   -0.2790   -4.8226    1.9844 H   0  0  0  0  0  0  0  0  0  0  0  0
   -2.8749   -4.6456   -0.6859 H   0  0  0  0  0  0  0  0  0  0  0  0
   -4.0572   -6.3225    0.4752 H   0  0  0  0  0  0  0  0  0  0  0  0
   -4.8286   -3.9680    3.1961 H   0  0  0  0  0  0  0  0  0  0  0  0
   -5.6838   -4.6802    5.4072 H   0  0  0  0  0  0  0  0  0  0  0  0
   -5.6952   -8.7632    4.1043 H   0  0  0  0  0  0  0  0  0  0  0  0
   -4.8738   -8.0799    1.8654 H   0  0  0  0  0  0  0  0  0  0  0  0
   -1.2066   -3.5771   -2.0427 H   0  0  0  0  0  0  0  0  0  0  0  0
    1.0521   -2.6635   -2.2545 H   0  0  0  0  0  0  0  0  0  0  0  0
  1  2  1  0  0  0  0
  1 34  1  0  0  0  0
  1 35  1  0  0  0  0
  2  3  1  0  0  0  0
  2 33  2  0  0  0  0
  3  4  1  0  0  0  0
  4  5  2  0  0  0  0
  5  6  1  0  0  0  0
  5 33  1  0  0  0  0
  6  7  2  0  0  0  0
  7  8  1  0  0  0  0
  7 14  1  0  0  0  0
  8  9  1  0  0  0  0
  8 13  2  0  0  0  0
  9 10  2  0  0  0  0
  9 36  1  0  0  0  0
 10 11  1  0  0  0  0
 10 37  1  0  0  0  0
 11 12  2  0  0  0  0
 11 38  1  0  0  0  0
 12 13  1  0  0  0  0
 12 39  1  0  0  0  0
 13 40  1  0  0  0  0
 14 15  2  0  0  0  0
 14 41  1  0  0  0  0
 15 16  1  0  0  0  0
 15 33  1  0  0  0  0
 16 17  1  0  0  0  0
 16 32  2  0  0  0  0
 17 18  2  0  0  0  0
 17 42  1  0  0  0  0
 18 19  1  0  0  0  0
 18 43  1  0  0  0  0
 19 20  1  0  0  0  0
 19 31  2  0  0  0  0
 20 21  1  0  0  0  0
 20 44  1  0  0  0  0
 21 22  2  0  0  0  0
 21 23  1  0  0  0  0
 23 24  1  0  0  0  0
 23 45  1  0  0  0  0
 24 25  1  0  0  0  0
 24 30  2  0  0  0  0
 25 26  2  0  0  0  0
 25 46  1  0  0  0  0
 26 27  1  0  0  0  0
 26 47  1  0  0  0  0
 27 28  1  0  0  0  0
 27 29  2  0  0  0  0
 29 30  1  0  0  0  0
 29 48  1  0  0  0  0
 30 49  1  0  0  0  0
 31 32  1  0  0  0  0
 31 50  1  0  0  0  0
 32 51  1  0  0  0  0
M  END
$$$$
