CHEMBL187571
 OpenBabel04072215363D

 43 45  0  0  0  0  0  0  0  0999 V2000
    2.8500   -0.9290    0.3290 O   0  0  0  0  0  0  0  0  0  0  0  0
    2.4053   -0.1953   -0.8033 C   0  0  0  0  0  0  0  0  0  0  0  0
    2.9069    1.2395   -0.7138 C   0  0  0  0  0  0  0  0  0  0  0  0
    4.4333    1.2881   -0.7022 C   0  0  0  0  0  0  0  0  0  0  0  0
    4.8890    2.6801   -0.6337 N   0  0  0  0  0  0  0  0  0  0  0  0
    6.2789    2.8909   -0.5996 C   0  0  0  0  0  0  0  0  0  0  0  0
    6.8186    4.0110    0.0344 C   0  0  0  0  0  0  0  0  0  0  0  0
    8.1349    4.3219    0.0755 N   0  0  0  0  0  0  0  0  0  0  0  0
    8.9688    3.4880   -0.5909 C   0  0  0  0  0  0  0  0  0  0  0  0
    8.5674    2.3586   -1.3040 C   0  0  0  0  0  0  0  0  0  0  0  0
    9.5321    1.5275   -2.0363 C   0  0  0  0  0  0  0  0  0  0  0  0
    9.3611    0.1726   -2.2987 C   0  0  0  0  0  0  0  0  0  0  0  0
   10.2501   -0.5622   -3.0074 N   0  0  0  0  0  0  0  0  0  0  0  0
   11.3185    0.1293   -3.4706 C   0  0  0  0  0  0  0  0  0  0  0  0
   11.5305    1.4892   -3.2357 C   0  0  0  0  0  0  0  0  0  0  0  0
   12.5890    2.1502   -3.8796 N   0  0  0  0  0  0  0  0  0  0  0  0
   12.8689    3.5236   -4.0604 C   0  0  0  0  0  0  0  0  0  0  0  0
   12.0703    4.5480   -3.5326 C   0  0  0  0  0  0  0  0  0  0  0  0
   12.2984    5.8912   -3.8356 C   0  0  0  0  0  0  0  0  0  0  0  0
   13.3399    6.2489   -4.6857 C   0  0  0  0  0  0  0  0  0  0  0  0
   14.1610    5.2569   -5.2172 C   0  0  0  0  0  0  0  0  0  0  0  0
   13.9271    3.9139   -4.9085 C   0  0  0  0  0  0  0  0  0  0  0  0
   14.9707    2.7231   -5.6159 Cl  0  0  0  0  0  0  0  0  0  0  0  0
   10.6317    2.1741   -2.4965 N   0  0  0  0  0  0  0  0  0  0  0  0
    7.1874    2.0963   -1.3086 C   0  0  0  0  0  0  0  0  0  0  0  0
    2.4742   -1.8242    0.2595 H   0  0  0  0  0  0  0  0  0  0  0  0
    1.3116   -0.2126   -0.8212 H   0  0  0  0  0  0  0  0  0  0  0  0
    2.7802   -0.6866   -1.7073 H   0  0  0  0  0  0  0  0  0  0  0  0
    2.5234    1.7082    0.2004 H   0  0  0  0  0  0  0  0  0  0  0  0
    2.5215    1.8149   -1.5640 H   0  0  0  0  0  0  0  0  0  0  0  0
    4.7901    0.8063   -1.6187 H   0  0  0  0  0  0  0  0  0  0  0  0
    4.8263    0.7338    0.1585 H   0  0  0  0  0  0  0  0  0  0  0  0
    4.4302    3.1828    0.1254 H   0  0  0  0  0  0  0  0  0  0  0  0
    6.1791    4.7177    0.5559 H   0  0  0  0  0  0  0  0  0  0  0  0
   10.0183    3.7729   -0.5391 H   0  0  0  0  0  0  0  0  0  0  0  0
    8.4954   -0.3774   -1.9465 H   0  0  0  0  0  0  0  0  0  0  0  0
   12.0097   -0.4517   -4.0731 H   0  0  0  0  0  0  0  0  0  0  0  0
   13.3559    1.5498   -4.1636 H   0  0  0  0  0  0  0  0  0  0  0  0
   11.2361    4.3281   -2.8723 H   0  0  0  0  0  0  0  0  0  0  0  0
   11.6473    6.6542   -3.4134 H   0  0  0  0  0  0  0  0  0  0  0  0
   13.5024    7.2927   -4.9371 H   0  0  0  0  0  0  0  0  0  0  0  0
   14.9726    5.5360   -5.8843 H   0  0  0  0  0  0  0  0  0  0  0  0
    6.8156    1.2756   -1.9121 H   0  0  0  0  0  0  0  0  0  0  0  0
  1  2  1  0  0  0  0
  1 26  1  0  0  0  0
  2  3  1  0  0  0  0
  2 27  1  0  0  0  0
  2 28  1  0  0  0  0
  3  4  1  0  0  0  0
  3 29  1  0  0  0  0
  3 30  1  0  0  0  0
  4  5  1  0  0  0  0
  4 31  1  0  0  0  0
  4 32  1  0  0  0  0
  5  6  1  0  0  0  0
  5 33  1  0  0  0  0
  6  7  1  0  0  0  0
  6 25  2  0  0  0  0
  7  8  2  0  0  0  0
  7 34  1  0  0  0  0
  8  9  1  0  0  0  0
  9 10  2  0  0  0  0
  9 35  1  0  0  0  0
 10 11  1  0  0  0  0
 10 25  1  0  0  0  0
 11 12  1  0  0  0  0
 11 24  2  0  0  0  0
 12 13  2  0  0  0  0
 12 36  1  0  0  0  0
 13 14  1  0  0  0  0
 14 15  2  0  0  0  0
 14 37  1  0  0  0  0
 15 16  1  0  0  0  0
 15 24  1  0  0  0  0
 16 17  1  0  0  0  0
 16 38  1  0  0  0  0
 17 18  1  0  0  0  0
 17 22  2  0  0  0  0
 18 19  2  0  0  0  0
 18 39  1  0  0  0  0
 19 20  1  0  0  0  0
 19 40  1  0  0  0  0
 20 21  2  0  0  0  0
 20 41  1  0  0  0  0
 21 22  1  0  0  0  0
 21 42  1  0  0  0  0
 22 23  1  0  0  0  0
 25 43  1  0  0  0  0
M  END
$$$$
