CHEMBL4093349
 OpenBabel04072215383D

 78 81  0  0  0  0  0  0  0  0999 V2000
    1.6780   -1.1793    1.6965 C   0  0  0  0  0  0  0  0  0  0  0  0
    2.9657   -0.8165    1.7954 C   0  0  0  0  0  0  0  0  0  0  0  0
    3.2849    0.5476    2.2969 C   0  0  0  0  0  0  0  0  0  0  0  0
    2.3768    1.3217    2.5764 O   0  0  0  0  0  0  0  0  0  0  0  0
    4.6411    0.8095    2.3645 N   0  0  0  0  0  0  0  0  0  0  0  0
    5.2027    2.0102    2.8612 C   0  0  0  0  0  0  0  0  0  0  0  0
    4.4650    2.9200    3.6239 C   0  0  0  0  0  0  0  0  0  0  0  0
    5.0245    4.1183    4.0585 C   0  0  0  0  0  0  0  0  0  0  0  0
    6.3461    4.4156    3.7513 C   0  0  0  0  0  0  0  0  0  0  0  0
    7.1231    3.5036    3.0213 C   0  0  0  0  0  0  0  0  0  0  0  0
    8.5657    3.8326    2.7182 C   0  0  0  0  0  0  0  0  0  0  0  0
    9.5077    3.3766    3.8445 C   0  0  0  0  0  0  0  0  0  0  0  0
   10.9212    3.6829    3.5897 N   0  0  0  0  0  0  0  0  0  0  0  0
   11.8279    2.6405    3.4335 C   0  0  0  0  0  0  0  0  0  0  0  0
   11.5063    1.4582    3.4903 O   0  0  0  0  0  0  0  0  0  0  0  0
   13.2721    3.0053    3.1983 C   0  0  0  0  0  0  0  0  0  0  0  0
   14.2780    1.9368    3.0596 C   0  0  0  0  0  0  0  0  0  0  0  0
   14.9629    1.4970    4.2047 C   0  0  0  0  0  0  0  0  0  0  0  0
   15.8758    0.4413    4.1327 C   0  0  0  0  0  0  0  0  0  0  0  0
   16.1154   -0.1901    2.9145 C   0  0  0  0  0  0  0  0  0  0  0  0
   15.4583    0.2462    1.7632 C   0  0  0  0  0  0  0  0  0  0  0  0
   14.5487    1.3072    1.8305 C   0  0  0  0  0  0  0  0  0  0  0  0
   13.7913    1.8182    0.3624 Cl  0  0  0  0  0  0  0  0  0  0  0  0
   13.6437    4.2890    3.1233 C   0  0  0  0  0  0  0  0  0  0  0  0
   12.6510    5.3353    3.3043 C   0  0  0  0  0  0  0  0  0  0  0  0
   12.9496    6.6779    3.2346 C   0  0  0  0  0  0  0  0  0  0  0  0
   12.0444    7.6570    3.4194 N   0  0  0  0  0  0  0  0  0  0  0  0
   10.7983    7.2770    3.7154 C   0  0  0  0  0  0  0  0  0  0  0  0
    9.8327    8.2106    4.0102 N   0  0  0  0  0  0  0  0  0  0  0  0
    9.9340    9.5257    3.4089 C   0  0  0  0  0  0  0  0  0  0  0  0
    8.7627   10.3934    3.8892 C   0  0  0  0  0  0  0  0  0  0  0  0
    8.7737   10.5132    5.4180 C   0  0  0  0  0  0  0  0  0  0  0  0
    7.6322   11.3460    6.0063 C   0  0  0  0  0  0  0  0  0  0  0  0
    6.2574   10.8659    5.7557 N   0  0  0  0  0  0  0  0  0  0  0  0
    6.0350    9.4639    6.1485 C   0  0  0  0  0  0  0  0  0  0  0  0
    6.1071    9.1482    7.6408 C   0  0  0  0  0  0  0  0  0  0  0  0
    5.3078   11.8110    6.3750 C   0  0  0  0  0  0  0  0  0  0  0  0
    3.8357   11.4963    6.1348 C   0  0  0  0  0  0  0  0  0  0  0  0
   10.4054    6.0003    3.7966 N   0  0  0  0  0  0  0  0  0  0  0  0
   11.3267    5.0438    3.5691 C   0  0  0  0  0  0  0  0  0  0  0  0
    6.5481    2.2963    2.5888 C   0  0  0  0  0  0  0  0  0  0  0  0
    1.3838   -2.1596    1.3446 H   0  0  0  0  0  0  0  0  0  0  0  0
    0.8777   -0.4931    1.9719 H   0  0  0  0  0  0  0  0  0  0  0  0
    3.7637   -1.4956    1.5292 H   0  0  0  0  0  0  0  0  0  0  0  0
    5.2845    0.1413    1.9621 H   0  0  0  0  0  0  0  0  0  0  0  0
    3.4381    2.7178    3.9148 H   0  0  0  0  0  0  0  0  0  0  0  0
    4.4177    4.8130    4.6320 H   0  0  0  0  0  0  0  0  0  0  0  0
    6.7652    5.3612    4.0854 H   0  0  0  0  0  0  0  0  0  0  0  0
    8.6335    4.9123    2.5474 H   0  0  0  0  0  0  0  0  0  0  0  0
    8.8627    3.3751    1.7665 H   0  0  0  0  0  0  0  0  0  0  0  0
    9.3849    2.2946    3.9724 H   0  0  0  0  0  0  0  0  0  0  0  0
    9.2289    3.8199    4.8100 H   0  0  0  0  0  0  0  0  0  0  0  0
   14.7713    1.9602    5.1716 H   0  0  0  0  0  0  0  0  0  0  0  0
   16.3869    0.1009    5.0306 H   0  0  0  0  0  0  0  0  0  0  0  0
   16.8095   -1.0258    2.8606 H   0  0  0  0  0  0  0  0  0  0  0  0
   15.6517   -0.2510    0.8166 H   0  0  0  0  0  0  0  0  0  0  0  0
   14.6751    4.5783    2.9447 H   0  0  0  0  0  0  0  0  0  0  0  0
   13.9558    7.0270    3.0284 H   0  0  0  0  0  0  0  0  0  0  0  0
    8.9214    7.7731    4.0155 H   0  0  0  0  0  0  0  0  0  0  0  0
    9.9103    9.4554    2.3149 H   0  0  0  0  0  0  0  0  0  0  0  0
   10.8750   10.0116    3.6961 H   0  0  0  0  0  0  0  0  0  0  0  0
    7.8172    9.9620    3.5397 H   0  0  0  0  0  0  0  0  0  0  0  0
    8.8472   11.3900    3.4394 H   0  0  0  0  0  0  0  0  0  0  0  0
    9.7222   10.9753    5.7182 H   0  0  0  0  0  0  0  0  0  0  0  0
    8.7716    9.5211    5.8817 H   0  0  0  0  0  0  0  0  0  0  0  0
    7.7298   12.3618    5.6017 H   0  0  0  0  0  0  0  0  0  0  0  0
    7.8112   11.4294    7.0858 H   0  0  0  0  0  0  0  0  0  0  0  0
    6.7414    8.8176    5.6160 H   0  0  0  0  0  0  0  0  0  0  0  0
    5.0606    9.1314    5.7691 H   0  0  0  0  0  0  0  0  0  0  0  0
    6.9231    9.6726    8.1447 H   0  0  0  0  0  0  0  0  0  0  0  0
    6.2749    8.0753    7.7837 H   0  0  0  0  0  0  0  0  0  0  0  0
    5.1705    9.4073    8.1447 H   0  0  0  0  0  0  0  0  0  0  0  0
    5.4901   12.8089    5.9547 H   0  0  0  0  0  0  0  0  0  0  0  0
    5.4831   11.8890    7.4553 H   0  0  0  0  0  0  0  0  0  0  0  0
    3.6157   11.4165    5.0659 H   0  0  0  0  0  0  0  0  0  0  0  0
    3.2161   12.2997    6.5478 H   0  0  0  0  0  0  0  0  0  0  0  0
    3.5290   10.5688    6.6270 H   0  0  0  0  0  0  0  0  0  0  0  0
    7.1522    1.6012    2.0101 H   0  0  0  0  0  0  0  0  0  0  0  0
  1  2  2  0  0  0  0
  1 42  1  0  0  0  0
  1 43  1  0  0  0  0
  2  3  1  0  0  0  0
  2 44  1  0  0  0  0
  3  4  2  0  0  0  0
  3  5  1  0  0  0  0
  5  6  1  0  0  0  0
  5 45  1  0  0  0  0
  6  7  1  0  0  0  0
  6 41  2  0  0  0  0
  7  8  2  0  0  0  0
  7 46  1  0  0  0  0
  8  9  1  0  0  0  0
  8 47  1  0  0  0  0
  9 10  2  0  0  0  0
  9 48  1  0  0  0  0
 10 11  1  0  0  0  0
 10 41  1  0  0  0  0
 11 12  1  0  0  0  0
 11 49  1  0  0  0  0
 11 50  1  0  0  0  0
 12 13  1  0  0  0  0
 12 51  1  0  0  0  0
 12 52  1  0  0  0  0
 13 14  1  0  0  0  0
 13 40  1  0  0  0  0
 14 15  2  0  0  0  0
 14 16  1  0  0  0  0
 16 17  1  0  0  0  0
 16 24  2  0  0  0  0
 17 18  1  0  0  0  0
 17 22  2  0  0  0  0
 18 19  2  0  0  0  0
 18 53  1  0  0  0  0
 19 20  1  0  0  0  0
 19 54  1  0  0  0  0
 20 21  2  0  0  0  0
 20 55  1  0  0  0  0
 21 22  1  0  0  0  0
 21 56  1  0  0  0  0
 22 23  1  0  0  0  0
 24 25  1  0  0  0  0
 24 57  1  0  0  0  0
 25 26  1  0  0  0  0
 25 40  2  0  0  0  0
 26 27  2  0  0  0  0
 26 58  1  0  0  0  0
 27 28  1  0  0  0  0
 28 29  1  0  0  0  0
 28 39  2  0  0  0  0
 29 30  1  0  0  0  0
 29 59  1  0  0  0  0
 30 31  1  0  0  0  0
 30 60  1  0  0  0  0
 30 61  1  0  0  0  0
 31 32  1  0  0  0  0
 31 62  1  0  0  0  0
 31 63  1  0  0  0  0
 32 33  1  0  0  0  0
 32 64  1  0  0  0  0
 32 65  1  0  0  0  0
 33 34  1  0  0  0  0
 33 66  1  0  0  0  0
 33 67  1  0  0  0  0
 34 35  1  0  0  0  0
 34 37  1  0  0  0  0
 35 36  1  0  0  0  0
 35 68  1  0  0  0  0
 35 69  1  0  0  0  0
 36 70  1  0  0  0  0
 36 71  1  0  0  0  0
 36 72  1  0  0  0  0
 37 38  1  0  0  0  0
 37 73  1  0  0  0  0
 37 74  1  0  0  0  0
 38 75  1  0  0  0  0
 38 76  1  0  0  0  0
 38 77  1  0  0  0  0
 39 40  1  0  0  0  0
 41 78  1  0  0  0  0
M  END
$$$$
