CHEMBL178455
 OpenBabel04072215363D

 52 55  0  0  0  0  0  0  0  0999 V2000
   10.2598    0.2031    0.8689 C   0  0  0  0  0  0  0  0  0  0  0  0
    9.6667    1.3034    1.5664 O   0  0  0  0  0  0  0  0  0  0  0  0
    8.8728    0.9704    2.6341 C   0  0  0  0  0  0  0  0  0  0  0  0
    9.1241   -0.1789    3.3967 C   0  0  0  0  0  0  0  0  0  0  0  0
    8.2765   -0.6091    4.4075 C   0  0  0  0  0  0  0  0  0  0  0  0
    8.5849   -1.7606    5.0255 N   0  0  0  0  0  0  0  0  0  0  0  0
    7.7583   -2.2068    5.9905 C   0  0  0  0  0  0  0  0  0  0  0  0
    6.6052   -1.5567    6.3666 C   0  0  0  0  0  0  0  0  0  0  0  0
    6.2527   -0.3977    5.6765 C   0  0  0  0  0  0  0  0  0  0  0  0
    5.0423    0.2329    5.9350 O   0  0  0  0  0  0  0  0  0  0  0  0
    3.8948   -0.5458    6.0112 C   0  0  0  0  0  0  0  0  0  0  0  0
    3.7332   -1.7601    5.3372 C   0  0  0  0  0  0  0  0  0  0  0  0
    2.5619   -2.5127    5.4857 C   0  0  0  0  0  0  0  0  0  0  0  0
    1.5020   -2.0464    6.2672 C   0  0  0  0  0  0  0  0  0  0  0  0
    0.2855   -2.7723    6.4005 N   0  0  0  0  0  0  0  0  0  0  0  0
    0.1919   -4.1420    6.2403 C   0  0  0  0  0  0  0  0  0  0  0  0
    1.1653   -4.8927    6.1969 O   0  0  0  0  0  0  0  0  0  0  0  0
   -1.1168   -4.5800    6.0833 N   0  0  0  0  0  0  0  0  0  0  0  0
   -1.3615   -5.9517    5.7911 C   0  0  0  0  0  0  0  0  0  0  0  0
   -0.7364   -6.9784    6.5104 C   0  0  0  0  0  0  0  0  0  0  0  0
   -0.8842   -8.3075    6.1098 C   0  0  0  0  0  0  0  0  0  0  0  0
   -1.6554   -8.6068    4.9917 C   0  0  0  0  0  0  0  0  0  0  0  0
   -1.7475   -9.8765    4.5757 F   0  0  0  0  0  0  0  0  0  0  0  0
   -2.3211   -7.6068    4.2929 C   0  0  0  0  0  0  0  0  0  0  0  0
   -2.1879   -6.2867    4.7134 C   0  0  0  0  0  0  0  0  0  0  0  0
   -2.8037   -5.3154    4.0217 F   0  0  0  0  0  0  0  0  0  0  0  0
    1.6458   -0.7997    6.8848 C   0  0  0  0  0  0  0  0  0  0  0  0
    0.6376   -0.3085    7.6233 F   0  0  0  0  0  0  0  0  0  0  0  0
    2.8303   -0.0558    6.7730 C   0  0  0  0  0  0  0  0  0  0  0  0
    7.1370    0.1494    4.7164 C   0  0  0  0  0  0  0  0  0  0  0  0
    6.9431    1.3739    4.0347 C   0  0  0  0  0  0  0  0  0  0  0  0
    7.7968    1.7902    2.9952 C   0  0  0  0  0  0  0  0  0  0  0  0
    7.4192    2.9955    2.4683 O   0  0  0  0  0  0  0  0  0  0  0  0
    7.9689    3.4180    1.2292 C   0  0  0  0  0  0  0  0  0  0  0  0
   10.3318    0.4685   -0.1894 H   0  0  0  0  0  0  0  0  0  0  0  0
    9.6673   -0.7187    0.9248 H   0  0  0  0  0  0  0  0  0  0  0  0
   11.2713    0.0283    1.2492 H   0  0  0  0  0  0  0  0  0  0  0  0
   10.0026   -0.7890    3.2021 H   0  0  0  0  0  0  0  0  0  0  0  0
    8.0461   -3.1506    6.4456 H   0  0  0  0  0  0  0  0  0  0  0  0
    5.9742   -1.9777    7.1417 H   0  0  0  0  0  0  0  0  0  0  0  0
    4.5120   -2.1565    4.6908 H   0  0  0  0  0  0  0  0  0  0  0  0
    2.5001   -3.4594    4.9548 H   0  0  0  0  0  0  0  0  0  0  0  0
   -0.4596   -2.3204    6.9161 H   0  0  0  0  0  0  0  0  0  0  0  0
   -1.7118   -3.9259    5.5859 H   0  0  0  0  0  0  0  0  0  0  0  0
   -0.1100   -6.7513    7.3698 H   0  0  0  0  0  0  0  0  0  0  0  0
   -0.3798   -9.1064    6.6468 H   0  0  0  0  0  0  0  0  0  0  0  0
   -2.9082   -7.8524    3.4162 H   0  0  0  0  0  0  0  0  0  0  0  0
    2.9106    0.8973    7.2864 H   0  0  0  0  0  0  0  0  0  0  0  0
    6.1071    2.0174    4.3069 H   0  0  0  0  0  0  0  0  0  0  0  0
    7.3491    4.2460    0.8670 H   0  0  0  0  0  0  0  0  0  0  0  0
    7.9217    2.6334    0.4685 H   0  0  0  0  0  0  0  0  0  0  0  0
    8.9851    3.8034    1.3587 H   0  0  0  0  0  0  0  0  0  0  0  0
  1  2  1  0  0  0  0
  1 35  1  0  0  0  0
  1 36  1  0  0  0  0
  1 37  1  0  0  0  0
  2  3  1  0  0  0  0
  3  4  1  0  0  0  0
  3 32  2  0  0  0  0
  4  5  2  0  0  0  0
  4 38  1  0  0  0  0
  5  6  1  0  0  0  0
  5 30  1  0  0  0  0
  6  7  2  0  0  0  0
  7  8  1  0  0  0  0
  7 39  1  0  0  0  0
  8  9  2  0  0  0  0
  8 40  1  0  0  0  0
  9 10  1  0  0  0  0
  9 30  1  0  0  0  0
 10 11  1  0  0  0  0
 11 12  1  0  0  0  0
 11 29  2  0  0  0  0
 12 13  2  0  0  0  0
 12 41  1  0  0  0  0
 13 14  1  0  0  0  0
 13 42  1  0  0  0  0
 14 15  1  0  0  0  0
 14 27  2  0  0  0  0
 15 16  1  0  0  0  0
 15 43  1  0  0  0  0
 16 17  2  0  0  0  0
 16 18  1  0  0  0  0
 18 19  1  0  0  0  0
 18 44  1  0  0  0  0
 19 20  1  0  0  0  0
 19 25  2  0  0  0  0
 20 21  2  0  0  0  0
 20 45  1  0  0  0  0
 21 22  1  0  0  0  0
 21 46  1  0  0  0  0
 22 23  1  0  0  0  0
 22 24  2  0  0  0  0
 24 25  1  0  0  0  0
 24 47  1  0  0  0  0
 25 26  1  0  0  0  0
 27 28  1  0  0  0  0
 27 29  1  0  0  0  0
 29 48  1  0  0  0  0
 30 31  2  0  0  0  0
 31 32  1  0  0  0  0
 31 49  1  0  0  0  0
 32 33  1  0  0  0  0
 33 34  1  0  0  0  0
 34 50  1  0  0  0  0
 34 51  1  0  0  0  0
 34 52  1  0  0  0  0
M  END
$$$$
