CHEMBL188149
 OpenBabel04072215363D

 64 66  0  0  0  0  0  0  0  0999 V2000
    3.6958   -0.6251    0.0799 C   0  0  0  0  0  0  0  0  0  0  0  0
    3.6684    0.8219   -0.3836 C   0  0  0  0  0  0  0  0  0  0  0  0
    4.3074    0.9867   -1.7622 C   0  0  0  0  0  0  0  0  0  0  0  0
    4.2520    2.4362   -2.2495 C   0  0  0  0  0  0  0  0  0  0  0  0
    5.0393    3.3335   -1.4183 N   0  0  0  0  0  0  0  0  0  0  0  0
    6.3924    3.4583   -1.6367 C   0  0  0  0  0  0  0  0  0  0  0  0
    6.9427    2.8194   -2.5275 O   0  0  0  0  0  0  0  0  0  0  0  0
    7.0076    4.3391   -0.7702 N   0  0  0  0  0  0  0  0  0  0  0  0
    8.3706    4.7298   -0.8704 C   0  0  0  0  0  0  0  0  0  0  0  0
    9.0967    4.5624   -2.0422 C   0  0  0  0  0  0  0  0  0  0  0  0
   10.4529    4.8911   -2.1054 C   0  0  0  0  0  0  0  0  0  0  0  0
   11.1391    5.4119   -0.9997 C   0  0  0  0  0  0  0  0  0  0  0  0
   12.5235    5.6386   -1.0946 N   0  0  0  0  0  0  0  0  0  0  0  0
   13.1368    6.7582   -0.3868 C   0  0  0  0  0  0  0  0  0  0  0  0
   13.4931    4.7556   -1.6522 C   0  0  0  0  0  0  0  0  0  0  0  0
   13.2205    3.3979   -1.6969 C   0  0  0  0  0  0  0  0  0  0  0  0
   14.1931    2.5830   -2.2025 C   0  0  0  0  0  0  0  0  0  0  0  0
   15.3516    3.0452   -2.6768 N   0  0  0  0  0  0  0  0  0  0  0  0
   15.5692    4.3693   -2.5957 C   0  0  0  0  0  0  0  0  0  0  0  0
   16.7978    4.8706   -3.0258 N   0  0  0  0  0  0  0  0  0  0  0  0
   17.6724    4.3049   -3.9623 C   0  0  0  0  0  0  0  0  0  0  0  0
   19.0528    4.4679   -3.8315 C   0  0  0  0  0  0  0  0  0  0  0  0
   19.9302    3.8306   -4.7152 C   0  0  0  0  0  0  0  0  0  0  0  0
   19.4361    3.0152   -5.7366 C   0  0  0  0  0  0  0  0  0  0  0  0
   18.0591    2.8341   -5.8893 C   0  0  0  0  0  0  0  0  0  0  0  0
   17.4874    1.9516   -6.9639 C   0  0  0  0  0  0  0  0  0  0  0  0
   17.2996    0.2638   -6.4052 S   0  0  0  0  0  0  0  0  0  0  0  0
   16.1665    0.3215   -5.0298 C   0  0  0  0  0  0  0  0  0  0  0  0
   16.6198   -0.4577   -7.4691 O   0  0  0  0  0  0  0  0  0  0  0  0
   18.5786   -0.2271   -5.9166 O   0  0  0  0  0  0  0  0  0  0  0  0
   17.1969    3.5006   -5.0074 C   0  0  0  0  0  0  0  0  0  0  0  0
   14.6865    5.2362   -2.0758 N   0  0  0  0  0  0  0  0  0  0  0  0
   10.3844    5.6406    0.1610 C   0  0  0  0  0  0  0  0  0  0  0  0
    9.0122    5.3060    0.2281 C   0  0  0  0  0  0  0  0  0  0  0  0
    3.2362   -0.7111    1.0694 H   0  0  0  0  0  0  0  0  0  0  0  0
    4.7235   -0.9958    0.1494 H   0  0  0  0  0  0  0  0  0  0  0  0
    3.1423   -1.2700   -0.6097 H   0  0  0  0  0  0  0  0  0  0  0  0
    4.1977    1.4381    0.3519 H   0  0  0  0  0  0  0  0  0  0  0  0
    2.6300    1.1713   -0.4146 H   0  0  0  0  0  0  0  0  0  0  0  0
    3.7801    0.3518   -2.4860 H   0  0  0  0  0  0  0  0  0  0  0  0
    5.3463    0.6364   -1.7312 H   0  0  0  0  0  0  0  0  0  0  0  0
    3.2237    2.8058   -2.2684 H   0  0  0  0  0  0  0  0  0  0  0  0
    4.6352    2.4784   -3.2763 H   0  0  0  0  0  0  0  0  0  0  0  0
    4.5804    3.8732   -0.7029 H   0  0  0  0  0  0  0  0  0  0  0  0
    6.5224    4.5570    0.0840 H   0  0  0  0  0  0  0  0  0  0  0  0
    8.6446    4.1738   -2.9504 H   0  0  0  0  0  0  0  0  0  0  0  0
   10.9729    4.7253   -3.0451 H   0  0  0  0  0  0  0  0  0  0  0  0
   12.4076    7.4140    0.0981 H   0  0  0  0  0  0  0  0  0  0  0  0
   13.7062    7.3938   -1.0765 H   0  0  0  0  0  0  0  0  0  0  0  0
   13.8188    6.3899    0.3901 H   0  0  0  0  0  0  0  0  0  0  0  0
   12.3037    2.9764   -1.3087 H   0  0  0  0  0  0  0  0  0  0  0  0
   14.0712    1.5055   -2.2250 H   0  0  0  0  0  0  0  0  0  0  0  0
   16.8997    5.8553   -2.8342 H   0  0  0  0  0  0  0  0  0  0  0  0
   19.4600    5.0530   -3.0105 H   0  0  0  0  0  0  0  0  0  0  0  0
   21.0036    3.9509   -4.5916 H   0  0  0  0  0  0  0  0  0  0  0  0
   20.1387    2.5152   -6.4028 H   0  0  0  0  0  0  0  0  0  0  0  0
   18.1399    1.9316   -7.8433 H   0  0  0  0  0  0  0  0  0  0  0  0
   16.5033    2.3035   -7.2868 H   0  0  0  0  0  0  0  0  0  0  0  0
   15.2510    0.8220   -5.3493 H   0  0  0  0  0  0  0  0  0  0  0  0
   16.6311    0.8348   -4.1900 H   0  0  0  0  0  0  0  0  0  0  0  0
   15.9369   -0.7080   -4.7415 H   0  0  0  0  0  0  0  0  0  0  0  0
   16.1218    3.3861   -5.1318 H   0  0  0  0  0  0  0  0  0  0  0  0
   10.8610    6.0318    1.0555 H   0  0  0  0  0  0  0  0  0  0  0  0
    8.4847    5.4656    1.1630 H   0  0  0  0  0  0  0  0  0  0  0  0
  1  2  1  0  0  0  0
  1 35  1  0  0  0  0
  1 36  1  0  0  0  0
  1 37  1  0  0  0  0
  2  3  1  0  0  0  0
  2 38  1  0  0  0  0
  2 39  1  0  0  0  0
  3  4  1  0  0  0  0
  3 40  1  0  0  0  0
  3 41  1  0  0  0  0
  4  5  1  0  0  0  0
  4 42  1  0  0  0  0
  4 43  1  0  0  0  0
  5  6  1  0  0  0  0
  5 44  1  0  0  0  0
  6  7  2  0  0  0  0
  6  8  1  0  0  0  0
  8  9  1  0  0  0  0
  8 45  1  0  0  0  0
  9 10  1  0  0  0  0
  9 34  2  0  0  0  0
 10 11  2  0  0  0  0
 10 46  1  0  0  0  0
 11 12  1  0  0  0  0
 11 47  1  0  0  0  0
 12 13  1  0  0  0  0
 12 33  2  0  0  0  0
 13 14  1  0  0  0  0
 13 15  1  0  0  0  0
 14 48  1  0  0  0  0
 14 49  1  0  0  0  0
 14 50  1  0  0  0  0
 15 16  1  0  0  0  0
 15 32  2  0  0  0  0
 16 17  2  0  0  0  0
 16 51  1  0  0  0  0
 17 18  1  0  0  0  0
 17 52  1  0  0  0  0
 18 19  2  0  0  0  0
 19 20  1  0  0  0  0
 19 32  1  0  0  0  0
 20 21  1  0  0  0  0
 20 53  1  0  0  0  0
 21 22  1  0  0  0  0
 21 31  2  0  0  0  0
 22 23  2  0  0  0  0
 22 54  1  0  0  0  0
 23 24  1  0  0  0  0
 23 55  1  0  0  0  0
 24 25  2  0  0  0  0
 24 56  1  0  0  0  0
 25 26  1  0  0  0  0
 25 31  1  0  0  0  0
 26 27  1  0  0  0  0
 26 57  1  0  0  0  0
 26 58  1  0  0  0  0
 27 28  1  0  0  0  0
 27 29  2  0  0  0  0
 27 30  2  0  0  0  0
 28 59  1  0  0  0  0
 28 60  1  0  0  0  0
 28 61  1  0  0  0  0
 31 62  1  0  0  0  0
 33 34  1  0  0  0  0
 33 63  1  0  0  0  0
 34 64  1  0  0  0  0
M  END
$$$$
