CHEMBL3982334
 OpenBabel04072215373D

 56 60  0  0  0  0  0  0  0  0999 V2000
    7.2740   -3.5695   -1.8332 C   0  0  0  0  0  0  0  0  0  0  0  0
    7.3362   -2.3448   -1.1027 O   0  0  0  0  0  0  0  0  0  0  0  0
    7.2212   -2.4813    0.2557 C   0  0  0  0  0  0  0  0  0  0  0  0
    7.6157   -3.6078    0.9633 C   0  0  0  0  0  0  0  0  0  0  0  0
    7.3830   -3.6559    2.3282 C   0  0  0  0  0  0  0  0  0  0  0  0
    7.7372   -4.7535    3.0103 F   0  0  0  0  0  0  0  0  0  0  0  0
    6.8204   -2.5806    3.0154 C   0  0  0  0  0  0  0  0  0  0  0  0
    6.5164   -1.3858    2.3522 C   0  0  0  0  0  0  0  0  0  0  0  0
    6.1045   -0.2076    3.0267 N   0  0  0  0  0  0  0  0  0  0  0  0
    5.3146   -0.3310    4.2759 C   0  0  0  0  0  0  0  0  0  0  0  0
    3.8329   -0.3622    3.9875 C   0  0  0  0  0  0  0  0  0  0  0  0
    2.8291   -0.3096    5.1196 C   0  0  0  0  0  0  0  0  0  0  0  0
    3.0092   -1.5769    4.3350 C   0  0  0  0  0  0  0  0  0  0  0  0
    6.5622    1.1093    2.7289 C   0  0  0  0  0  0  0  0  0  0  0  0
    5.7839    2.2420    2.9961 C   0  0  0  0  0  0  0  0  0  0  0  0
    6.2467    3.5250    2.6988 C   0  0  0  0  0  0  0  0  0  0  0  0
    7.4878    3.7253    2.1271 C   0  0  0  0  0  0  0  0  0  0  0  0
    7.8771    4.9842    1.8574 N   0  0  0  0  0  0  0  0  0  0  0  0
    9.1065    5.1221    1.3122 C   0  0  0  0  0  0  0  0  0  0  0  0
    9.9390    4.0473    1.0466 C   0  0  0  0  0  0  0  0  0  0  0  0
   11.2687    4.2338    0.4972 C   0  0  0  0  0  0  0  0  0  0  0  0
   11.9850    5.4104    0.1609 C   0  0  0  0  0  0  0  0  0  0  0  0
   13.2097    5.1580   -0.3063 N   0  0  0  0  0  0  0  0  0  0  0  0
   13.2882    3.8149   -0.2752 N   0  0  0  0  0  0  0  0  0  0  0  0
   14.5067    3.1521   -0.6930 C   0  0  0  0  0  0  0  0  0  0  0  0
   15.7158    3.5647    0.1391 C   0  0  0  0  0  0  0  0  0  0  0  0
   15.5782    3.1644    1.5002 O   0  0  0  0  0  0  0  0  0  0  0  0
   12.1500    3.2181    0.1954 C   0  0  0  0  0  0  0  0  0  0  0  0
    9.5417    2.7738    1.3126 N   0  0  0  0  0  0  0  0  0  0  0  0
    8.3127    2.6108    1.8541 C   0  0  0  0  0  0  0  0  0  0  0  0
    7.8317    1.3349    2.1573 C   0  0  0  0  0  0  0  0  0  0  0  0
    6.7011   -1.3781    0.9499 C   0  0  0  0  0  0  0  0  0  0  0  0
    7.1262   -3.3289   -2.8901 H   0  0  0  0  0  0  0  0  0  0  0  0
    6.4258   -4.1847   -1.5103 H   0  0  0  0  0  0  0  0  0  0  0  0
    8.2132   -4.1257   -1.7464 H   0  0  0  0  0  0  0  0  0  0  0  0
    8.1062   -4.4504    0.4922 H   0  0  0  0  0  0  0  0  0  0  0  0
    6.7007   -2.7016    4.0841 H   0  0  0  0  0  0  0  0  0  0  0  0
    5.5303    0.5056    4.9550 H   0  0  0  0  0  0  0  0  0  0  0  0
    5.5971   -1.2077    4.8652 H   0  0  0  0  0  0  0  0  0  0  0  0
    3.5689    0.1894    3.0922 H   0  0  0  0  0  0  0  0  0  0  0  0
    1.9101    0.2476    4.9664 H   0  0  0  0  0  0  0  0  0  0  0  0
    3.1820   -0.2938    6.1450 H   0  0  0  0  0  0  0  0  0  0  0  0
    2.2293   -1.8651    3.6386 H   0  0  0  0  0  0  0  0  0  0  0  0
    3.4857   -2.4117    4.8341 H   0  0  0  0  0  0  0  0  0  0  0  0
    4.7913    2.1571    3.4277 H   0  0  0  0  0  0  0  0  0  0  0  0
    5.6190    4.3848    2.9175 H   0  0  0  0  0  0  0  0  0  0  0  0
    9.3919    6.1454    1.1011 H   0  0  0  0  0  0  0  0  0  0  0  0
   11.6696    6.4404    0.2427 H   0  0  0  0  0  0  0  0  0  0  0  0
   14.6580    3.4011   -1.7490 H   0  0  0  0  0  0  0  0  0  0  0  0
   14.3387    2.0714   -0.6079 H   0  0  0  0  0  0  0  0  0  0  0  0
   15.8972    4.6442    0.1072 H   0  0  0  0  0  0  0  0  0  0  0  0
   16.6091    3.0676   -0.2531 H   0  0  0  0  0  0  0  0  0  0  0  0
   14.9311    3.7707    1.9065 H   0  0  0  0  0  0  0  0  0  0  0  0
   12.0621    2.1441    0.2802 H   0  0  0  0  0  0  0  0  0  0  0  0
    8.4933    0.4953    1.9531 H   0  0  0  0  0  0  0  0  0  0  0  0
    6.4302   -0.4929    0.3762 H   0  0  0  0  0  0  0  0  0  0  0  0
  1  2  1  0  0  0  0
  1 33  1  0  0  0  0
  1 34  1  0  0  0  0
  1 35  1  0  0  0  0
  2  3  1  0  0  0  0
  3  4  1  0  0  0  0
  3 32  2  0  0  0  0
  4  5  2  0  0  0  0
  4 36  1  0  0  0  0
  5  6  1  0  0  0  0
  5  7  1  0  0  0  0
  7  8  2  0  0  0  0
  7 37  1  0  0  0  0
  8  9  1  0  0  0  0
  8 32  1  0  0  0  0
  9 10  1  0  0  0  0
  9 14  1  0  0  0  0
 10 11  1  0  0  0  0
 10 38  1  0  0  0  0
 10 39  1  0  0  0  0
 11 12  1  0  0  0  0
 11 13  1  0  0  0  0
 11 40  1  0  0  0  0
 12 13  1  0  0  0  0
 12 41  1  0  0  0  0
 12 42  1  0  0  0  0
 13 43  1  0  0  0  0
 13 44  1  0  0  0  0
 14 15  1  0  0  0  0
 14 31  2  0  0  0  0
 15 16  2  0  0  0  0
 15 45  1  0  0  0  0
 16 17  1  0  0  0  0
 16 46  1  0  0  0  0
 17 18  1  0  0  0  0
 17 30  2  0  0  0  0
 18 19  2  0  0  0  0
 19 20  1  0  0  0  0
 19 47  1  0  0  0  0
 20 21  1  0  0  0  0
 20 29  2  0  0  0  0
 21 22  1  0  0  0  0
 21 28  2  0  0  0  0
 22 23  2  0  0  0  0
 22 48  1  0  0  0  0
 23 24  1  0  0  0  0
 24 25  1  0  0  0  0
 24 28  1  0  0  0  0
 25 26  1  0  0  0  0
 25 49  1  0  0  0  0
 25 50  1  0  0  0  0
 26 27  1  0  0  0  0
 26 51  1  0  0  0  0
 26 52  1  0  0  0  0
 27 53  1  0  0  0  0
 28 54  1  0  0  0  0
 29 30  1  0  0  0  0
 30 31  1  0  0  0  0
 31 55  1  0  0  0  0
 32 56  1  0  0  0  0
M  END
$$$$
