CHEMBL3656032
 OpenBabel04072215373D

 65 69  0  0  1  0  0  0  0  0999 V2000
   -4.5774    7.3927   -3.7949 C   0  0  0  0  0  0  0  0  0  0  0  0
   -3.8695    7.1406   -2.4949 C   0  0  0  0  0  0  0  0  0  0  0  0
   -2.8529    7.9992   -2.0663 C   0  0  0  0  0  0  0  0  0  0  0  0
   -2.1770    7.7383   -0.8776 C   0  0  0  0  0  0  0  0  0  0  0  0
   -2.5286    6.6376   -0.0968 C   0  0  0  0  0  0  0  0  0  0  0  0
   -1.7493    6.3761    0.9608 F   0  0  0  0  0  0  0  0  0  0  0  0
   -3.5782    5.7887   -0.4714 C   0  0  0  0  0  0  0  0  0  0  0  0
   -4.0304    4.6745    0.2828 N   0  0  0  0  0  0  0  0  0  0  0  0
   -3.8357    4.4805    1.6401 C   0  0  0  0  0  0  0  0  0  0  0  0
   -3.3577    5.2796    2.4352 O   0  0  0  0  0  0  0  0  0  0  0  0
   -4.2730    3.1659    2.1872 C   0  0  0  0  0  0  0  0  0  0  0  0
   -3.4975    2.5995    3.2112 C   0  0  0  0  0  0  0  0  0  0  0  0
   -3.8089    1.3380    3.7148 C   0  0  0  0  0  0  0  0  0  0  0  0
   -4.9154    0.6582    3.2224 C   0  0  0  0  0  0  0  0  0  0  0  0
   -5.1380   -0.5837    3.6749 F   0  0  0  0  0  0  0  0  0  0  0  0
   -5.7748    1.2657    2.3006 C   0  0  0  0  0  0  0  0  0  0  0  0
   -6.9507    0.7256    1.8319 O   0  0  0  0  0  0  0  0  0  0  0  0
   -7.6875   -0.1209    2.6275 C   0  0  0  0  0  0  0  0  0  0  0  0
   -7.8300   -0.0016    4.0064 C   0  0  0  0  0  0  0  0  0  0  0  0
   -8.5578   -0.9741    4.6710 C   0  0  0  0  0  0  0  0  0  0  0  0
   -9.1915   -1.9950    4.0546 N   0  0  0  0  0  0  0  0  0  0  0  0
   -9.0964   -2.0406    2.7041 C   0  0  0  0  0  0  0  0  0  0  0  0
   -9.8304   -3.1304    2.0800 C   0  0  0  0  0  0  0  0  0  0  0  0
  -10.0044   -3.4785    0.7541 C   0  0  0  0  0  0  0  0  0  0  0  0
  -10.8184   -4.6474    0.6820 C   0  0  0  0  0  0  0  0  0  0  0  0
  -11.2175   -5.3042   -0.5623 C   0  0  0  0  0  0  0  0  0  0  0  0
  -11.4198   -4.6111   -1.5625 O   0  0  0  0  0  0  0  0  0  0  0  0
  -11.3070   -6.6958   -0.6087 N   0  0  0  0  0  0  0  0  0  0  0  0
  -10.9285   -7.6270    0.4558 C   0  0  0  0  0  0  0  0  0  0  0  0
   -9.9511   -8.6937   -0.0341 C   0  0  0  0  0  0  0  0  0  0  0  0
  -10.4355   -9.3748   -1.3067 C   0  0  0  0  0  0  0  0  0  0  0  0
  -10.7689   -8.3429   -2.3849 C   0  0  3  0  0  0  0  0  0  0  0  0
  -11.2806   -9.0133   -3.5344 O   0  0  0  0  0  0  0  0  0  0  0  0
  -11.7761   -7.3159   -1.8471 C   0  0  0  0  0  0  0  0  0  0  0  0
  -11.1836   -4.9284    1.9879 C   0  0  0  0  0  0  0  0  0  0  0  0
  -10.5330   -4.0534    2.8184 N   0  0  0  0  0  0  0  0  0  0  0  0
   -8.3649   -1.1302    1.9578 C   0  0  0  0  0  0  0  0  0  0  0  0
   -5.4272    2.5063    1.7486 C   0  0  0  0  0  0  0  0  0  0  0  0
   -4.2195    6.0346   -1.6973 C   0  0  0  0  0  0  0  0  0  0  0  0
   -4.2024    8.2971   -4.2868 H   0  0  0  0  0  0  0  0  0  0  0  0
   -5.6501    7.5269   -3.6245 H   0  0  0  0  0  0  0  0  0  0  0  0
   -4.4201    6.5525   -4.4786 H   0  0  0  0  0  0  0  0  0  0  0  0
   -2.5673    8.8640   -2.6611 H   0  0  0  0  0  0  0  0  0  0  0  0
   -1.3585    8.3748   -0.5554 H   0  0  0  0  0  0  0  0  0  0  0  0
   -4.5992    4.0064   -0.2173 H   0  0  0  0  0  0  0  0  0  0  0  0
   -2.6353    3.1362    3.6050 H   0  0  0  0  0  0  0  0  0  0  0  0
   -3.1968    0.8793    4.4856 H   0  0  0  0  0  0  0  0  0  0  0  0
   -7.3611    0.7960    4.5692 H   0  0  0  0  0  0  0  0  0  0  0  0
   -8.6459   -0.9591    5.7538 H   0  0  0  0  0  0  0  0  0  0  0  0
   -9.5919   -2.9601   -0.1025 H   0  0  0  0  0  0  0  0  0  0  0  0
  -11.8522   -8.0899    0.8219 H   0  0  0  0  0  0  0  0  0  0  0  0
  -10.4474   -7.1263    1.2932 H   0  0  0  0  0  0  0  0  0  0  0  0
   -9.7985   -9.4393    0.7545 H   0  0  0  0  0  0  0  0  0  0  0  0
   -8.9775   -8.2257   -0.2263 H   0  0  0  0  0  0  0  0  0  0  0  0
  -11.3205   -9.9862   -1.0891 H   0  0  0  0  0  0  0  0  0  0  0  0
   -9.6733  -10.0702   -1.6767 H   0  0  0  0  0  0  0  0  0  0  0  0
   -9.8498   -7.8247   -2.6849 H   0  0  0  0  0  0  0  0  0  0  0  0
  -12.0851   -9.4915   -3.2760 H   0  0  0  0  0  0  0  0  0  0  0  0
  -12.7345   -7.8032   -1.6279 H   0  0  0  0  0  0  0  0  0  0  0  0
  -11.9903   -6.5760   -2.6255 H   0  0  0  0  0  0  0  0  0  0  0  0
  -11.8368   -5.6830    2.4043 H   0  0  0  0  0  0  0  0  0  0  0  0
  -10.5692   -4.0374    3.8307 H   0  0  0  0  0  0  0  0  0  0  0  0
   -8.3081   -1.2013    0.8784 H   0  0  0  0  0  0  0  0  0  0  0  0
   -6.0840    2.9555    1.0095 H   0  0  0  0  0  0  0  0  0  0  0  0
   -5.0232    5.3835   -2.0338 H   0  0  0  0  0  0  0  0  0  0  0  0
  1  2  1  0  0  0  0
  1 40  1  0  0  0  0
  1 41  1  0  0  0  0
  1 42  1  0  0  0  0
  2  3  1  0  0  0  0
  2 39  2  0  0  0  0
  3  4  2  0  0  0  0
  3 43  1  0  0  0  0
  4  5  1  0  0  0  0
  4 44  1  0  0  0  0
  5  6  1  0  0  0  0
  5  7  2  0  0  0  0
  7  8  1  0  0  0  0
  7 39  1  0  0  0  0
  8  9  1  0  0  0  0
  8 45  1  0  0  0  0
  9 10  2  0  0  0  0
  9 11  1  0  0  0  0
 11 12  1  0  0  0  0
 11 38  2  0  0  0  0
 12 13  2  0  0  0  0
 12 46  1  0  0  0  0
 13 14  1  0  0  0  0
 13 47  1  0  0  0  0
 14 15  1  0  0  0  0
 14 16  2  0  0  0  0
 16 17  1  0  0  0  0
 16 38  1  0  0  0  0
 17 18  1  0  0  0  0
 18 19  1  0  0  0  0
 18 37  2  0  0  0  0
 19 20  2  0  0  0  0
 19 48  1  0  0  0  0
 20 21  1  0  0  0  0
 20 49  1  0  0  0  0
 21 22  2  0  0  0  0
 22 23  1  0  0  0  0
 22 37  1  0  0  0  0
 23 24  2  0  0  0  0
 23 36  1  0  0  0  0
 24 25  1  0  0  0  0
 24 50  1  0  0  0  0
 25 26  1  0  0  0  0
 25 35  2  0  0  0  0
 26 27  2  0  0  0  0
 26 28  1  0  0  0  0
 28 29  1  0  0  0  0
 28 34  1  0  0  0  0
 29 30  1  0  0  0  0
 29 51  1  0  0  0  0
 29 52  1  0  0  0  0
 30 31  1  0  0  0  0
 30 53  1  0  0  0  0
 30 54  1  0  0  0  0
 31 32  1  0  0  0  0
 31 55  1  0  0  0  0
 31 56  1  0  0  0  0
 32 33  1  0  0  0  0
 32 34  1  0  0  0  0
 32 57  1  0  0  0  0
 33 58  1  0  0  0  0
 34 59  1  0  0  0  0
 34 60  1  0  0  0  0
 35 36  1  0  0  0  0
 35 61  1  0  0  0  0
 36 62  1  0  0  0  0
 37 63  1  0  0  0  0
 38 64  1  0  0  0  0
 39 65  1  0  0  0  0
M  END
$$$$
