CHEMBL480356
 OpenBabel04072215383D

 57 60  0  0  0  0  0  0  0  0999 V2000
   -1.1243    2.3863    0.6576 C   0  0  0  0  0  0  0  0  0  0  0  0
   -0.6075    1.0480    0.2387 C   0  0  0  0  0  0  0  0  0  0  0  0
   -1.3630   -0.0748    0.4748 N   0  0  0  0  0  0  0  0  0  0  0  0
   -0.7400   -1.1921   -0.0187 C   0  0  0  0  0  0  0  0  0  0  0  0
   -1.4203   -2.4394    0.0790 C   0  0  0  0  0  0  0  0  0  0  0  0
   -1.2580   -3.2907    1.1058 C   0  0  0  0  0  0  0  0  0  0  0  0
   -0.3691   -3.0656    2.3037 C   0  0  0  0  0  0  0  0  0  0  0  0
    0.4117   -2.1653    2.5300 O   0  0  0  0  0  0  0  0  0  0  0  0
   -0.6254   -4.1301    3.1484 N   0  0  0  0  0  0  0  0  0  0  0  0
   -1.5305   -5.0213    2.5892 C   0  0  0  0  0  0  0  0  0  0  0  0
   -1.9535   -6.1974    3.1702 C   0  0  0  0  0  0  0  0  0  0  0  0
   -2.8341   -6.9909    2.4364 C   0  0  0  0  0  0  0  0  0  0  0  0
   -3.2731   -6.6038    1.1458 C   0  0  0  0  0  0  0  0  0  0  0  0
   -4.1583   -7.5846    0.4230 C   0  0  0  0  0  0  0  0  0  0  0  0
   -4.4576   -8.6544    0.9513 O   0  0  0  0  0  0  0  0  0  0  0  0
   -4.5837   -7.2416   -0.8514 N   0  0  0  0  0  0  0  0  0  0  0  0
   -5.4513   -8.1564   -1.4759 N   0  0  0  0  0  0  0  0  0  0  0  0
   -5.3620   -8.2514   -2.8847 C   0  0  0  0  0  0  0  0  0  0  0  0
   -4.5525   -7.4295   -3.6827 C   0  0  0  0  0  0  0  0  0  0  0  0
   -4.6229   -7.4887   -5.0814 C   0  0  0  0  0  0  0  0  0  0  0  0
   -5.5063   -8.3678   -5.7021 C   0  0  0  0  0  0  0  0  0  0  0  0
   -6.3077   -9.1998   -4.9283 C   0  0  0  0  0  0  0  0  0  0  0  0
   -6.2353   -9.1383   -3.5337 C   0  0  0  0  0  0  0  0  0  0  0  0
   -2.8307   -5.3773    0.5870 C   0  0  0  0  0  0  0  0  0  0  0  0
   -1.9534   -4.5917    1.3299 C   0  0  0  0  0  0  0  0  0  0  0  0
    0.4689   -0.7848   -0.5562 C   0  0  0  0  0  0  0  0  0  0  0  0
    1.4837   -1.6646   -1.1957 C   0  0  0  0  0  0  0  0  0  0  0  0
    0.5580    0.6534   -0.4055 C   0  0  0  0  0  0  0  0  0  0  0  0
    1.7121    1.5275   -0.8591 C   0  0  0  0  0  0  0  0  0  0  0  0
    1.9498    1.4963   -2.3720 C   0  0  0  0  0  0  0  0  0  0  0  0
    3.0977    2.3631   -2.8015 C   0  0  0  0  0  0  0  0  0  0  0  0
    3.8008    3.0359   -2.0760 O   0  0  0  0  0  0  0  0  0  0  0  0
    3.3199    2.2913   -4.1493 O   0  0  0  0  0  0  0  0  0  0  0  0
   -2.1039    2.3041    1.1391 H   0  0  0  0  0  0  0  0  0  0  0  0
   -1.2434    3.0322   -0.2173 H   0  0  0  0  0  0  0  0  0  0  0  0
   -0.4482    2.8740    1.3673 H   0  0  0  0  0  0  0  0  0  0  0  0
   -2.2717   -0.0719    0.9217 H   0  0  0  0  0  0  0  0  0  0  0  0
   -2.1020   -2.6753   -0.7317 H   0  0  0  0  0  0  0  0  0  0  0  0
   -0.1637   -4.2284    4.0404 H   0  0  0  0  0  0  0  0  0  0  0  0
   -1.6109   -6.5043    4.1545 H   0  0  0  0  0  0  0  0  0  0  0  0
   -3.1684   -7.9348    2.8698 H   0  0  0  0  0  0  0  0  0  0  0  0
   -4.8151   -6.2774   -1.0521 H   0  0  0  0  0  0  0  0  0  0  0  0
   -5.4468   -9.0794   -1.0184 H   0  0  0  0  0  0  0  0  0  0  0  0
   -3.8431   -6.7424   -3.2352 H   0  0  0  0  0  0  0  0  0  0  0  0
   -3.9887   -6.8447   -5.6850 H   0  0  0  0  0  0  0  0  0  0  0  0
   -5.5714   -8.4037   -6.7871 H   0  0  0  0  0  0  0  0  0  0  0  0
   -7.0001   -9.8898   -5.4047 H   0  0  0  0  0  0  0  0  0  0  0  0
   -6.8943   -9.7731   -2.9450 H   0  0  0  0  0  0  0  0  0  0  0  0
   -3.1408   -5.0609   -0.3997 H   0  0  0  0  0  0  0  0  0  0  0  0
    1.1623   -2.7081   -1.2129 H   0  0  0  0  0  0  0  0  0  0  0  0
    2.4429   -1.6009   -0.6739 H   0  0  0  0  0  0  0  0  0  0  0  0
    1.6299   -1.3739   -2.2388 H   0  0  0  0  0  0  0  0  0  0  0  0
    2.6253    1.2078   -0.3384 H   0  0  0  0  0  0  0  0  0  0  0  0
    1.5335    2.5658   -0.5497 H   0  0  0  0  0  0  0  0  0  0  0  0
    1.0522    1.8329   -2.9030 H   0  0  0  0  0  0  0  0  0  0  0  0
    2.1963    0.4885   -2.7045 H   0  0  0  0  0  0  0  0  0  0  0  0
    2.6753    1.7154   -4.6131 H   0  0  0  0  0  0  0  0  0  0  0  0
  1  2  1  0  0  0  0
  1 34  1  0  0  0  0
  1 35  1  0  0  0  0
  1 36  1  0  0  0  0
  2  3  1  0  0  0  0
  2 28  2  0  0  0  0
  3  4  1  0  0  0  0
  3 37  1  0  0  0  0
  4  5  1  0  0  0  0
  4 26  2  0  0  0  0
  5  6  2  0  0  0  0
  5 38  1  0  0  0  0
  6  7  1  0  0  0  0
  6 25  1  0  0  0  0
  7  8  2  0  0  0  0
  7  9  1  0  0  0  0
  9 10  1  0  0  0  0
  9 39  1  0  0  0  0
 10 11  1  0  0  0  0
 10 25  2  0  0  0  0
 11 12  2  0  0  0  0
 11 40  1  0  0  0  0
 12 13  1  0  0  0  0
 12 41  1  0  0  0  0
 13 14  1  0  0  0  0
 13 24  2  0  0  0  0
 14 15  2  0  0  0  0
 14 16  1  0  0  0  0
 16 17  1  0  0  0  0
 16 42  1  0  0  0  0
 17 18  1  0  0  0  0
 17 43  1  0  0  0  0
 18 19  1  0  0  0  0
 18 23  2  0  0  0  0
 19 20  2  0  0  0  0
 19 44  1  0  0  0  0
 20 21  1  0  0  0  0
 20 45  1  0  0  0  0
 21 22  2  0  0  0  0
 21 46  1  0  0  0  0
 22 23  1  0  0  0  0
 22 47  1  0  0  0  0
 23 48  1  0  0  0  0
 24 25  1  0  0  0  0
 24 49  1  0  0  0  0
 26 27  1  0  0  0  0
 26 28  1  0  0  0  0
 27 50  1  0  0  0  0
 27 51  1  0  0  0  0
 27 52  1  0  0  0  0
 28 29  1  0  0  0  0
 29 30  1  0  0  0  0
 29 53  1  0  0  0  0
 29 54  1  0  0  0  0
 30 31  1  0  0  0  0
 30 55  1  0  0  0  0
 30 56  1  0  0  0  0
 31 32  2  0  0  0  0
 31 33  1  0  0  0  0
 33 57  1  0  0  0  0
M  END
$$$$
