CHEMBL3393897
 OpenBabel04072215363D

 49 52  0  0  0  0  0  0  0  0999 V2000
    1.0192   -0.2333   -0.1657 O   0  0  0  0  0  0  0  0  0  0  0  0
    2.2270   -0.0892    0.0039 C   0  0  0  0  0  0  0  0  0  0  0  0
    2.8836    1.1075    0.2599 N   0  0  0  0  0  0  0  0  0  0  0  0
    2.2173    2.3549    0.3859 C   0  0  0  0  0  0  0  0  0  0  0  0
    0.8504    2.4408    0.6454 C   0  0  0  0  0  0  0  0  0  0  0  0
    0.2000    3.6720    0.6847 C   0  0  0  0  0  0  0  0  0  0  0  0
    0.9065    4.8521    0.4677 C   0  0  0  0  0  0  0  0  0  0  0  0
   -0.0272    6.3020    0.5144 Cl  0  0  0  0  0  0  0  0  0  0  0  0
    2.2858    4.8132    0.2315 C   0  0  0  0  0  0  0  0  0  0  0  0
    3.1133    6.0481   -0.0258 C   0  0  0  0  0  0  0  0  0  0  0  0
    2.4417    7.2276   -0.0785 F   0  0  0  0  0  0  0  0  0  0  0  0
    4.0747    6.2207    0.9259 F   0  0  0  0  0  0  0  0  0  0  0  0
    3.7876    5.9703   -1.2105 F   0  0  0  0  0  0  0  0  0  0  0  0
    2.9371    3.5471    0.2199 C   0  0  0  0  0  0  0  0  0  0  0  0
    3.0466   -1.3106   -0.1616 C   0  0  0  0  0  0  0  0  0  0  0  0
    2.6056   -2.2557   -1.0942 C   0  0  0  0  0  0  0  0  0  0  0  0
    3.2539   -3.4764   -1.2183 C   0  0  0  0  0  0  0  0  0  0  0  0
    4.3454   -3.7914   -0.3997 C   0  0  0  0  0  0  0  0  0  0  0  0
    5.0243   -5.3597   -0.6519 Cl  0  0  0  0  0  0  0  0  0  0  0  0
    4.8014   -2.8608    0.5528 C   0  0  0  0  0  0  0  0  0  0  0  0
    5.9252   -3.0684    1.5222 C   0  0  0  0  0  0  0  0  0  0  0  0
    6.1657   -2.1385    2.2926 O   0  0  0  0  0  0  0  0  0  0  0  0
    6.6511   -4.2439    1.4734 N   0  0  0  0  0  0  0  0  0  0  0  0
    7.7477   -4.5721    2.3019 C   0  0  0  0  0  0  0  0  0  0  0  0
    8.0189   -3.9254    3.5031 C   0  0  0  0  0  0  0  0  0  0  0  0
    9.1309   -4.2930    4.2538 C   0  0  0  0  0  0  0  0  0  0  0  0
    9.9629   -5.2942    3.7751 C   0  0  0  0  0  0  0  0  0  0  0  0
   11.1626   -5.6687    4.5163 C   0  0  0  0  0  0  0  0  0  0  0  0
   11.5594   -5.1906    5.6847 N   0  0  0  0  0  0  0  0  0  0  0  0
   12.7539   -5.8010    5.9591 C   0  0  0  0  0  0  0  0  0  0  0  0
   13.1012   -6.6626    4.9482 C   0  0  0  0  0  0  0  0  0  0  0  0
   12.0716   -6.5896    4.0523 N   0  0  0  0  0  0  0  0  0  0  0  0
    9.7306   -5.9643    2.6163 N   0  0  0  0  0  0  0  0  0  0  0  0
    8.6194   -5.5958    1.9243 C   0  0  0  0  0  0  0  0  0  0  0  0
    4.1401   -1.6097    0.6526 C   0  0  0  0  0  0  0  0  0  0  0  0
    3.8928    1.1266    0.1762 H   0  0  0  0  0  0  0  0  0  0  0  0
    0.2433    1.5597    0.8285 H   0  0  0  0  0  0  0  0  0  0  0  0
   -0.8705    3.6906    0.8748 H   0  0  0  0  0  0  0  0  0  0  0  0
    4.0117    3.5120    0.0364 H   0  0  0  0  0  0  0  0  0  0  0  0
    1.7303   -2.0441   -1.7102 H   0  0  0  0  0  0  0  0  0  0  0  0
    2.8811   -4.1956   -1.9458 H   0  0  0  0  0  0  0  0  0  0  0  0
    6.4455   -4.8958    0.7245 H   0  0  0  0  0  0  0  0  0  0  0  0
    7.3764   -3.1462    3.8981 H   0  0  0  0  0  0  0  0  0  0  0  0
    9.3448   -3.7993    5.1971 H   0  0  0  0  0  0  0  0  0  0  0  0
   13.3006   -5.5779    6.8661 H   0  0  0  0  0  0  0  0  0  0  0  0
   13.9610   -7.2982    4.7946 H   0  0  0  0  0  0  0  0  0  0  0  0
   11.9717   -7.0882    3.1784 H   0  0  0  0  0  0  0  0  0  0  0  0
    8.4644   -6.1558    1.0055 H   0  0  0  0  0  0  0  0  0  0  0  0
    4.4477   -0.8909    1.4111 H   0  0  0  0  0  0  0  0  0  0  0  0
  1  2  2  0  0  0  0
  2  3  1  0  0  0  0
  2 15  1  0  0  0  0
  3  4  1  0  0  0  0
  3 36  1  0  0  0  0
  4  5  1  0  0  0  0
  4 14  2  0  0  0  0
  5  6  2  0  0  0  0
  5 37  1  0  0  0  0
  6  7  1  0  0  0  0
  6 38  1  0  0  0  0
  7  8  1  0  0  0  0
  7  9  2  0  0  0  0
  9 10  1  0  0  0  0
  9 14  1  0  0  0  0
 10 11  1  0  0  0  0
 10 12  1  0  0  0  0
 10 13  1  0  0  0  0
 14 39  1  0  0  0  0
 15 16  1  0  0  0  0
 15 35  2  0  0  0  0
 16 17  2  0  0  0  0
 16 40  1  0  0  0  0
 17 18  1  0  0  0  0
 17 41  1  0  0  0  0
 18 19  1  0  0  0  0
 18 20  2  0  0  0  0
 20 21  1  0  0  0  0
 20 35  1  0  0  0  0
 21 22  2  0  0  0  0
 21 23  1  0  0  0  0
 23 24  1  0  0  0  0
 23 42  1  0  0  0  0
 24 25  1  0  0  0  0
 24 34  2  0  0  0  0
 25 26  2  0  0  0  0
 25 43  1  0  0  0  0
 26 27  1  0  0  0  0
 26 44  1  0  0  0  0
 27 28  1  0  0  0  0
 27 33  2  0  0  0  0
 28 29  2  0  0  0  0
 28 32  1  0  0  0  0
 29 30  1  0  0  0  0
 30 31  2  0  0  0  0
 30 45  1  0  0  0  0
 31 32  1  0  0  0  0
 31 46  1  0  0  0  0
 32 47  1  0  0  0  0
 33 34  1  0  0  0  0
 34 48  1  0  0  0  0
 35 49  1  0  0  0  0
M  END
$$$$
