CHEMBL404367
 OpenBabel04072215373D

 48 51  0  0  0  0  0  0  0  0999 V2000
    2.3495   -0.4526    1.6681 C   0  0  0  0  0  0  0  0  0  0  0  0
    0.8547   -0.3300    1.6151 C   0  0  0  0  0  0  0  0  0  0  0  0
    0.2420    0.8503    2.0467 C   0  0  0  0  0  0  0  0  0  0  0  0
   -1.1401    0.9715    2.0080 C   0  0  0  0  0  0  0  0  0  0  0  0
   -1.9211   -0.0843    1.5384 C   0  0  0  0  0  0  0  0  0  0  0  0
   -1.3416   -1.2745    1.0866 C   0  0  0  0  0  0  0  0  0  0  0  0
   -2.1026   -2.3721    0.6019 N   0  0  0  0  0  0  0  0  0  0  0  0
   -3.4699   -2.3710    0.3855 C   0  0  0  0  0  0  0  0  0  0  0  0
   -4.1947   -1.3881    0.4964 O   0  0  0  0  0  0  0  0  0  0  0  0
   -3.9586   -3.6349    0.0669 N   0  0  0  0  0  0  0  0  0  0  0  0
   -5.3483   -3.8191   -0.1540 C   0  0  0  0  0  0  0  0  0  0  0  0
   -6.0962   -2.9031   -0.8939 C   0  0  0  0  0  0  0  0  0  0  0  0
   -7.4930   -2.9832   -0.9253 C   0  0  0  0  0  0  0  0  0  0  0  0
   -8.1875   -3.9973   -0.2422 C   0  0  0  0  0  0  0  0  0  0  0  0
   -9.6646   -3.9895   -0.1788 C   0  0  0  0  0  0  0  0  0  0  0  0
  -10.4500   -3.6027   -1.2778 C   0  0  0  0  0  0  0  0  0  0  0  0
  -11.8024   -3.5245   -1.3228 N   0  0  0  0  0  0  0  0  0  0  0  0
  -12.5018   -3.8516   -0.2221 C   0  0  0  0  0  0  0  0  0  0  0  0
  -11.8179   -4.2485    0.9163 C   0  0  0  0  0  0  0  0  0  0  0  0
  -10.4190   -4.3159    0.9835 C   0  0  0  0  0  0  0  0  0  0  0  0
  -10.1803   -4.7073    2.3429 C   0  0  0  0  0  0  0  0  0  0  0  0
   -8.9875   -4.8460    2.9438 N   0  0  0  0  0  0  0  0  0  0  0  0
  -11.3045   -4.9214    3.0234 N   0  0  0  0  0  0  0  0  0  0  0  0
  -12.2746   -4.6341    2.1477 N   0  0  0  0  0  0  0  0  0  0  0  0
  -13.6515   -4.7240    2.5747 C   0  0  0  0  0  0  0  0  0  0  0  0
   -7.4024   -4.9913    0.3676 C   0  0  0  0  0  0  0  0  0  0  0  0
   -6.0013   -4.8998    0.4305 C   0  0  0  0  0  0  0  0  0  0  0  0
    0.0572   -1.3883    1.1339 C   0  0  0  0  0  0  0  0  0  0  0  0
    2.8084    0.4495    2.0903 H   0  0  0  0  0  0  0  0  0  0  0  0
    2.7558   -0.5901    0.6617 H   0  0  0  0  0  0  0  0  0  0  0  0
    2.6409   -1.2962    2.3010 H   0  0  0  0  0  0  0  0  0  0  0  0
    0.8339    1.6840    2.4171 H   0  0  0  0  0  0  0  0  0  0  0  0
   -1.6218    1.8861    2.3432 H   0  0  0  0  0  0  0  0  0  0  0  0
   -2.9942    0.0694    1.5451 H   0  0  0  0  0  0  0  0  0  0  0  0
   -1.5878   -3.1689    0.2599 H   0  0  0  0  0  0  0  0  0  0  0  0
   -3.4700   -4.3987    0.5103 H   0  0  0  0  0  0  0  0  0  0  0  0
   -5.6075   -2.0830   -1.4164 H   0  0  0  0  0  0  0  0  0  0  0  0
   -8.0262   -2.2002   -1.4617 H   0  0  0  0  0  0  0  0  0  0  0  0
   -9.9798   -3.3240   -2.2196 H   0  0  0  0  0  0  0  0  0  0  0  0
  -13.5812   -3.7835   -0.2865 H   0  0  0  0  0  0  0  0  0  0  0  0
   -8.2388   -4.2191    2.6674 H   0  0  0  0  0  0  0  0  0  0  0  0
   -9.0405   -4.9665    3.9508 H   0  0  0  0  0  0  0  0  0  0  0  0
  -13.6929   -5.0709    3.6115 H   0  0  0  0  0  0  0  0  0  0  0  0
  -14.1666   -5.4356    1.9258 H   0  0  0  0  0  0  0  0  0  0  0  0
  -14.1019   -3.7315    2.4984 H   0  0  0  0  0  0  0  0  0  0  0  0
   -7.8815   -5.8377    0.8577 H   0  0  0  0  0  0  0  0  0  0  0  0
   -5.4561   -5.6383    1.0109 H   0  0  0  0  0  0  0  0  0  0  0  0
    0.5468   -2.2995    0.7986 H   0  0  0  0  0  0  0  0  0  0  0  0
  1  2  1  0  0  0  0
  1 29  1  0  0  0  0
  1 30  1  0  0  0  0
  1 31  1  0  0  0  0
  2  3  1  0  0  0  0
  2 28  2  0  0  0  0
  3  4  2  0  0  0  0
  3 32  1  0  0  0  0
  4  5  1  0  0  0  0
  4 33  1  0  0  0  0
  5  6  2  0  0  0  0
  5 34  1  0  0  0  0
  6  7  1  0  0  0  0
  6 28  1  0  0  0  0
  7  8  1  0  0  0  0
  7 35  1  0  0  0  0
  8  9  2  0  0  0  0
  8 10  1  0  0  0  0
 10 11  1  0  0  0  0
 10 36  1  0  0  0  0
 11 12  1  0  0  0  0
 11 27  2  0  0  0  0
 12 13  2  0  0  0  0
 12 37  1  0  0  0  0
 13 14  1  0  0  0  0
 13 38  1  0  0  0  0
 14 15  1  0  0  0  0
 14 26  2  0  0  0  0
 15 16  1  0  0  0  0
 15 20  2  0  0  0  0
 16 17  2  0  0  0  0
 16 39  1  0  0  0  0
 17 18  1  0  0  0  0
 18 19  2  0  0  0  0
 18 40  1  0  0  0  0
 19 20  1  0  0  0  0
 19 24  1  0  0  0  0
 20 21  1  0  0  0  0
 21 22  1  0  0  0  0
 21 23  2  0  0  0  0
 22 41  1  0  0  0  0
 22 42  1  0  0  0  0
 23 24  1  0  0  0  0
 24 25  1  0  0  0  0
 25 43  1  0  0  0  0
 25 44  1  0  0  0  0
 25 45  1  0  0  0  0
 26 27  1  0  0  0  0
 26 46  1  0  0  0  0
 27 47  1  0  0  0  0
 28 48  1  0  0  0  0
M  END
$$$$
