CHEMBL100775
 OpenBabel04072215353D

 22 23  0  0  0  0  0  0  0  0999 V2000
    2.2207   -0.5271   -0.6229 C   0  0  0  0  0  0  0  0  0  0  0  0
    0.7946   -0.4022   -0.2472 C   0  0  0  0  0  0  0  0  0  0  0  0
    0.0004   -1.2998    0.4280 C   0  0  0  0  0  0  0  0  0  0  0  0
   -1.3038   -0.9130    0.6078 N   0  0  0  0  0  0  0  0  0  0  0  0
   -1.5350    0.2636    0.0626 C   0  0  0  0  0  0  0  0  0  0  0  0
   -2.7307    0.8924   -0.0043 N   0  0  0  0  0  0  0  0  0  0  0  0
   -3.9827    0.2776    0.0683 C   0  0  0  0  0  0  0  0  0  0  0  0
   -4.2145   -0.9294    0.7262 C   0  0  0  0  0  0  0  0  0  0  0  0
   -5.4694   -1.5290    0.6637 C   0  0  0  0  0  0  0  0  0  0  0  0
   -6.4847   -0.8925   -0.0274 C   0  0  0  0  0  0  0  0  0  0  0  0
   -6.1996    0.3295   -0.6095 C   0  0  0  0  0  0  0  0  0  0  0  0
   -4.9828    0.9232   -0.5739 N   0  0  0  0  0  0  0  0  0  0  0  0
   -0.1283    0.9891   -0.6383 S   0  0  0  0  0  0  0  0  0  0  0  0
    2.6142   -1.5056   -0.3270 H   0  0  0  0  0  0  0  0  0  0  0  0
    2.8231    0.2407   -0.1281 H   0  0  0  0  0  0  0  0  0  0  0  0
    2.3484   -0.4330   -1.7067 H   0  0  0  0  0  0  0  0  0  0  0  0
    0.3172   -2.2639    0.8048 H   0  0  0  0  0  0  0  0  0  0  0  0
   -2.8052    1.7289   -0.5682 H   0  0  0  0  0  0  0  0  0  0  0  0
   -3.4302   -1.4292    1.2823 H   0  0  0  0  0  0  0  0  0  0  0  0
   -5.6347   -2.4878    1.1453 H   0  0  0  0  0  0  0  0  0  0  0  0
   -7.4702   -1.3350   -0.1071 H   0  0  0  0  0  0  0  0  0  0  0  0
   -6.9651    0.8795   -1.1488 H   0  0  0  0  0  0  0  0  0  0  0  0
  1  2  1  0  0  0  0
  1 14  1  0  0  0  0
  1 15  1  0  0  0  0
  1 16  1  0  0  0  0
  2  3  2  0  0  0  0
  2 13  1  0  0  0  0
  3  4  1  0  0  0  0
  3 17  1  0  0  0  0
  4  5  2  0  0  0  0
  5  6  1  0  0  0  0
  5 13  1  0  0  0  0
  6  7  1  0  0  0  0
  6 18  1  0  0  0  0
  7  8  1  0  0  0  0
  7 12  2  0  0  0  0
  8  9  2  0  0  0  0
  8 19  1  0  0  0  0
  9 10  1  0  0  0  0
  9 20  1  0  0  0  0
 10 11  2  0  0  0  0
 10 21  1  0  0  0  0
 11 12  1  0  0  0  0
 11 22  1  0  0  0  0
M  END
$$$$
