CHEMBL508928
 OpenBabel04072215383D

 55 59  0  0  0  0  0  0  0  0999 V2000
    2.3727   -0.4154    1.4674 C   0  0  0  0  0  0  0  0  0  0  0  0
    0.8758   -0.3030    1.4452 C   0  0  0  0  0  0  0  0  0  0  0  0
    0.2685    0.8849    1.8645 C   0  0  0  0  0  0  0  0  0  0  0  0
   -1.1144    1.0006    1.8528 C   0  0  0  0  0  0  0  0  0  0  0  0
   -1.9016   -0.0676    1.4218 C   0  0  0  0  0  0  0  0  0  0  0  0
   -1.3272   -1.2649    0.9834 C   0  0  0  0  0  0  0  0  0  0  0  0
   -2.0989   -2.3737    0.5357 N   0  0  0  0  0  0  0  0  0  0  0  0
   -3.4745   -2.3778    0.3614 C   0  0  0  0  0  0  0  0  0  0  0  0
   -4.2051   -1.4013    0.4931 O   0  0  0  0  0  0  0  0  0  0  0  0
   -3.9712   -3.6450    0.0589 N   0  0  0  0  0  0  0  0  0  0  0  0
   -5.3724   -3.8118   -0.1059 C   0  0  0  0  0  0  0  0  0  0  0  0
   -6.1156   -2.9448   -0.9167 C   0  0  0  0  0  0  0  0  0  0  0  0
   -7.5109   -3.0209   -0.9526 C   0  0  0  0  0  0  0  0  0  0  0  0
   -8.1813   -3.9620   -0.1669 C   0  0  0  0  0  0  0  0  0  0  0  0
   -9.6485   -3.9755   -0.1188 C   0  0  0  0  0  0  0  0  0  0  0  0
  -10.3739   -3.1427    0.8948 C   0  0  0  0  0  0  0  0  0  0  0  0
  -11.6597   -3.0642    1.0676 N   0  0  0  0  0  0  0  0  0  0  0  0
  -12.4222   -3.8277    0.2260 C   0  0  0  0  0  0  0  0  0  0  0  0
  -13.7867   -4.0206    0.1224 C   0  0  0  0  0  0  0  0  0  0  0  0
  -14.8662   -3.4466    0.9059 C   0  0  0  0  0  0  0  0  0  0  0  0
  -14.7364   -2.5105    1.9538 C   0  0  0  0  0  0  0  0  0  0  0  0
  -15.9177   -2.1816    2.4915 N   0  0  0  0  0  0  0  0  0  0  0  0
  -16.7985   -2.9088    1.7867 N   0  0  0  0  0  0  0  0  0  0  0  0
  -18.2062   -2.8407    2.1000 C   0  0  0  0  0  0  0  0  0  0  0  0
  -16.2214   -3.6777    0.8164 C   0  0  0  0  0  0  0  0  0  0  0  0
  -13.9457   -4.9410   -0.9306 C   0  0  0  0  0  0  0  0  0  0  0  0
  -12.7881   -5.3321   -1.4629 N   0  0  0  0  0  0  0  0  0  0  0  0
  -11.8429   -4.6250   -0.7721 N   0  0  0  0  0  0  0  0  0  0  0  0
  -10.4341   -4.6897   -0.9556 C   0  0  0  0  0  0  0  0  0  0  0  0
   -9.9700   -5.5100   -1.9837 N   0  0  0  0  0  0  0  0  0  0  0  0
   -7.4340   -4.8667    0.6009 C   0  0  0  0  0  0  0  0  0  0  0  0
   -6.0331   -4.8089    0.6127 C   0  0  0  0  0  0  0  0  0  0  0  0
    0.0709   -1.3743    1.0044 C   0  0  0  0  0  0  0  0  0  0  0  0
    2.8341    0.5018    1.8525 H   0  0  0  0  0  0  0  0  0  0  0  0
    2.7573   -0.5791    0.4564 H   0  0  0  0  0  0  0  0  0  0  0  0
    2.6840   -1.2381    2.1180 H   0  0  0  0  0  0  0  0  0  0  0  0
    0.8649    1.7278    2.2047 H   0  0  0  0  0  0  0  0  0  0  0  0
   -1.5927    1.9206    2.1775 H   0  0  0  0  0  0  0  0  0  0  0  0
   -2.9746    0.0855    1.4468 H   0  0  0  0  0  0  0  0  0  0  0  0
   -1.5921   -3.1776    0.1973 H   0  0  0  0  0  0  0  0  0  0  0  0
   -3.4841   -4.3972    0.5243 H   0  0  0  0  0  0  0  0  0  0  0  0
   -5.6158   -2.1764   -1.5039 H   0  0  0  0  0  0  0  0  0  0  0  0
   -8.0635   -2.3172   -1.5722 H   0  0  0  0  0  0  0  0  0  0  0  0
   -9.7269   -2.5378    1.5529 H   0  0  0  0  0  0  0  0  0  0  0  0
  -13.8331   -2.0558    2.3481 H   0  0  0  0  0  0  0  0  0  0  0  0
  -18.3684   -2.1232    2.9086 H   0  0  0  0  0  0  0  0  0  0  0  0
  -18.5330   -3.8350    2.4143 H   0  0  0  0  0  0  0  0  0  0  0  0
  -18.7462   -2.5246    1.2045 H   0  0  0  0  0  0  0  0  0  0  0  0
  -16.8128   -4.3125    0.1726 H   0  0  0  0  0  0  0  0  0  0  0  0
  -14.8641   -5.3616   -1.3243 H   0  0  0  0  0  0  0  0  0  0  0  0
  -10.6770   -6.1941   -2.2657 H   0  0  0  0  0  0  0  0  0  0  0  0
   -9.0477   -5.9038   -1.8251 H   0  0  0  0  0  0  0  0  0  0  0  0
   -7.9379   -5.6002    1.2271 H   0  0  0  0  0  0  0  0  0  0  0  0
   -5.4834   -5.4896    1.2560 H   0  0  0  0  0  0  0  0  0  0  0  0
    0.5566   -2.2926    0.6802 H   0  0  0  0  0  0  0  0  0  0  0  0
  1  2  1  0  0  0  0
  1 34  1  0  0  0  0
  1 35  1  0  0  0  0
  1 36  1  0  0  0  0
  2  3  1  0  0  0  0
  2 33  2  0  0  0  0
  3  4  2  0  0  0  0
  3 37  1  0  0  0  0
  4  5  1  0  0  0  0
  4 38  1  0  0  0  0
  5  6  2  0  0  0  0
  5 39  1  0  0  0  0
  6  7  1  0  0  0  0
  6 33  1  0  0  0  0
  7  8  1  0  0  0  0
  7 40  1  0  0  0  0
  8  9  2  0  0  0  0
  8 10  1  0  0  0  0
 10 11  1  0  0  0  0
 10 41  1  0  0  0  0
 11 12  1  0  0  0  0
 11 32  2  0  0  0  0
 12 13  2  0  0  0  0
 12 42  1  0  0  0  0
 13 14  1  0  0  0  0
 13 43  1  0  0  0  0
 14 15  1  0  0  0  0
 14 31  2  0  0  0  0
 15 16  1  0  0  0  0
 15 29  2  0  0  0  0
 16 17  2  0  0  0  0
 16 44  1  0  0  0  0
 17 18  1  0  0  0  0
 18 19  2  0  0  0  0
 18 28  1  0  0  0  0
 19 20  1  0  0  0  0
 19 26  1  0  0  0  0
 20 21  1  0  0  0  0
 20 25  2  0  0  0  0
 21 22  2  0  0  0  0
 21 45  1  0  0  0  0
 22 23  1  0  0  0  0
 23 24  1  0  0  0  0
 23 25  1  0  0  0  0
 24 46  1  0  0  0  0
 24 47  1  0  0  0  0
 24 48  1  0  0  0  0
 25 49  1  0  0  0  0
 26 27  2  0  0  0  0
 26 50  1  0  0  0  0
 27 28  1  0  0  0  0
 28 29  1  0  0  0  0
 29 30  1  0  0  0  0
 30 51  1  0  0  0  0
 30 52  1  0  0  0  0
 31 32  1  0  0  0  0
 31 53  1  0  0  0  0
 32 54  1  0  0  0  0
 33 55  1  0  0  0  0
M  END
$$$$
