CHEMBL3915235
 OpenBabel04072215373D

 66 70  0  0  0  0  0  0  0  0999 V2000
    3.1442   -7.1959    0.9871 C   0  0  0  0  0  0  0  0  0  0  0  0
    3.4041   -5.8576    0.5671 O   0  0  0  0  0  0  0  0  0  0  0  0
    4.6771   -5.6147    0.1168 C   0  0  0  0  0  0  0  0  0  0  0  0
    5.7953   -6.3535    0.4614 C   0  0  0  0  0  0  0  0  0  0  0  0
    7.0458   -5.9851   -0.0382 C   0  0  0  0  0  0  0  0  0  0  0  0
    8.2236   -6.6094    0.2798 O   0  0  0  0  0  0  0  0  0  0  0  0
    8.1244   -7.7763    1.0907 C   0  0  0  0  0  0  0  0  0  0  0  0
    7.1611   -4.9106   -0.9387 C   0  0  0  0  0  0  0  0  0  0  0  0
    6.0433   -4.1946   -1.3806 C   0  0  0  0  0  0  0  0  0  0  0  0
    6.1450   -3.1761   -2.3650 N   0  0  0  0  0  0  0  0  0  0  0  0
    4.8646   -2.5378   -2.8182 C   0  0  0  0  0  0  0  0  0  0  0  0
    4.1479   -3.3657   -3.8557 C   0  0  0  0  0  0  0  0  0  0  0  0
    2.9619   -2.7664   -4.5820 C   0  0  0  0  0  0  0  0  0  0  0  0
    2.7541   -3.8904   -3.6118 C   0  0  0  0  0  0  0  0  0  0  0  0
    7.2384   -2.7422   -3.1896 C   0  0  0  0  0  0  0  0  0  0  0  0
    7.3687   -1.3617   -3.3358 C   0  0  0  0  0  0  0  0  0  0  0  0
    7.8427   -0.8513   -4.5244 C   0  0  0  0  0  0  0  0  0  0  0  0
    8.4029   -1.6615   -5.4828 C   0  0  0  0  0  0  0  0  0  0  0  0
    8.6154   -1.0912   -6.6623 N   0  0  0  0  0  0  0  0  0  0  0  0
    9.3968   -1.7642   -7.5097 C   0  0  0  0  0  0  0  0  0  0  0  0
   10.0571   -2.9160   -7.1289 C   0  0  0  0  0  0  0  0  0  0  0  0
   11.3987   -3.0514   -7.6875 C   0  0  0  0  0  0  0  0  0  0  0  0
   12.0227   -3.9623   -8.5630 C   0  0  0  0  0  0  0  0  0  0  0  0
   13.2783   -3.6040   -8.8806 N   0  0  0  0  0  0  0  0  0  0  0  0
   13.4666   -2.4576   -8.1971 N   0  0  0  0  0  0  0  0  0  0  0  0
   14.7908   -1.8621   -8.0641 C   0  0  0  0  0  0  0  0  0  0  0  0
   15.4742   -2.2190   -6.7212 C   0  0  0  0  0  0  0  0  0  0  0  0
   15.6041   -3.7332   -6.5249 C   0  0  0  0  0  0  0  0  0  0  0  0
   16.8612   -1.5690   -6.6440 C   0  0  0  0  0  0  0  0  0  0  0  0
   14.7378   -1.6640   -5.6199 O   0  0  0  0  0  0  0  0  0  0  0  0
   12.3246   -2.0194   -7.5932 C   0  0  0  0  0  0  0  0  0  0  0  0
    9.6789   -3.6060   -6.0001 N   0  0  0  0  0  0  0  0  0  0  0  0
    8.7483   -2.9999   -5.1654 C   0  0  0  0  0  0  0  0  0  0  0  0
    8.0505   -3.5464   -4.0285 C   0  0  0  0  0  0  0  0  0  0  0  0
    4.8187   -4.5252   -0.7502 C   0  0  0  0  0  0  0  0  0  0  0  0
    2.0626   -7.3131    1.1054 H   0  0  0  0  0  0  0  0  0  0  0  0
    3.6079   -7.3983    1.9583 H   0  0  0  0  0  0  0  0  0  0  0  0
    3.4757   -7.9222    0.2360 H   0  0  0  0  0  0  0  0  0  0  0  0
    5.6937   -7.1940    1.1334 H   0  0  0  0  0  0  0  0  0  0  0  0
    9.1342   -8.1642    1.2462 H   0  0  0  0  0  0  0  0  0  0  0  0
    7.5405   -8.5553    0.5873 H   0  0  0  0  0  0  0  0  0  0  0  0
    7.7035   -7.5444    2.0758 H   0  0  0  0  0  0  0  0  0  0  0  0
    8.1524   -4.6404   -1.2900 H   0  0  0  0  0  0  0  0  0  0  0  0
    5.0253   -1.5575   -3.2825 H   0  0  0  0  0  0  0  0  0  0  0  0
    4.2186   -2.2789   -1.9716 H   0  0  0  0  0  0  0  0  0  0  0  0
    4.8285   -3.9489   -4.4658 H   0  0  0  0  0  0  0  0  0  0  0  0
    2.8409   -2.9846   -5.6377 H   0  0  0  0  0  0  0  0  0  0  0  0
    2.6214   -1.7761   -4.2988 H   0  0  0  0  0  0  0  0  0  0  0  0
    2.5084   -4.8679   -4.0108 H   0  0  0  0  0  0  0  0  0  0  0  0
    2.2610   -3.6603   -2.6747 H   0  0  0  0  0  0  0  0  0  0  0  0
    6.9108   -0.6847   -2.6171 H   0  0  0  0  0  0  0  0  0  0  0  0
    7.7315    0.2087   -4.7437 H   0  0  0  0  0  0  0  0  0  0  0  0
    9.6096   -1.2598   -8.4468 H   0  0  0  0  0  0  0  0  0  0  0  0
   11.6179   -4.8617   -9.0077 H   0  0  0  0  0  0  0  0  0  0  0  0
   14.6575   -0.7762   -8.1548 H   0  0  0  0  0  0  0  0  0  0  0  0
   15.3939   -2.1994   -8.9162 H   0  0  0  0  0  0  0  0  0  0  0  0
   16.0971   -4.2066   -7.3798 H   0  0  0  0  0  0  0  0  0  0  0  0
   14.6249   -4.2024   -6.3797 H   0  0  0  0  0  0  0  0  0  0  0  0
   16.1800   -3.9622   -5.6215 H   0  0  0  0  0  0  0  0  0  0  0  0
   17.4765   -1.8034   -7.5174 H   0  0  0  0  0  0  0  0  0  0  0  0
   17.3974   -1.9081   -5.7483 H   0  0  0  0  0  0  0  0  0  0  0  0
   16.7805   -0.4796   -6.5494 H   0  0  0  0  0  0  0  0  0  0  0  0
   14.0285   -2.2880   -5.3784 H   0  0  0  0  0  0  0  0  0  0  0  0
   12.2867   -1.0510   -7.1090 H   0  0  0  0  0  0  0  0  0  0  0  0
    8.0996   -4.6251   -3.8727 H   0  0  0  0  0  0  0  0  0  0  0  0
    3.9128   -3.9550   -0.9230 H   0  0  0  0  0  0  0  0  0  0  0  0
  1  2  1  0  0  0  0
  1 36  1  0  0  0  0
  1 37  1  0  0  0  0
  1 38  1  0  0  0  0
  2  3  1  0  0  0  0
  3  4  1  0  0  0  0
  3 35  2  0  0  0  0
  4  5  2  0  0  0  0
  4 39  1  0  0  0  0
  5  6  1  0  0  0  0
  5  8  1  0  0  0  0
  6  7  1  0  0  0  0
  7 40  1  0  0  0  0
  7 41  1  0  0  0  0
  7 42  1  0  0  0  0
  8  9  2  0  0  0  0
  8 43  1  0  0  0  0
  9 10  1  0  0  0  0
  9 35  1  0  0  0  0
 10 11  1  0  0  0  0
 10 15  1  0  0  0  0
 11 12  1  0  0  0  0
 11 44  1  0  0  0  0
 11 45  1  0  0  0  0
 12 13  1  0  0  0  0
 12 14  1  0  0  0  0
 12 46  1  0  0  0  0
 13 14  1  0  0  0  0
 13 47  1  0  0  0  0
 13 48  1  0  0  0  0
 14 49  1  0  0  0  0
 14 50  1  0  0  0  0
 15 16  1  0  0  0  0
 15 34  2  0  0  0  0
 16 17  2  0  0  0  0
 16 51  1  0  0  0  0
 17 18  1  0  0  0  0
 17 52  1  0  0  0  0
 18 19  1  0  0  0  0
 18 33  2  0  0  0  0
 19 20  2  0  0  0  0
 20 21  1  0  0  0  0
 20 53  1  0  0  0  0
 21 22  1  0  0  0  0
 21 32  2  0  0  0  0
 22 23  1  0  0  0  0
 22 31  2  0  0  0  0
 23 24  2  0  0  0  0
 23 54  1  0  0  0  0
 24 25  1  0  0  0  0
 25 26  1  0  0  0  0
 25 31  1  0  0  0  0
 26 27  1  0  0  0  0
 26 55  1  0  0  0  0
 26 56  1  0  0  0  0
 27 28  1  0  0  0  0
 27 29  1  0  0  0  0
 27 30  1  0  0  0  0
 28 57  1  0  0  0  0
 28 58  1  0  0  0  0
 28 59  1  0  0  0  0
 29 60  1  0  0  0  0
 29 61  1  0  0  0  0
 29 62  1  0  0  0  0
 30 63  1  0  0  0  0
 31 64  1  0  0  0  0
 32 33  1  0  0  0  0
 33 34  1  0  0  0  0
 34 65  1  0  0  0  0
 35 66  1  0  0  0  0
M  END
$$$$
