CHEMBL182648
 OpenBabel04072215363D

 43 46  0  0  0  0  0  0  0  0999 V2000
    1.1997    0.1402   -0.6975 O   0  0  0  0  0  0  0  0  0  0  0  0
    2.3145    0.1315   -0.1916 C   0  0  0  0  0  0  0  0  0  0  0  0
    2.8826   -0.9789    0.4148 N   0  0  0  0  0  0  0  0  0  0  0  0
    2.2734   -2.2521    0.4885 C   0  0  0  0  0  0  0  0  0  0  0  0
    1.2322   -2.6523   -0.3515 C   0  0  0  0  0  0  0  0  0  0  0  0
    0.5764   -3.8726   -0.1607 C   0  0  0  0  0  0  0  0  0  0  0  0
    0.9248   -4.7155    0.8974 C   0  0  0  0  0  0  0  0  0  0  0  0
    0.0697   -5.8415    1.3189 C   0  0  0  0  0  0  0  0  0  0  0  0
    0.6247   -7.0582    1.7715 C   0  0  0  0  0  0  0  0  0  0  0  0
   -0.1264   -7.9957    2.5102 C   0  0  0  0  0  0  0  0  0  0  0  0
   -1.4340   -7.7075    2.8848 C   0  0  0  0  0  0  0  0  0  0  0  0
   -1.9706   -6.5284    2.4115 C   0  0  0  0  0  0  0  0  0  0  0  0
   -1.2885   -5.6550    1.5625 C   0  0  0  0  0  0  0  0  0  0  0  0
   -2.2062   -4.5260    1.2371 C   0  0  0  0  0  0  0  0  0  0  0  0
   -3.1202   -4.5375    2.3483 N   0  0  0  0  0  0  0  0  0  0  0  0
   -3.0838   -5.7644    2.9904 C   0  0  0  0  0  0  0  0  0  0  0  0
   -3.6862   -6.0646    3.9988 O   0  0  0  0  0  0  0  0  0  0  0  0
    2.0346   -4.3452    1.6826 C   0  0  0  0  0  0  0  0  0  0  0  0
    2.7128   -3.1374    1.4725 C   0  0  0  0  0  0  0  0  0  0  0  0
    3.1526    1.2298   -0.1280 N   0  0  0  0  0  0  0  0  0  0  0  0
    2.8662    2.5358   -0.5926 C   0  0  0  0  0  0  0  0  0  0  0  0
    1.6489    2.9010   -1.1853 C   0  0  0  0  0  0  0  0  0  0  0  0
    1.4259    4.2116   -1.6258 C   0  0  0  0  0  0  0  0  0  0  0  0
    2.4151    5.1703   -1.4645 C   0  0  0  0  0  0  0  0  0  0  0  0
    3.6108    4.8071   -0.8712 C   0  0  0  0  0  0  0  0  0  0  0  0
    4.5651    5.7364   -0.7149 F   0  0  0  0  0  0  0  0  0  0  0  0
    3.8533    3.5062   -0.4396 C   0  0  0  0  0  0  0  0  0  0  0  0
    3.6355   -0.8052    1.0619 H   0  0  0  0  0  0  0  0  0  0  0  0
    0.8765   -2.0164   -1.1565 H   0  0  0  0  0  0  0  0  0  0  0  0
   -0.2598   -4.1126   -0.8134 H   0  0  0  0  0  0  0  0  0  0  0  0
    1.6851   -7.2570    1.6207 H   0  0  0  0  0  0  0  0  0  0  0  0
    0.3533   -8.8987    2.8795 H   0  0  0  0  0  0  0  0  0  0  0  0
   -1.9859   -8.3334    3.5777 H   0  0  0  0  0  0  0  0  0  0  0  0
   -2.7957   -4.7775    0.3434 H   0  0  0  0  0  0  0  0  0  0  0  0
   -1.7603   -3.5397    1.1226 H   0  0  0  0  0  0  0  0  0  0  0  0
   -3.1296   -3.7481    2.9851 H   0  0  0  0  0  0  0  0  0  0  0  0
    2.3375   -4.9632    2.5271 H   0  0  0  0  0  0  0  0  0  0  0  0
    3.5320   -2.8801    2.1386 H   0  0  0  0  0  0  0  0  0  0  0  0
    4.0750    1.0798    0.2408 H   0  0  0  0  0  0  0  0  0  0  0  0
    0.8456    2.1896   -1.3444 H   0  0  0  0  0  0  0  0  0  0  0  0
    0.4793    4.4652   -2.0966 H   0  0  0  0  0  0  0  0  0  0  0  0
    2.2581    6.1896   -1.7939 H   0  0  0  0  0  0  0  0  0  0  0  0
    4.8096    3.2862    0.0202 H   0  0  0  0  0  0  0  0  0  0  0  0
  1  2  2  0  0  0  0
  2  3  1  0  0  0  0
  2 20  1  0  0  0  0
  3  4  1  0  0  0  0
  3 28  1  0  0  0  0
  4  5  1  0  0  0  0
  4 19  2  0  0  0  0
  5  6  2  0  0  0  0
  5 29  1  0  0  0  0
  6  7  1  0  0  0  0
  6 30  1  0  0  0  0
  7  8  1  0  0  0  0
  7 18  2  0  0  0  0
  8  9  1  0  0  0  0
  8 13  2  0  0  0  0
  9 10  2  0  0  0  0
  9 31  1  0  0  0  0
 10 11  1  0  0  0  0
 10 32  1  0  0  0  0
 11 12  2  0  0  0  0
 11 33  1  0  0  0  0
 12 13  1  0  0  0  0
 12 16  1  0  0  0  0
 13 14  1  0  0  0  0
 14 15  1  0  0  0  0
 14 34  1  0  0  0  0
 14 35  1  0  0  0  0
 15 16  1  0  0  0  0
 15 36  1  0  0  0  0
 16 17  2  0  0  0  0
 18 19  1  0  0  0  0
 18 37  1  0  0  0  0
 19 38  1  0  0  0  0
 20 21  1  0  0  0  0
 20 39  1  0  0  0  0
 21 22  1  0  0  0  0
 21 27  2  0  0  0  0
 22 23  2  0  0  0  0
 22 40  1  0  0  0  0
 23 24  1  0  0  0  0
 23 41  1  0  0  0  0
 24 25  2  0  0  0  0
 24 42  1  0  0  0  0
 25 26  1  0  0  0  0
 25 27  1  0  0  0  0
 27 43  1  0  0  0  0
M  END
$$$$
