CHEMBL3633766
 OpenBabel04072215373D

 44 46  0  0  0  0  0  0  0  0999 V2000
    2.8221   -0.9038    1.1882 C   0  0  0  0  0  0  0  0  0  0  0  0
    2.5552   -0.0980    0.0429 O   0  0  0  0  0  0  0  0  0  0  0  0
    3.2234   -0.3566   -1.1203 C   0  0  0  0  0  0  0  0  0  0  0  0
    4.3898   -1.1296   -1.1809 C   0  0  0  0  0  0  0  0  0  0  0  0
    5.0286   -1.4241   -2.3774 C   0  0  0  0  0  0  0  0  0  0  0  0
    6.1160   -2.1964   -2.3380 N   0  0  0  0  0  0  0  0  0  0  0  0
    6.7057   -2.4599   -3.5064 C   0  0  0  0  0  0  0  0  0  0  0  0
    6.3256   -1.9947   -4.6970 N   0  0  0  0  0  0  0  0  0  0  0  0
    5.2399   -1.1993   -4.7266 C   0  0  0  0  0  0  0  0  0  0  0  0
    4.8537   -0.6212   -5.9681 N   0  0  0  0  0  0  0  0  0  0  0  0
    5.4138   -1.0104   -7.2124 C   0  0  0  0  0  0  0  0  0  0  0  0
    5.4611   -2.3694   -7.5550 C   0  0  0  0  0  0  0  0  0  0  0  0
    6.0838   -2.7914   -8.7289 C   0  0  0  0  0  0  0  0  0  0  0  0
    6.6495   -1.8504   -9.5836 C   0  0  0  0  0  0  0  0  0  0  0  0
    7.4637   -2.3782  -11.0044 Cl  0  0  0  0  0  0  0  0  0  0  0  0
    6.5734   -0.4899   -9.2928 C   0  0  0  0  0  0  0  0  0  0  0  0
    5.9502   -0.0733   -8.1141 C   0  0  0  0  0  0  0  0  0  0  0  0
    5.8879    1.6192   -7.7649 Cl  0  0  0  0  0  0  0  0  0  0  0  0
    4.5121   -0.9007   -3.5656 C   0  0  0  0  0  0  0  0  0  0  0  0
    3.3378   -0.1233   -3.5240 C   0  0  0  0  0  0  0  0  0  0  0  0
    2.7199    0.1843   -2.3101 C   0  0  0  0  0  0  0  0  0  0  0  0
    1.6367    1.0009   -2.4699 O   0  0  0  0  0  0  0  0  0  0  0  0
    1.3709    1.9957   -1.4803 C   0  0  0  0  0  0  0  0  0  0  0  0
    2.5234    2.9709   -1.2508 C   0  0  0  0  0  0  0  0  0  0  0  0
    2.1085    4.0206   -0.2539 C   0  0  0  0  0  0  0  0  0  0  0  0
    0.9791    4.1266    0.2171 O   0  0  0  0  0  0  0  0  0  0  0  0
    3.1128    4.8987    0.0981 N   0  0  0  0  0  0  0  0  0  0  0  0
    2.7584    5.8055    1.1247 O   0  0  0  0  0  0  0  0  0  0  0  0
    3.4709   -0.3517    1.8752 H   0  0  0  0  0  0  0  0  0  0  0  0
    3.2526   -1.8851    0.9685 H   0  0  0  0  0  0  0  0  0  0  0  0
    1.8695   -1.0914    1.6926 H   0  0  0  0  0  0  0  0  0  0  0  0
    4.8522   -1.5250   -0.2815 H   0  0  0  0  0  0  0  0  0  0  0  0
    7.5766   -3.1046   -3.4864 H   0  0  0  0  0  0  0  0  0  0  0  0
    4.8656    0.3949   -5.8736 H   0  0  0  0  0  0  0  0  0  0  0  0
    5.0329   -3.1108   -6.8836 H   0  0  0  0  0  0  0  0  0  0  0  0
    6.1356   -3.8530   -8.9536 H   0  0  0  0  0  0  0  0  0  0  0  0
    7.0107    0.2379   -9.9699 H   0  0  0  0  0  0  0  0  0  0  0  0
    2.8935    0.2533   -4.4440 H   0  0  0  0  0  0  0  0  0  0  0  0
    1.0009    1.5431   -0.5550 H   0  0  0  0  0  0  0  0  0  0  0  0
    0.5220    2.5681   -1.8751 H   0  0  0  0  0  0  0  0  0  0  0  0
    2.8029    3.4540   -2.1939 H   0  0  0  0  0  0  0  0  0  0  0  0
    3.4153    2.4582   -0.8749 H   0  0  0  0  0  0  0  0  0  0  0  0
    4.0937    4.6660    0.0197 H   0  0  0  0  0  0  0  0  0  0  0  0
    1.8190    5.5835    1.2897 H   0  0  0  0  0  0  0  0  0  0  0  0
  1  2  1  0  0  0  0
  1 29  1  0  0  0  0
  1 30  1  0  0  0  0
  1 31  1  0  0  0  0
  2  3  1  0  0  0  0
  3  4  1  0  0  0  0
  3 21  2  0  0  0  0
  4  5  2  0  0  0  0
  4 32  1  0  0  0  0
  5  6  1  0  0  0  0
  5 19  1  0  0  0  0
  6  7  2  0  0  0  0
  7  8  1  0  0  0  0
  7 33  1  0  0  0  0
  8  9  2  0  0  0  0
  9 10  1  0  0  0  0
  9 19  1  0  0  0  0
 10 11  1  0  0  0  0
 10 34  1  0  0  0  0
 11 12  1  0  0  0  0
 11 17  2  0  0  0  0
 12 13  2  0  0  0  0
 12 35  1  0  0  0  0
 13 14  1  0  0  0  0
 13 36  1  0  0  0  0
 14 15  1  0  0  0  0
 14 16  2  0  0  0  0
 16 17  1  0  0  0  0
 16 37  1  0  0  0  0
 17 18  1  0  0  0  0
 19 20  2  0  0  0  0
 20 21  1  0  0  0  0
 20 38  1  0  0  0  0
 21 22  1  0  0  0  0
 22 23  1  0  0  0  0
 23 24  1  0  0  0  0
 23 39  1  0  0  0  0
 23 40  1  0  0  0  0
 24 25  1  0  0  0  0
 24 41  1  0  0  0  0
 24 42  1  0  0  0  0
 25 26  2  0  0  0  0
 25 27  1  0  0  0  0
 27 28  1  0  0  0  0
 27 43  1  0  0  0  0
 28 44  1  0  0  0  0
M  END
$$$$
