CHEMBL489820
 OpenBabel04072215383D

 61 65  0  0  0  0  0  0  0  0999 V2000
   -0.1132   -1.9460   -4.8789 C   0  0  0  0  0  0  0  0  0  0  0  0
    0.5310   -2.0553   -3.5047 C   0  0  0  0  0  0  0  0  0  0  0  0
    0.8154   -3.4261   -3.0528 N   0  0  0  0  0  0  0  0  0  0  0  0
    1.4074   -3.3793   -1.6951 C   0  0  0  0  0  0  0  0  0  0  0  0
    2.8704   -2.8761   -1.6801 C   0  0  0  0  0  0  0  0  0  0  0  0
    3.7852   -3.6916   -2.5015 N   0  0  0  0  0  0  0  0  0  0  0  0
    4.0082   -5.0381   -1.9468 C   0  0  0  0  0  0  0  0  0  0  0  0
    4.5863   -5.0171   -0.5272 C   0  0  0  0  0  0  0  0  0  0  0  0
    4.7851   -6.4255    0.0036 C   0  0  0  0  0  0  0  0  0  0  0  0
    5.6798   -7.0974   -0.8736 O   0  0  0  0  0  0  0  0  0  0  0  0
    6.3812   -8.1207   -0.3080 C   0  0  0  0  0  0  0  0  0  0  0  0
    5.9329   -8.8850    0.7694 C   0  0  0  0  0  0  0  0  0  0  0  0
    6.7178   -9.9115    1.2914 C   0  0  0  0  0  0  0  0  0  0  0  0
    7.9475  -10.1489    0.6743 C   0  0  0  0  0  0  0  0  0  0  0  0
    8.8877  -11.1132    0.9349 N   0  0  0  0  0  0  0  0  0  0  0  0
    9.9379  -11.0336    0.0507 C   0  0  0  0  0  0  0  0  0  0  0  0
   11.0415  -11.9913    0.0207 C   0  0  0  0  0  0  0  0  0  0  0  0
   12.3086  -11.5598   -0.4145 C   0  0  0  0  0  0  0  0  0  0  0  0
   13.3831  -12.4565   -0.5515 C   0  0  0  0  0  0  0  0  0  0  0  0
   13.2187  -13.8126   -0.2785 C   0  0  0  0  0  0  0  0  0  0  0  0
   11.9746  -14.2450    0.1585 C   0  0  0  0  0  0  0  0  0  0  0  0
   10.9169  -13.3416    0.3317 C   0  0  0  0  0  0  0  0  0  0  0  0
    9.7774  -14.1310    0.8486 C   0  0  0  0  0  0  0  0  0  0  0  0
    8.7066  -13.7176    1.2498 O   0  0  0  0  0  0  0  0  0  0  0  0
   10.1692  -15.4491    0.8694 N   0  0  0  0  0  0  0  0  0  0  0  0
   11.5392  -15.6337    0.4795 C   0  0  0  0  0  0  0  0  0  0  0  0
    9.6718   -9.9530   -0.7728 C   0  0  0  0  0  0  0  0  0  0  0  0
    8.4117   -9.4119   -0.4091 C   0  0  0  0  0  0  0  0  0  0  0  0
    7.6115   -8.3825   -0.9166 C   0  0  0  0  0  0  0  0  0  0  0  0
    3.2240   -3.7879   -3.8711 C   0  0  0  0  0  0  0  0  0  0  0  0
    1.7252   -4.1861   -3.9395 C   0  0  0  0  0  0  0  0  0  0  0  0
   -0.4283   -0.9103   -5.0476 H   0  0  0  0  0  0  0  0  0  0  0  0
   -0.9970   -2.5849   -4.9608 H   0  0  0  0  0  0  0  0  0  0  0  0
    0.5903   -2.2039   -5.6755 H   0  0  0  0  0  0  0  0  0  0  0  0
   -0.1738   -1.6104   -2.7899 H   0  0  0  0  0  0  0  0  0  0  0  0
    1.4246   -1.4233   -3.5001 H   0  0  0  0  0  0  0  0  0  0  0  0
    1.3554   -4.3843   -1.2558 H   0  0  0  0  0  0  0  0  0  0  0  0
    0.7983   -2.7510   -1.0350 H   0  0  0  0  0  0  0  0  0  0  0  0
    3.2229   -2.7870   -0.6489 H   0  0  0  0  0  0  0  0  0  0  0  0
    2.9179   -1.8454   -2.0509 H   0  0  0  0  0  0  0  0  0  0  0  0
    4.7193   -5.5577   -2.6024 H   0  0  0  0  0  0  0  0  0  0  0  0
    3.0920   -5.6398   -1.9491 H   0  0  0  0  0  0  0  0  0  0  0  0
    3.9256   -4.5035    0.1760 H   0  0  0  0  0  0  0  0  0  0  0  0
    5.5482   -4.4899   -0.5399 H   0  0  0  0  0  0  0  0  0  0  0  0
    3.8284   -6.9613    0.0307 H   0  0  0  0  0  0  0  0  0  0  0  0
    5.1894   -6.3494    1.0207 H   0  0  0  0  0  0  0  0  0  0  0  0
    4.9599   -8.7105    1.2177 H   0  0  0  0  0  0  0  0  0  0  0  0
    6.3754  -10.5118    2.1276 H   0  0  0  0  0  0  0  0  0  0  0  0
    8.7541  -11.8606    1.6051 H   0  0  0  0  0  0  0  0  0  0  0  0
   12.4763  -10.5123   -0.6552 H   0  0  0  0  0  0  0  0  0  0  0  0
   14.3479  -12.0835   -0.8903 H   0  0  0  0  0  0  0  0  0  0  0  0
   14.0405  -14.5063   -0.4077 H   0  0  0  0  0  0  0  0  0  0  0  0
    9.5523  -16.1692    1.2201 H   0  0  0  0  0  0  0  0  0  0  0  0
   11.5715  -16.2896   -0.3944 H   0  0  0  0  0  0  0  0  0  0  0  0
   12.0932  -16.0596    1.3206 H   0  0  0  0  0  0  0  0  0  0  0  0
   10.2860   -9.6201   -1.5990 H   0  0  0  0  0  0  0  0  0  0  0  0
    7.9352   -7.7933   -1.7707 H   0  0  0  0  0  0  0  0  0  0  0  0
    3.8144   -4.4955   -4.4700 H   0  0  0  0  0  0  0  0  0  0  0  0
    3.3542   -2.8150   -4.3601 H   0  0  0  0  0  0  0  0  0  0  0  0
    1.6372   -5.2457   -3.6644 H   0  0  0  0  0  0  0  0  0  0  0  0
    1.3853   -4.1500   -4.9799 H   0  0  0  0  0  0  0  0  0  0  0  0
  1  2  1  0  0  0  0
  1 32  1  0  0  0  0
  1 33  1  0  0  0  0
  1 34  1  0  0  0  0
  2  3  1  0  0  0  0
  2 35  1  0  0  0  0
  2 36  1  0  0  0  0
  3  4  1  0  0  0  0
  3 31  1  0  0  0  0
  4  5  1  0  0  0  0
  4 37  1  0  0  0  0
  4 38  1  0  0  0  0
  5  6  1  0  0  0  0
  5 39  1  0  0  0  0
  5 40  1  0  0  0  0
  6  7  1  0  0  0  0
  6 30  1  0  0  0  0
  7  8  1  0  0  0  0
  7 41  1  0  0  0  0
  7 42  1  0  0  0  0
  8  9  1  0  0  0  0
  8 43  1  0  0  0  0
  8 44  1  0  0  0  0
  9 10  1  0  0  0  0
  9 45  1  0  0  0  0
  9 46  1  0  0  0  0
 10 11  1  0  0  0  0
 11 12  1  0  0  0  0
 11 29  2  0  0  0  0
 12 13  2  0  0  0  0
 12 47  1  0  0  0  0
 13 14  1  0  0  0  0
 13 48  1  0  0  0  0
 14 15  1  0  0  0  0
 14 28  2  0  0  0  0
 15 16  1  0  0  0  0
 15 49  1  0  0  0  0
 16 17  1  0  0  0  0
 16 27  2  0  0  0  0
 17 18  1  0  0  0  0
 17 22  2  0  0  0  0
 18 19  2  0  0  0  0
 18 50  1  0  0  0  0
 19 20  1  0  0  0  0
 19 51  1  0  0  0  0
 20 21  2  0  0  0  0
 20 52  1  0  0  0  0
 21 22  1  0  0  0  0
 21 26  1  0  0  0  0
 22 23  1  0  0  0  0
 23 24  2  0  0  0  0
 23 25  1  0  0  0  0
 25 26  1  0  0  0  0
 25 53  1  0  0  0  0
 26 54  1  0  0  0  0
 26 55  1  0  0  0  0
 27 28  1  0  0  0  0
 27 56  1  0  0  0  0
 28 29  1  0  0  0  0
 29 57  1  0  0  0  0
 30 31  1  0  0  0  0
 30 58  1  0  0  0  0
 30 59  1  0  0  0  0
 31 60  1  0  0  0  0
 31 61  1  0  0  0  0
M  END
$$$$
