CHEMBL116324
 OpenBabel04072215363D

 60 64  0  0  0  0  0  0  0  0999 V2000
   -8.6100   -0.8311    7.5119 C   0  0  0  0  0  0  0  0  0  0  0  0
   -7.7911    0.2392    6.9526 N   0  0  0  0  0  0  0  0  0  0  0  0
   -6.3607    0.0124    7.2080 C   0  0  0  0  0  0  0  0  0  0  0  0
   -5.4914    1.1557    6.6226 C   0  0  0  0  0  0  0  0  0  0  0  0
   -5.6380    1.3720    5.1648 N   0  0  0  0  0  0  0  0  0  0  0  0
   -5.1208    0.2344    4.3854 C   0  0  0  0  0  0  0  0  0  0  0  0
   -3.6484   -0.1649    4.5176 C   0  0  0  0  0  0  0  0  0  0  0  0
   -3.2598   -1.3631    3.5997 C   0  0  0  0  0  0  0  0  0  0  0  0
   -3.8574   -2.6654    3.9402 N   0  0  0  0  0  0  0  0  0  0  0  0
   -3.0590   -3.8087    3.9696 C   0  0  0  0  0  0  0  0  0  0  0  0
   -3.5980   -5.0366    4.0801 C   0  0  0  0  0  0  0  0  0  0  0  0
   -5.0259   -5.2011    4.3203 C   0  0  0  0  0  0  0  0  0  0  0  0
   -5.7375   -6.4591    4.4622 C   0  0  0  0  0  0  0  0  0  0  0  0
   -5.1978   -7.6630    5.1825 C   0  0  0  0  0  0  0  0  0  0  0  0
   -5.7381   -8.8536    5.2053 N   0  0  0  0  0  0  0  0  0  0  0  0
   -6.9975   -8.9400    4.6442 C   0  0  0  0  0  0  0  0  0  0  0  0
   -8.0223   -9.8898    4.7052 C   0  0  0  0  0  0  0  0  0  0  0  0
   -8.6290  -10.5624    3.5090 C   0  0  0  0  0  0  0  0  0  0  0  0
   -8.3980  -10.1497    2.1813 C   0  0  0  0  0  0  0  0  0  0  0  0
   -9.2782  -10.5316    1.1615 C   0  0  0  0  0  0  0  0  0  0  0  0
  -10.3858  -11.3325    1.4413 C   0  0  0  0  0  0  0  0  0  0  0  0
  -10.5917  -11.7962    2.7355 C   0  0  0  0  0  0  0  0  0  0  0  0
   -9.7100  -11.4321    3.7564 C   0  0  0  0  0  0  0  0  0  0  0  0
   -8.9664   -9.0558    5.3976 C   0  0  0  0  0  0  0  0  0  0  0  0
   -8.9263   -7.8051    4.9207 N   0  0  0  0  0  0  0  0  0  0  0  0
   -7.6870   -7.7549    4.3758 N   0  0  0  0  0  0  0  0  0  0  0  0
   -7.0080   -6.6085    4.0466 C   0  0  0  0  0  0  0  0  0  0  0  0
   -5.7697   -4.0826    4.3860 C   0  0  0  0  0  0  0  0  0  0  0  0
   -5.2265   -2.8492    3.8007 C   0  0  0  0  0  0  0  0  0  0  0  0
   -6.0145   -2.1017    3.2446 O   0  0  0  0  0  0  0  0  0  0  0  0
   -7.1051    1.4957    4.8794 C   0  0  0  0  0  0  0  0  0  0  0  0
   -8.0162    0.3970    5.5038 C   0  0  0  0  0  0  0  0  0  0  0  0
   -8.4466   -0.9114    8.5928 H   0  0  0  0  0  0  0  0  0  0  0  0
   -8.3968   -1.8064    7.0599 H   0  0  0  0  0  0  0  0  0  0  0  0
   -9.6744   -0.6110    7.3739 H   0  0  0  0  0  0  0  0  0  0  0  0
   -6.0377   -0.9568    6.8113 H   0  0  0  0  0  0  0  0  0  0  0  0
   -6.1847   -0.0200    8.2938 H   0  0  0  0  0  0  0  0  0  0  0  0
   -4.4399    0.9881    6.8788 H   0  0  0  0  0  0  0  0  0  0  0  0
   -5.7609    2.0924    7.1292 H   0  0  0  0  0  0  0  0  0  0  0  0
   -5.3173    0.4271    3.3225 H   0  0  0  0  0  0  0  0  0  0  0  0
   -5.7026   -0.6196    4.7054 H   0  0  0  0  0  0  0  0  0  0  0  0
   -3.3996   -0.4181    5.5507 H   0  0  0  0  0  0  0  0  0  0  0  0
   -3.0234    0.6947    4.2323 H   0  0  0  0  0  0  0  0  0  0  0  0
   -2.1676   -1.4611    3.6558 H   0  0  0  0  0  0  0  0  0  0  0  0
   -3.5199   -1.1380    2.5597 H   0  0  0  0  0  0  0  0  0  0  0  0
   -1.9949   -3.6775    3.8155 H   0  0  0  0  0  0  0  0  0  0  0  0
   -2.9723   -5.9220    4.0064 H   0  0  0  0  0  0  0  0  0  0  0  0
   -4.2775   -7.4854    5.7654 H   0  0  0  0  0  0  0  0  0  0  0  0
   -7.5906   -9.4648    1.9359 H   0  0  0  0  0  0  0  0  0  0  0  0
   -9.1389  -10.1569    0.1484 H   0  0  0  0  0  0  0  0  0  0  0  0
  -11.1016  -11.5767    0.6591 H   0  0  0  0  0  0  0  0  0  0  0  0
  -11.4667  -12.3971    2.9704 H   0  0  0  0  0  0  0  0  0  0  0  0
   -9.9309  -11.7480    4.7696 H   0  0  0  0  0  0  0  0  0  0  0  0
   -9.8399   -9.3621    5.9544 H   0  0  0  0  0  0  0  0  0  0  0  0
   -7.6040   -5.8510    3.5572 H   0  0  0  0  0  0  0  0  0  0  0  0
   -6.8248   -4.0490    4.6314 H   0  0  0  0  0  0  0  0  0  0  0  0
   -7.2742    1.5206    3.7942 H   0  0  0  0  0  0  0  0  0  0  0  0
   -7.4406    2.4721    5.2503 H   0  0  0  0  0  0  0  0  0  0  0  0
   -7.8591   -0.5587    4.9839 H   0  0  0  0  0  0  0  0  0  0  0  0
   -9.0630    0.6749    5.3265 H   0  0  0  0  0  0  0  0  0  0  0  0
  1  2  1  0  0  0  0
  1 33  1  0  0  0  0
  1 34  1  0  0  0  0
  1 35  1  0  0  0  0
  2  3  1  0  0  0  0
  2 32  1  0  0  0  0
  3  4  1  0  0  0  0
  3 36  1  0  0  0  0
  3 37  1  0  0  0  0
  4  5  1  0  0  0  0
  4 38  1  0  0  0  0
  4 39  1  0  0  0  0
  5  6  1  0  0  0  0
  5 31  1  0  0  0  0
  6  7  1  0  0  0  0
  6 40  1  0  0  0  0
  6 41  1  0  0  0  0
  7  8  1  0  0  0  0
  7 42  1  0  0  0  0
  7 43  1  0  0  0  0
  8  9  1  0  0  0  0
  8 44  1  0  0  0  0
  8 45  1  0  0  0  0
  9 10  1  0  0  0  0
  9 29  1  0  0  0  0
 10 11  2  0  0  0  0
 10 46  1  0  0  0  0
 11 12  1  0  0  0  0
 11 47  1  0  0  0  0
 12 13  1  0  0  0  0
 12 28  2  0  0  0  0
 13 14  1  0  0  0  0
 13 27  2  0  0  0  0
 14 15  2  0  0  0  0
 14 48  1  0  0  0  0
 15 16  1  0  0  0  0
 16 17  2  0  0  0  0
 16 26  1  0  0  0  0
 17 18  1  0  0  0  0
 17 24  1  0  0  0  0
 18 19  1  0  0  0  0
 18 23  2  0  0  0  0
 19 20  2  0  0  0  0
 19 49  1  0  0  0  0
 20 21  1  0  0  0  0
 20 50  1  0  0  0  0
 21 22  2  0  0  0  0
 21 51  1  0  0  0  0
 22 23  1  0  0  0  0
 22 52  1  0  0  0  0
 23 53  1  0  0  0  0
 24 25  2  0  0  0  0
 24 54  1  0  0  0  0
 25 26  1  0  0  0  0
 26 27  1  0  0  0  0
 27 55  1  0  0  0  0
 28 29  1  0  0  0  0
 28 56  1  0  0  0  0
 29 30  2  0  0  0  0
 31 32  1  0  0  0  0
 31 57  1  0  0  0  0
 31 58  1  0  0  0  0
 32 59  1  0  0  0  0
 32 60  1  0  0  0  0
M  END
$$$$
