CHEMBL492857
 OpenBabel04072215383D

 63 67  0  0  0  0  0  0  0  0999 V2000
    8.5367    9.4567   -6.2432 C   0  0  0  0  0  0  0  0  0  0  0  0
    7.1312    9.1977   -6.1632 O   0  0  0  0  0  0  0  0  0  0  0  0
    6.6709    8.8042   -4.9352 C   0  0  0  0  0  0  0  0  0  0  0  0
    7.2785    9.2494   -3.7482 C   0  0  0  0  0  0  0  0  0  0  0  0
    6.9344    8.7664   -2.4909 C   0  0  0  0  0  0  0  0  0  0  0  0
    7.6439    9.1915   -1.4403 N   0  0  0  0  0  0  0  0  0  0  0  0
    7.3775    8.6542   -0.2347 C   0  0  0  0  0  0  0  0  0  0  0  0
    6.4117    7.6910   -0.0244 C   0  0  0  0  0  0  0  0  0  0  0  0
    5.6504    7.2473   -1.1123 C   0  0  0  0  0  0  0  0  0  0  0  0
    4.7333    6.0566   -0.9019 C   0  0  0  0  0  0  0  0  0  0  0  0
    3.7102    6.2697    0.1173 N   0  0  0  0  0  0  0  0  0  0  0  0
    2.4118    6.7542   -0.3176 C   0  0  0  0  0  0  0  0  0  0  0  0
    1.6124    7.3718    0.8261 C   0  0  0  0  0  0  0  0  0  0  0  0
    1.5697    6.4724    2.0351 C   0  0  0  0  0  0  0  0  0  0  0  0
    0.5239    6.4696    2.9855 C   0  0  0  0  0  0  0  0  0  0  0  0
   -0.6617    7.3902    3.0009 C   0  0  0  0  0  0  0  0  0  0  0  0
   -1.7310    6.9311    3.3909 O   0  0  0  0  0  0  0  0  0  0  0  0
   -0.4519    8.6963    2.5947 N   0  0  0  0  0  0  0  0  0  0  0  0
   -1.3958    9.7467    2.6222 C   0  0  0  0  0  0  0  0  0  0  0  0
   -2.5644    9.7104    3.3831 C   0  0  0  0  0  0  0  0  0  0  0  0
   -3.4298   10.8064    3.4108 C   0  0  0  0  0  0  0  0  0  0  0  0
   -3.1465   11.9435    2.6579 C   0  0  0  0  0  0  0  0  0  0  0  0
   -1.9872   11.9987    1.8742 C   0  0  0  0  0  0  0  0  0  0  0  0
   -1.6741   13.2106    1.0329 C   0  0  0  0  0  0  0  0  0  0  0  0
   -2.5740   14.2232    1.1715 F   0  0  0  0  0  0  0  0  0  0  0  0
   -0.4584   13.7474    1.3310 F   0  0  0  0  0  0  0  0  0  0  0  0
   -1.6370   12.9228   -0.2980 F   0  0  0  0  0  0  0  0  0  0  0  0
   -1.1109   10.8965    1.8737 C   0  0  0  0  0  0  0  0  0  0  0  0
    0.5314    5.5084    4.0188 C   0  0  0  0  0  0  0  0  0  0  0  0
    1.5706    4.5911    4.1526 C   0  0  0  0  0  0  0  0  0  0  0  0
    2.6392    4.6417    3.2692 C   0  0  0  0  0  0  0  0  0  0  0  0
    2.6468    5.5773    2.2248 C   0  0  0  0  0  0  0  0  0  0  0  0
    3.8352    5.5921    1.3245 C   0  0  0  0  0  0  0  0  0  0  0  0
    4.8638    5.0205    1.6735 O   0  0  0  0  0  0  0  0  0  0  0  0
    5.8944    7.8202   -2.3896 C   0  0  0  0  0  0  0  0  0  0  0  0
    5.1980    7.4804   -3.5697 C   0  0  0  0  0  0  0  0  0  0  0  0
    5.5724    7.9464   -4.8391 C   0  0  0  0  0  0  0  0  0  0  0  0
    4.7822    7.4065   -5.8104 O   0  0  0  0  0  0  0  0  0  0  0  0
    4.9685    7.7355   -7.1748 C   0  0  0  0  0  0  0  0  0  0  0  0
    8.8821    9.1565   -7.2368 H   0  0  0  0  0  0  0  0  0  0  0  0
    9.1309    8.8870   -5.5177 H   0  0  0  0  0  0  0  0  0  0  0  0
    8.7191   10.5296   -6.1254 H   0  0  0  0  0  0  0  0  0  0  0  0
    8.0864    9.9770   -3.7837 H   0  0  0  0  0  0  0  0  0  0  0  0
    8.0055    9.0046    0.5795 H   0  0  0  0  0  0  0  0  0  0  0  0
    6.2922    7.2550    0.9634 H   0  0  0  0  0  0  0  0  0  0  0  0
    5.3690    5.2047   -0.6338 H   0  0  0  0  0  0  0  0  0  0  0  0
    4.2171    5.7452   -1.8115 H   0  0  0  0  0  0  0  0  0  0  0  0
    1.8720    5.9015   -0.7472 H   0  0  0  0  0  0  0  0  0  0  0  0
    2.5546    7.5033   -1.1044 H   0  0  0  0  0  0  0  0  0  0  0  0
    0.6013    7.5668    0.4522 H   0  0  0  0  0  0  0  0  0  0  0  0
    2.0768    8.3211    1.1156 H   0  0  0  0  0  0  0  0  0  0  0  0
    0.4605    8.9496    2.2513 H   0  0  0  0  0  0  0  0  0  0  0  0
   -2.8128    8.8524    4.0008 H   0  0  0  0  0  0  0  0  0  0  0  0
   -4.3240   10.7685    4.0284 H   0  0  0  0  0  0  0  0  0  0  0  0
   -3.8371   12.7853    2.6867 H   0  0  0  0  0  0  0  0  0  0  0  0
   -0.2174   10.9394    1.2534 H   0  0  0  0  0  0  0  0  0  0  0  0
   -0.2914    5.4688    4.7334 H   0  0  0  0  0  0  0  0  0  0  0  0
    1.5493    3.8489    4.9467 H   0  0  0  0  0  0  0  0  0  0  0  0
    3.4634    3.9393    3.3851 H   0  0  0  0  0  0  0  0  0  0  0  0
    4.3371    6.8160   -3.5350 H   0  0  0  0  0  0  0  0  0  0  0  0
    4.4071    6.9940   -7.7554 H   0  0  0  0  0  0  0  0  0  0  0  0
    6.0072    7.6525   -7.4977 H   0  0  0  0  0  0  0  0  0  0  0  0
    4.5412    8.7175   -7.3969 H   0  0  0  0  0  0  0  0  0  0  0  0
  1  2  1  0  0  0  0
  1 40  1  0  0  0  0
  1 41  1  0  0  0  0
  1 42  1  0  0  0  0
  2  3  1  0  0  0  0
  3  4  1  0  0  0  0
  3 37  2  0  0  0  0
  4  5  2  0  0  0  0
  4 43  1  0  0  0  0
  5  6  1  0  0  0  0
  5 35  1  0  0  0  0
  6  7  2  0  0  0  0
  7  8  1  0  0  0  0
  7 44  1  0  0  0  0
  8  9  2  0  0  0  0
  8 45  1  0  0  0  0
  9 10  1  0  0  0  0
  9 35  1  0  0  0  0
 10 11  1  0  0  0  0
 10 46  1  0  0  0  0
 10 47  1  0  0  0  0
 11 12  1  0  0  0  0
 11 33  1  0  0  0  0
 12 13  1  0  0  0  0
 12 48  1  0  0  0  0
 12 49  1  0  0  0  0
 13 14  1  0  0  0  0
 13 50  1  0  0  0  0
 13 51  1  0  0  0  0
 14 15  1  0  0  0  0
 14 32  2  0  0  0  0
 15 16  1  0  0  0  0
 15 29  2  0  0  0  0
 16 17  2  0  0  0  0
 16 18  1  0  0  0  0
 18 19  1  0  0  0  0
 18 52  1  0  0  0  0
 19 20  1  0  0  0  0
 19 28  2  0  0  0  0
 20 21  2  0  0  0  0
 20 53  1  0  0  0  0
 21 22  1  0  0  0  0
 21 54  1  0  0  0  0
 22 23  2  0  0  0  0
 22 55  1  0  0  0  0
 23 24  1  0  0  0  0
 23 28  1  0  0  0  0
 24 25  1  0  0  0  0
 24 26  1  0  0  0  0
 24 27  1  0  0  0  0
 28 56  1  0  0  0  0
 29 30  1  0  0  0  0
 29 57  1  0  0  0  0
 30 31  2  0  0  0  0
 30 58  1  0  0  0  0
 31 32  1  0  0  0  0
 31 59  1  0  0  0  0
 32 33  1  0  0  0  0
 33 34  2  0  0  0  0
 35 36  2  0  0  0  0
 36 37  1  0  0  0  0
 36 60  1  0  0  0  0
 37 38  1  0  0  0  0
 38 39  1  0  0  0  0
 39 61  1  0  0  0  0
 39 62  1  0  0  0  0
 39 63  1  0  0  0  0
M  END
$$$$
