CHEMBL3896265
 OpenBabel04072215373D

 49 52  0  0  0  0  0  0  0  0999 V2000
    2.9817    1.3964   -2.9271 C   0  0  0  0  0  0  0  0  0  0  0  0
    1.5642    1.0322   -2.5908 C   0  0  0  0  0  0  0  0  0  0  0  0
    1.0666   -0.2247   -2.9503 C   0  0  0  0  0  0  0  0  0  0  0  0
   -0.2274   -0.5870   -2.5963 C   0  0  0  0  0  0  0  0  0  0  0  0
   -1.0372    0.3072   -1.9100 C   0  0  0  0  0  0  0  0  0  0  0  0
   -2.2092   -0.1723   -1.4651 F   0  0  0  0  0  0  0  0  0  0  0  0
   -0.6052    1.6127   -1.6144 C   0  0  0  0  0  0  0  0  0  0  0  0
   -1.4308    2.6131   -1.0313 N   0  0  0  0  0  0  0  0  0  0  0  0
   -2.8133    2.6036   -1.0913 C   0  0  0  0  0  0  0  0  0  0  0  0
   -3.4840    1.7954   -1.7195 O   0  0  0  0  0  0  0  0  0  0  0  0
   -3.3997    3.6568   -0.4060 N   0  0  0  0  0  0  0  0  0  0  0  0
   -4.8049    3.6490   -0.2129 C   0  0  0  0  0  0  0  0  0  0  0  0
   -5.4450    2.5385    0.3536 C   0  0  0  0  0  0  0  0  0  0  0  0
   -6.8128    2.5738    0.6635 C   0  0  0  0  0  0  0  0  0  0  0  0
   -7.5603    3.7295    0.4134 C   0  0  0  0  0  0  0  0  0  0  0  0
   -8.8220    4.0325    1.2127 C   0  0  0  0  0  0  0  0  0  0  0  0
   -9.2015    5.3676    1.4542 C   0  0  0  0  0  0  0  0  0  0  0  0
   -8.3708    5.6932    2.5850 C   0  0  0  0  0  0  0  0  0  0  0  0
   -7.7073    6.8503    3.0202 C   0  0  0  0  0  0  0  0  0  0  0  0
   -6.8489    6.7518    4.1224 C   0  0  0  0  0  0  0  0  0  0  0  0
   -6.7120    5.5546    4.8291 C   0  0  0  0  0  0  0  0  0  0  0  0
   -7.3958    4.4024    4.4407 C   0  0  0  0  0  0  0  0  0  0  0  0
   -8.1606    4.4957    3.2766 C   0  0  0  0  0  0  0  0  0  0  0  0
   -8.8959    3.5656    2.5538 N   0  0  0  0  0  0  0  0  0  0  0  0
   -9.5177    2.4190    3.0682 C   0  0  0  0  0  0  0  0  0  0  0  0
  -10.7326    2.1799    2.4899 N   0  0  0  0  0  0  0  0  0  0  0  0
   -9.0797    1.8303    4.0444 O   0  0  0  0  0  0  0  0  0  0  0  0
   -6.9324    4.7778   -0.2974 C   0  0  0  0  0  0  0  0  0  0  0  0
   -5.5574    4.7628   -0.5610 C   0  0  0  0  0  0  0  0  0  0  0  0
    0.7244    1.9465   -1.9217 C   0  0  0  0  0  0  0  0  0  0  0  0
    3.4923    0.5786   -3.4490 H   0  0  0  0  0  0  0  0  0  0  0  0
    3.5433    1.6062   -2.0115 H   0  0  0  0  0  0  0  0  0  0  0  0
    3.0044    2.2735   -3.5806 H   0  0  0  0  0  0  0  0  0  0  0  0
    1.6865   -0.9395   -3.4864 H   0  0  0  0  0  0  0  0  0  0  0  0
   -0.6174   -1.5712   -2.8339 H   0  0  0  0  0  0  0  0  0  0  0  0
   -0.9835    3.4616   -0.7199 H   0  0  0  0  0  0  0  0  0  0  0  0
   -2.9761    4.5565   -0.5780 H   0  0  0  0  0  0  0  0  0  0  0  0
   -4.8657    1.6600    0.6309 H   0  0  0  0  0  0  0  0  0  0  0  0
   -7.2422    1.7276    1.1930 H   0  0  0  0  0  0  0  0  0  0  0  0
   -9.4355    6.0858    0.6763 H   0  0  0  0  0  0  0  0  0  0  0  0
   -7.7837    7.7762    2.4598 H   0  0  0  0  0  0  0  0  0  0  0  0
   -6.2653    7.6180    4.4221 H   0  0  0  0  0  0  0  0  0  0  0  0
   -6.0446    5.5059    5.6858 H   0  0  0  0  0  0  0  0  0  0  0  0
   -7.2778    3.4627    4.9714 H   0  0  0  0  0  0  0  0  0  0  0  0
  -11.2028    2.9222    1.9859 H   0  0  0  0  0  0  0  0  0  0  0  0
  -11.3322    1.5672    3.0314 H   0  0  0  0  0  0  0  0  0  0  0  0
   -7.4807    5.6804   -0.5537 H   0  0  0  0  0  0  0  0  0  0  0  0
   -5.0986    5.6254   -1.0338 H   0  0  0  0  0  0  0  0  0  0  0  0
    1.1154    2.9301   -1.6724 H   0  0  0  0  0  0  0  0  0  0  0  0
  1  2  1  0  0  0  0
  1 31  1  0  0  0  0
  1 32  1  0  0  0  0
  1 33  1  0  0  0  0
  2  3  1  0  0  0  0
  2 30  2  0  0  0  0
  3  4  2  0  0  0  0
  3 34  1  0  0  0  0
  4  5  1  0  0  0  0
  4 35  1  0  0  0  0
  5  6  1  0  0  0  0
  5  7  2  0  0  0  0
  7  8  1  0  0  0  0
  7 30  1  0  0  0  0
  8  9  1  0  0  0  0
  8 36  1  0  0  0  0
  9 10  2  0  0  0  0
  9 11  1  0  0  0  0
 11 12  1  0  0  0  0
 11 37  1  0  0  0  0
 12 13  1  0  0  0  0
 12 29  2  0  0  0  0
 13 14  2  0  0  0  0
 13 38  1  0  0  0  0
 14 15  1  0  0  0  0
 14 39  1  0  0  0  0
 15 16  1  0  0  0  0
 15 28  2  0  0  0  0
 16 17  2  0  0  0  0
 16 24  1  0  0  0  0
 17 18  1  0  0  0  0
 17 40  1  0  0  0  0
 18 19  1  0  0  0  0
 18 23  2  0  0  0  0
 19 20  2  0  0  0  0
 19 41  1  0  0  0  0
 20 21  1  0  0  0  0
 20 42  1  0  0  0  0
 21 22  2  0  0  0  0
 21 43  1  0  0  0  0
 22 23  1  0  0  0  0
 22 44  1  0  0  0  0
 23 24  1  0  0  0  0
 24 25  1  0  0  0  0
 25 26  1  0  0  0  0
 25 27  2  0  0  0  0
 26 45  1  0  0  0  0
 26 46  1  0  0  0  0
 28 29  1  0  0  0  0
 28 47  1  0  0  0  0
 29 48  1  0  0  0  0
 30 49  1  0  0  0  0
M  END
$$$$
