CHEMBL3923842
 OpenBabel04072215373D

 48 51  0  0  0  0  0  0  0  0999 V2000
    3.2150    5.9145    1.9127 C   0  0  0  0  0  0  0  0  0  0  0  0
    1.8514    6.3592    1.4598 C   0  0  0  0  0  0  0  0  0  0  0  0
    1.5597    7.7250    1.4134 C   0  0  0  0  0  0  0  0  0  0  0  0
    0.3143    8.1505    0.9722 C   0  0  0  0  0  0  0  0  0  0  0  0
   -0.6530    7.2242    0.5918 C   0  0  0  0  0  0  0  0  0  0  0  0
   -1.7698    7.7348    0.0641 F   0  0  0  0  0  0  0  0  0  0  0  0
   -0.4248    5.8422    0.6768 C   0  0  0  0  0  0  0  0  0  0  0  0
   -1.3938    4.8398    0.3792 N   0  0  0  0  0  0  0  0  0  0  0  0
   -2.7699    5.0297    0.2651 C   0  0  0  0  0  0  0  0  0  0  0  0
   -3.3681    6.0852    0.4139 O   0  0  0  0  0  0  0  0  0  0  0  0
   -3.4400    3.8281    0.0432 N   0  0  0  0  0  0  0  0  0  0  0  0
   -4.8541    3.8185   -0.1153 C   0  0  0  0  0  0  0  0  0  0  0  0
   -5.6109    2.9832    0.7107 C   0  0  0  0  0  0  0  0  0  0  0  0
   -7.0036    2.9645    0.6035 C   0  0  0  0  0  0  0  0  0  0  0  0
   -7.6418    3.7250   -0.3777 C   0  0  0  0  0  0  0  0  0  0  0  0
   -6.8922    4.5247   -1.2453 C   0  0  0  0  0  0  0  0  0  0  0  0
   -7.5639    5.2073   -2.3191 C   0  0  0  0  0  0  0  0  0  0  0  0
   -8.1502    5.7234   -3.2305 C   0  0  0  0  0  0  0  0  0  0  0  0
   -8.8149    6.3641   -4.3325 C   0  0  0  0  0  0  0  0  0  0  0  0
   -8.6931    7.7507   -4.5090 C   0  0  0  0  0  0  0  0  0  0  0  0
   -9.2862    8.3902   -5.5970 C   0  0  0  0  0  0  0  0  0  0  0  0
  -10.0103    7.6680   -6.5490 C   0  0  0  0  0  0  0  0  0  0  0  0
  -10.1321    6.2872   -6.3492 C   0  0  0  0  0  0  0  0  0  0  0  0
  -10.7674    5.3289   -7.0888 N   0  0  0  0  0  0  0  0  0  0  0  0
  -10.6947    4.0951   -6.5719 N   0  0  0  0  0  0  0  0  0  0  0  0
   -9.9838    4.2596   -5.4580 C   0  0  0  0  0  0  0  0  0  0  0  0
   -9.7273    3.2369   -4.6374 N   0  0  0  0  0  0  0  0  0  0  0  0
   -9.5689    5.6108   -5.2623 C   0  0  0  0  0  0  0  0  0  0  0  0
   -5.4996    4.6006   -1.0876 C   0  0  0  0  0  0  0  0  0  0  0  0
    0.8582    5.4239    1.0884 C   0  0  0  0  0  0  0  0  0  0  0  0
    3.8562    6.7736    2.1455 H   0  0  0  0  0  0  0  0  0  0  0  0
    3.7128    5.3407    1.1249 H   0  0  0  0  0  0  0  0  0  0  0  0
    3.1395    5.3068    2.8194 H   0  0  0  0  0  0  0  0  0  0  0  0
    2.3013    8.4664    1.7025 H   0  0  0  0  0  0  0  0  0  0  0  0
    0.0819    9.2084    0.9021 H   0  0  0  0  0  0  0  0  0  0  0  0
   -1.0614    3.8886    0.3274 H   0  0  0  0  0  0  0  0  0  0  0  0
   -3.0653    3.0598    0.5799 H   0  0  0  0  0  0  0  0  0  0  0  0
   -5.1365    2.3864    1.4842 H   0  0  0  0  0  0  0  0  0  0  0  0
   -7.5935    2.3564    1.2845 H   0  0  0  0  0  0  0  0  0  0  0  0
   -8.7256    3.6850   -0.4650 H   0  0  0  0  0  0  0  0  0  0  0  0
   -8.1274    8.3402   -3.7890 H   0  0  0  0  0  0  0  0  0  0  0  0
   -9.1770    9.4669   -5.7114 H   0  0  0  0  0  0  0  0  0  0  0  0
  -10.4616    8.1650   -7.4025 H   0  0  0  0  0  0  0  0  0  0  0  0
  -11.2777    5.4540   -7.9524 H   0  0  0  0  0  0  0  0  0  0  0  0
   -9.9850    2.3040   -4.9307 H   0  0  0  0  0  0  0  0  0  0  0  0
   -9.0854    3.3013   -3.8591 H   0  0  0  0  0  0  0  0  0  0  0  0
   -4.9165    5.2461   -1.7405 H   0  0  0  0  0  0  0  0  0  0  0  0
    1.0989    4.3647    1.1464 H   0  0  0  0  0  0  0  0  0  0  0  0
  1  2  1  0  0  0  0
  1 31  1  0  0  0  0
  1 32  1  0  0  0  0
  1 33  1  0  0  0  0
  2  3  1  0  0  0  0
  2 30  2  0  0  0  0
  3  4  2  0  0  0  0
  3 34  1  0  0  0  0
  4  5  1  0  0  0  0
  4 35  1  0  0  0  0
  5  6  1  0  0  0  0
  5  7  2  0  0  0  0
  7  8  1  0  0  0  0
  7 30  1  0  0  0  0
  8  9  1  0  0  0  0
  8 36  1  0  0  0  0
  9 10  2  0  0  0  0
  9 11  1  0  0  0  0
 11 12  1  0  0  0  0
 11 37  1  0  0  0  0
 12 13  1  0  0  0  0
 12 29  2  0  0  0  0
 13 14  2  0  0  0  0
 13 38  1  0  0  0  0
 14 15  1  0  0  0  0
 14 39  1  0  0  0  0
 15 16  2  0  0  0  0
 15 40  1  0  0  0  0
 16 17  1  0  0  0  0
 16 29  1  0  0  0  0
 17 18  3  0  0  0  0
 18 19  1  0  0  0  0
 19 20  1  0  0  0  0
 19 28  2  0  0  0  0
 20 21  2  0  0  0  0
 20 41  1  0  0  0  0
 21 22  1  0  0  0  0
 21 42  1  0  0  0  0
 22 23  2  0  0  0  0
 22 43  1  0  0  0  0
 23 24  1  0  0  0  0
 23 28  1  0  0  0  0
 24 25  1  0  0  0  0
 24 44  1  0  0  0  0
 25 26  2  0  0  0  0
 26 27  1  0  0  0  0
 26 28  1  0  0  0  0
 27 45  1  0  0  0  0
 27 46  1  0  0  0  0
 29 47  1  0  0  0  0
 30 48  1  0  0  0  0
M  END
$$$$
