CHEMBL3921618
 OpenBabel04072215373D

 60 63  0  0  0  0  0  0  0  0999 V2000
    0.4863    4.1196    0.1480 C   0  0  0  0  0  0  0  0  0  0  0  0
    1.8310    4.4182   -0.2388 O   0  0  0  0  0  0  0  0  0  0  0  0
    2.7743    3.4394   -0.0291 C   0  0  0  0  0  0  0  0  0  0  0  0
    2.5092    2.2236    0.6015 C   0  0  0  0  0  0  0  0  0  0  0  0
    3.5116    1.2649    0.7090 C   0  0  0  0  0  0  0  0  0  0  0  0
    3.3645    0.0241    1.2725 O   0  0  0  0  0  0  0  0  0  0  0  0
    2.1223   -0.2522    1.9129 C   0  0  0  0  0  0  0  0  0  0  0  0
    4.7856    1.5262    0.1809 C   0  0  0  0  0  0  0  0  0  0  0  0
    5.1046    2.7402   -0.4533 C   0  0  0  0  0  0  0  0  0  0  0  0
    6.3190    2.9300   -1.1664 N   0  0  0  0  0  0  0  0  0  0  0  0
    6.8594    1.7097   -1.9031 C   0  0  0  0  0  0  0  0  0  0  0  0
    5.9324    0.9625   -2.9039 C   0  0  0  0  0  0  0  0  0  0  0  0
    5.5712    1.6803   -4.1702 N   0  0  0  0  0  0  0  0  0  0  0  0
    6.7604    1.8388   -5.3603 S   0  0  0  0  0  0  0  0  0  0  0  0
    5.8294    2.4426   -6.7562 C   0  0  0  0  0  0  0  0  0  0  0  0
    7.6436    2.9044   -4.9439 O   0  0  0  0  0  0  0  0  0  0  0  0
    7.2682    0.5189   -5.6757 O   0  0  0  0  0  0  0  0  0  0  0  0
    7.4265    3.8271   -0.8998 C   0  0  0  0  0  0  0  0  0  0  0  0
    8.0319    4.3002   -2.0665 C   0  0  0  0  0  0  0  0  0  0  0  0
    9.3779    4.6195   -2.0670 C   0  0  0  0  0  0  0  0  0  0  0  0
   10.1108    4.6930   -0.9169 C   0  0  0  0  0  0  0  0  0  0  0  0
   11.4154    4.8348   -1.1475 N   0  0  0  0  0  0  0  0  0  0  0  0
   12.1817    5.1458   -0.1029 C   0  0  0  0  0  0  0  0  0  0  0  0
   11.6574    5.3947    1.1470 C   0  0  0  0  0  0  0  0  0  0  0  0
   12.5683    6.1324    2.0419 C   0  0  0  0  0  0  0  0  0  0  0  0
   12.6626    7.5376    2.2667 C   0  0  0  0  0  0  0  0  0  0  0  0
   13.8184    7.9130    2.8346 N   0  0  0  0  0  0  0  0  0  0  0  0
   14.4997    6.7622    2.9542 N   0  0  0  0  0  0  0  0  0  0  0  0
   15.7632    6.7254    3.6589 C   0  0  0  0  0  0  0  0  0  0  0  0
   13.8501    5.7021    2.3757 C   0  0  0  0  0  0  0  0  0  0  0  0
   10.3283    5.1048    1.4223 N   0  0  0  0  0  0  0  0  0  0  0  0
    9.5013    4.6565    0.3560 C   0  0  0  0  0  0  0  0  0  0  0  0
    8.1158    4.1168    0.3172 C   0  0  0  0  0  0  0  0  0  0  0  0
    4.0716    3.6999   -0.5283 C   0  0  0  0  0  0  0  0  0  0  0  0
   -0.1559    4.9529   -0.1553 H   0  0  0  0  0  0  0  0  0  0  0  0
    0.4018    4.0179    1.2361 H   0  0  0  0  0  0  0  0  0  0  0  0
    0.1094    3.2212   -0.3561 H   0  0  0  0  0  0  0  0  0  0  0  0
    1.5219    2.0155    0.9925 H   0  0  0  0  0  0  0  0  0  0  0  0
    2.1956   -1.2396    2.3785 H   0  0  0  0  0  0  0  0  0  0  0  0
    1.3034   -0.2874    1.1860 H   0  0  0  0  0  0  0  0  0  0  0  0
    1.9138    0.4739    2.7061 H   0  0  0  0  0  0  0  0  0  0  0  0
    5.5263    0.7367    0.2587 H   0  0  0  0  0  0  0  0  0  0  0  0
    7.2021    0.9918   -1.1489 H   0  0  0  0  0  0  0  0  0  0  0  0
    7.7623    1.9552   -2.4726 H   0  0  0  0  0  0  0  0  0  0  0  0
    4.9993    0.6513   -2.4254 H   0  0  0  0  0  0  0  0  0  0  0  0
    6.4383    0.0286   -3.1866 H   0  0  0  0  0  0  0  0  0  0  0  0
    5.0160    2.5179   -3.9957 H   0  0  0  0  0  0  0  0  0  0  0  0
    5.2760    3.3317   -6.4479 H   0  0  0  0  0  0  0  0  0  0  0  0
    5.1509    1.6669   -7.1120 H   0  0  0  0  0  0  0  0  0  0  0  0
    6.5419    2.7060   -7.5459 H   0  0  0  0  0  0  0  0  0  0  0  0
    7.5074    4.2541   -3.0018 H   0  0  0  0  0  0  0  0  0  0  0  0
    9.8714    4.7621   -3.0230 H   0  0  0  0  0  0  0  0  0  0  0  0
   13.2345    5.2691   -0.3294 H   0  0  0  0  0  0  0  0  0  0  0  0
   11.9670    8.3176    1.9834 H   0  0  0  0  0  0  0  0  0  0  0  0
   16.0303    7.7266    4.0109 H   0  0  0  0  0  0  0  0  0  0  0  0
   16.5447    6.3450    2.9953 H   0  0  0  0  0  0  0  0  0  0  0  0
   15.6397    6.0597    4.5174 H   0  0  0  0  0  0  0  0  0  0  0  0
   14.3605    4.7596    2.2350 H   0  0  0  0  0  0  0  0  0  0  0  0
    7.6425    3.8924    1.2750 H   0  0  0  0  0  0  0  0  0  0  0  0
    4.2464    4.6392   -1.0492 H   0  0  0  0  0  0  0  0  0  0  0  0
  1  2  1  0  0  0  0
  1 35  1  0  0  0  0
  1 36  1  0  0  0  0
  1 37  1  0  0  0  0
  2  3  1  0  0  0  0
  3  4  1  0  0  0  0
  3 34  2  0  0  0  0
  4  5  2  0  0  0  0
  4 38  1  0  0  0  0
  5  6  1  0  0  0  0
  5  8  1  0  0  0  0
  6  7  1  0  0  0  0
  7 39  1  0  0  0  0
  7 40  1  0  0  0  0
  7 41  1  0  0  0  0
  8  9  2  0  0  0  0
  8 42  1  0  0  0  0
  9 10  1  0  0  0  0
  9 34  1  0  0  0  0
 10 11  1  0  0  0  0
 10 18  1  0  0  0  0
 11 12  1  0  0  0  0
 11 43  1  0  0  0  0
 11 44  1  0  0  0  0
 12 13  1  0  0  0  0
 12 45  1  0  0  0  0
 12 46  1  0  0  0  0
 13 14  1  0  0  0  0
 13 47  1  0  0  0  0
 14 15  1  0  0  0  0
 14 16  2  0  0  0  0
 14 17  2  0  0  0  0
 15 48  1  0  0  0  0
 15 49  1  0  0  0  0
 15 50  1  0  0  0  0
 18 19  1  0  0  0  0
 18 33  2  0  0  0  0
 19 20  2  0  0  0  0
 19 51  1  0  0  0  0
 20 21  1  0  0  0  0
 20 52  1  0  0  0  0
 21 22  1  0  0  0  0
 21 32  2  0  0  0  0
 22 23  2  0  0  0  0
 23 24  1  0  0  0  0
 23 53  1  0  0  0  0
 24 25  1  0  0  0  0
 24 31  2  0  0  0  0
 25 26  1  0  0  0  0
 25 30  2  0  0  0  0
 26 27  2  0  0  0  0
 26 54  1  0  0  0  0
 27 28  1  0  0  0  0
 28 29  1  0  0  0  0
 28 30  1  0  0  0  0
 29 55  1  0  0  0  0
 29 56  1  0  0  0  0
 29 57  1  0  0  0  0
 30 58  1  0  0  0  0
 31 32  1  0  0  0  0
 32 33  1  0  0  0  0
 33 59  1  0  0  0  0
 34 60  1  0  0  0  0
M  END
$$$$
