CHEMBL1254753
 OpenBabel04072215363D

 47 50  0  0  0  0  0  0  0  0999 V2000
    0.6358   -0.3482    0.4234 C   0  0  0  0  0  0  0  0  0  0  0  0
    2.0059   -0.2281    0.8702 N   0  0  0  0  0  0  0  0  0  0  0  0
    2.5575    0.9182    1.3882 C   0  0  0  0  0  0  0  0  0  0  0  0
    3.8640    0.6429    1.7286 C   0  0  0  0  0  0  0  0  0  0  0  0
    4.1074   -0.7102    1.4029 C   0  0  0  0  0  0  0  0  0  0  0  0
    5.2389   -1.4274    1.5651 N   0  0  0  0  0  0  0  0  0  0  0  0
    5.1421   -2.6814    1.1133 C   0  0  0  0  0  0  0  0  0  0  0  0
    4.0815   -3.2630    0.5306 N   0  0  0  0  0  0  0  0  0  0  0  0
    2.9386   -2.5481    0.4106 C   0  0  0  0  0  0  0  0  0  0  0  0
    1.8189   -3.1021   -0.2073 O   0  0  0  0  0  0  0  0  0  0  0  0
    1.6173   -4.4608   -0.0982 C   0  0  0  0  0  0  0  0  0  0  0  0
    2.0487   -5.2032    0.9920 C   0  0  0  0  0  0  0  0  0  0  0  0
    1.8217   -6.5751    1.0479 C   0  0  0  0  0  0  0  0  0  0  0  0
    1.1273   -7.2523    0.0420 C   0  0  0  0  0  0  0  0  0  0  0  0
    0.8972   -8.6593    0.0800 N   0  0  0  0  0  0  0  0  0  0  0  0
    1.3111   -9.4929    1.1059 C   0  0  0  0  0  0  0  0  0  0  0  0
    1.9346   -9.1343    2.1104 O   0  0  0  0  0  0  0  0  0  0  0  0
    1.0133  -10.8309    0.9106 N   0  0  0  0  0  0  0  0  0  0  0  0
    1.4094  -11.7694    1.9022 C   0  0  0  0  0  0  0  0  0  0  0  0
    2.2504  -12.8262    1.5528 C   0  0  0  0  0  0  0  0  0  0  0  0
    2.5488  -13.8265    2.4813 C   0  0  0  0  0  0  0  0  0  0  0  0
    1.9919  -13.7832    3.7577 C   0  0  0  0  0  0  0  0  0  0  0  0
    1.1696  -12.7129    4.1403 C   0  0  0  0  0  0  0  0  0  0  0  0
    0.5357  -12.6944    5.5089 C   0  0  0  0  0  0  0  0  0  0  0  0
    0.8335  -13.8000    6.2514 F   0  0  0  0  0  0  0  0  0  0  0  0
    0.9166  -11.6285    6.2623 F   0  0  0  0  0  0  0  0  0  0  0  0
   -0.8254  -12.6511    5.4529 F   0  0  0  0  0  0  0  0  0  0  0  0
    0.9053  -11.6881    3.2087 C   0  0  0  0  0  0  0  0  0  0  0  0
    0.6416   -6.4922   -1.0316 C   0  0  0  0  0  0  0  0  0  0  0  0
    0.8842   -5.1038   -1.1001 C   0  0  0  0  0  0  0  0  0  0  0  0
    2.9455   -1.2315    0.8463 C   0  0  0  0  0  0  0  0  0  0  0  0
    0.1258    0.6107    0.5537 H   0  0  0  0  0  0  0  0  0  0  0  0
    0.1409   -1.1116    1.0285 H   0  0  0  0  0  0  0  0  0  0  0  0
    0.6369   -0.6231   -0.6341 H   0  0  0  0  0  0  0  0  0  0  0  0
    1.9837    1.8314    1.4774 H   0  0  0  0  0  0  0  0  0  0  0  0
    4.5736    1.3343    2.1615 H   0  0  0  0  0  0  0  0  0  0  0  0
    6.0246   -3.3037    1.2285 H   0  0  0  0  0  0  0  0  0  0  0  0
    2.5924   -4.7463    1.8130 H   0  0  0  0  0  0  0  0  0  0  0  0
    2.2278   -7.0698    1.9195 H   0  0  0  0  0  0  0  0  0  0  0  0
    0.3490   -9.0582   -0.6682 H   0  0  0  0  0  0  0  0  0  0  0  0
    1.0856  -11.1431   -0.0480 H   0  0  0  0  0  0  0  0  0  0  0  0
    2.7079  -12.8717    0.5687 H   0  0  0  0  0  0  0  0  0  0  0  0
    3.1955  -14.6544    2.2023 H   0  0  0  0  0  0  0  0  0  0  0  0
    2.1866  -14.6010    4.4515 H   0  0  0  0  0  0  0  0  0  0  0  0
    0.2598  -10.8574    3.4931 H   0  0  0  0  0  0  0  0  0  0  0  0
    0.0780   -6.9592   -1.8367 H   0  0  0  0  0  0  0  0  0  0  0  0
    0.5046   -4.5298   -1.9419 H   0  0  0  0  0  0  0  0  0  0  0  0
  1  2  1  0  0  0  0
  1 32  1  0  0  0  0
  1 33  1  0  0  0  0
  1 34  1  0  0  0  0
  2  3  1  0  0  0  0
  2 31  1  0  0  0  0
  3  4  2  0  0  0  0
  3 35  1  0  0  0  0
  4  5  1  0  0  0  0
  4 36  1  0  0  0  0
  5  6  1  0  0  0  0
  5 31  2  0  0  0  0
  6  7  2  0  0  0  0
  7  8  1  0  0  0  0
  7 37  1  0  0  0  0
  8  9  2  0  0  0  0
  9 10  1  0  0  0  0
  9 31  1  0  0  0  0
 10 11  1  0  0  0  0
 11 12  1  0  0  0  0
 11 30  2  0  0  0  0
 12 13  2  0  0  0  0
 12 38  1  0  0  0  0
 13 14  1  0  0  0  0
 13 39  1  0  0  0  0
 14 15  1  0  0  0  0
 14 29  2  0  0  0  0
 15 16  1  0  0  0  0
 15 40  1  0  0  0  0
 16 17  2  0  0  0  0
 16 18  1  0  0  0  0
 18 19  1  0  0  0  0
 18 41  1  0  0  0  0
 19 20  1  0  0  0  0
 19 28  2  0  0  0  0
 20 21  2  0  0  0  0
 20 42  1  0  0  0  0
 21 22  1  0  0  0  0
 21 43  1  0  0  0  0
 22 23  2  0  0  0  0
 22 44  1  0  0  0  0
 23 24  1  0  0  0  0
 23 28  1  0  0  0  0
 24 25  1  0  0  0  0
 24 26  1  0  0  0  0
 24 27  1  0  0  0  0
 28 45  1  0  0  0  0
 29 30  1  0  0  0  0
 29 46  1  0  0  0  0
 30 47  1  0  0  0  0
M  END
$$$$
