CHEMBL3893659
 OpenBabel04072215373D

 66 70  0  0  0  0  0  0  0  0999 V2000
    1.2186    1.2902   -5.5622 C   0  0  0  0  0  0  0  0  0  0  0  0
    2.0777    0.3963   -4.6774 C   0  0  0  0  0  0  0  0  0  0  0  0
    2.5150    1.0965   -3.4606 N   0  0  0  0  0  0  0  0  0  0  0  0
    1.3689    1.5275   -2.6725 C   0  0  0  0  0  0  0  0  0  0  0  0
    3.4219    0.2255   -2.6548 C   0  0  0  0  0  0  0  0  0  0  0  0
    4.7107   -0.2398   -3.3266 C   0  0  0  0  0  0  0  0  0  0  0  0
    5.6337    0.6372   -3.7719 C   0  0  0  0  0  0  0  0  0  0  0  0
    6.7372    0.1882   -4.4917 C   0  0  0  0  0  0  0  0  0  0  0  0
    7.8370    0.9664   -4.6874 O   0  0  0  0  0  0  0  0  0  0  0  0
    7.7458    2.2577   -4.0935 C   0  0  0  0  0  0  0  0  0  0  0  0
    6.8022   -1.1177   -4.9866 C   0  0  0  0  0  0  0  0  0  0  0  0
    5.9335   -2.0725   -4.5225 C   0  0  0  0  0  0  0  0  0  0  0  0
    5.9239   -3.4076   -5.0239 N   0  0  0  0  0  0  0  0  0  0  0  0
    5.5135   -4.5265   -4.1372 C   0  0  0  0  0  0  0  0  0  0  0  0
    4.0278   -4.8702   -4.1390 C   0  0  0  0  0  0  0  0  0  0  0  0
    3.3271   -5.9453   -3.3438 C   0  0  0  0  0  0  0  0  0  0  0  0
    3.3737   -6.3101   -4.7333 C   0  0  0  0  0  0  0  0  0  0  0  0
    6.7500   -3.8304   -6.1259 C   0  0  0  0  0  0  0  0  0  0  0  0
    6.2029   -4.8371   -6.8683 C   0  0  0  0  0  0  0  0  0  0  0  0
    6.9872   -5.4129   -7.7811 C   0  0  0  0  0  0  0  0  0  0  0  0
    8.3087   -5.1359   -7.8821 C   0  0  0  0  0  0  0  0  0  0  0  0
    8.8850   -6.1998   -8.2441 N   0  0  0  0  0  0  0  0  0  0  0  0
    8.7006   -6.4587   -9.4998 C   0  0  0  0  0  0  0  0  0  0  0  0
    9.7822   -6.1178  -10.1457 C   0  0  0  0  0  0  0  0  0  0  0  0
    9.5430   -7.8387  -10.9281 C   0  0  0  0  0  0  0  0  0  0  0  0
    8.9688   -9.3451  -10.6881 C   0  0  0  0  0  0  0  0  0  0  0  0
    9.1743  -10.3700  -11.5926 N   0  0  0  0  0  0  0  0  0  0  0  0
    9.8210   -9.8158  -12.6218 N   0  0  0  0  0  0  0  0  0  0  0  0
   10.1747  -10.6350  -13.8562 C   0  0  0  0  0  0  0  0  0  0  0  0
   10.1091   -8.3839  -12.2404 C   0  0  0  0  0  0  0  0  0  0  0  0
   10.0190   -4.7458   -9.0746 N   0  0  0  0  0  0  0  0  0  0  0  0
    9.0688   -4.1062   -7.7377 C   0  0  0  0  0  0  0  0  0  0  0  0
    8.1630   -3.4622   -6.4288 C   0  0  0  0  0  0  0  0  0  0  0  0
    5.0721   -1.5705   -3.5388 C   0  0  0  0  0  0  0  0  0  0  0  0
    0.8754    0.7450   -6.4424 H   0  0  0  0  0  0  0  0  0  0  0  0
    1.7793    2.1768   -5.8757 H   0  0  0  0  0  0  0  0  0  0  0  0
    0.3172    1.6192   -5.0396 H   0  0  0  0  0  0  0  0  0  0  0  0
    2.9465    0.0710   -5.2652 H   0  0  0  0  0  0  0  0  0  0  0  0
    1.5057   -0.4935   -4.3948 H   0  0  0  0  0  0  0  0  0  0  0  0
    0.7111    2.2030   -3.2239 H   0  0  0  0  0  0  0  0  0  0  0  0
    1.6869    2.1122   -1.8107 H   0  0  0  0  0  0  0  0  0  0  0  0
    0.8023    0.6524   -2.3482 H   0  0  0  0  0  0  0  0  0  0  0  0
    2.8581   -0.6665   -2.3537 H   0  0  0  0  0  0  0  0  0  0  0  0
    3.7054    0.7644   -1.7548 H   0  0  0  0  0  0  0  0  0  0  0  0
    5.4976    1.6525   -3.4537 H   0  0  0  0  0  0  0  0  0  0  0  0
    8.6770    2.7755   -4.3049 H   0  0  0  0  0  0  0  0  0  0  0  0
    7.6210    2.2122   -3.0011 H   0  0  0  0  0  0  0  0  0  0  0  0
    6.9255    2.8308   -4.5430 H   0  0  0  0  0  0  0  0  0  0  0  0
    7.5967   -1.4305   -5.6434 H   0  0  0  0  0  0  0  0  0  0  0  0
    5.8561   -4.3125   -3.0937 H   0  0  0  0  0  0  0  0  0  0  0  0
    6.0361   -5.4302   -4.4412 H   0  0  0  0  0  0  0  0  0  0  0  0
    3.5430   -3.8898   -4.3525 H   0  0  0  0  0  0  0  0  0  0  0  0
    2.2919   -5.8075   -3.1013 H   0  0  0  0  0  0  0  0  0  0  0  0
    3.8611   -6.6210   -2.7177 H   0  0  0  0  0  0  0  0  0  0  0  0
    2.4931   -6.1216   -5.3345 H   0  0  0  0  0  0  0  0  0  0  0  0
    3.9667   -7.1353   -5.1894 H   0  0  0  0  0  0  0  0  0  0  0  0
    5.2888   -5.3778   -6.7047 H   0  0  0  0  0  0  0  0  0  0  0  0
    6.6474   -6.3115   -8.2876 H   0  0  0  0  0  0  0  0  0  0  0  0
    7.9343   -7.2365   -9.5634 H   0  0  0  0  0  0  0  0  0  0  0  0
    8.4307   -9.7672   -9.8495 H   0  0  0  0  0  0  0  0  0  0  0  0
    9.9009  -11.7218  -13.8050 H   0  0  0  0  0  0  0  0  0  0  0  0
   11.2560  -10.6123  -14.0794 H   0  0  0  0  0  0  0  0  0  0  0  0
    9.6347  -10.2334  -14.7286 H   0  0  0  0  0  0  0  0  0  0  0  0
   10.7500   -7.9887  -13.0057 H   0  0  0  0  0  0  0  0  0  0  0  0
    8.5309   -2.8014   -5.6088 H   0  0  0  0  0  0  0  0  0  0  0  0
    4.4148   -2.2538   -3.0690 H   0  0  0  0  0  0  0  0  0  0  0  0
  1  2  1  0  0  0  0
  1 35  1  0  0  0  0
  1 36  1  0  0  0  0
  1 37  1  0  0  0  0
  2  3  1  0  0  0  0
  2 38  1  0  0  0  0
  2 39  1  0  0  0  0
  3  4  1  0  0  0  0
  3  5  1  0  0  0  0
  4 40  1  0  0  0  0
  4 41  1  0  0  0  0
  4 42  1  0  0  0  0
  5  6  1  0  0  0  0
  5 43  1  0  0  0  0
  5 44  1  0  0  0  0
  6  7  1  0  0  0  0
  6 34  2  0  0  0  0
  7  8  2  0  0  0  0
  7 45  1  0  0  0  0
  8  9  1  0  0  0  0
  8 11  1  0  0  0  0
  9 10  1  0  0  0  0
 10 46  1  0  0  0  0
 10 47  1  0  0  0  0
 10 48  1  0  0  0  0
 11 12  2  0  0  0  0
 11 49  1  0  0  0  0
 12 13  1  0  0  0  0
 12 34  1  0  0  0  0
 13 14  1  0  0  0  0
 13 18  1  0  0  0  0
 14 15  1  0  0  0  0
 14 50  1  0  0  0  0
 14 51  1  0  0  0  0
 15 16  1  0  0  0  0
 15 17  1  0  0  0  0
 15 52  1  0  0  0  0
 16 17  1  0  0  0  0
 16 53  1  0  0  0  0
 16 54  1  0  0  0  0
 17 55  1  0  0  0  0
 17 56  1  0  0  0  0
 18 19  1  0  0  0  0
 18 33  2  0  0  0  0
 19 20  2  0  0  0  0
 19 57  1  0  0  0  0
 20 21  1  0  0  0  0
 20 58  1  0  0  0  0
 21 22  1  0  0  0  0
 21 32  2  0  0  0  0
 22 23  2  0  0  0  0
 23 24  1  0  0  0  0
 23 59  1  0  0  0  0
 24 25  1  0  0  0  0
 24 31  2  0  0  0  0
 25 26  1  0  0  0  0
 25 30  2  0  0  0  0
 26 27  2  0  0  0  0
 26 60  1  0  0  0  0
 27 28  1  0  0  0  0
 28 29  1  0  0  0  0
 28 30  1  0  0  0  0
 29 61  1  0  0  0  0
 29 62  1  0  0  0  0
 29 63  1  0  0  0  0
 30 64  1  0  0  0  0
 31 32  1  0  0  0  0
 32 33  1  0  0  0  0
 33 65  1  0  0  0  0
 34 66  1  0  0  0  0
M  END
$$$$
