CHEMBL3968631
 OpenBabel04072215373D

 65 69  0  0  0  0  0  0  0  0999 V2000
    1.1489    0.4753    0.1399 O   0  0  0  0  0  0  0  0  0  0  0  0
    2.3083    0.0802    0.1722 C   0  0  0  0  0  0  0  0  0  0  0  0
    2.8659   -0.8732   -0.6771 N   0  0  0  0  0  0  0  0  0  0  0  0
    2.1818   -1.5209   -1.7363 C   0  0  0  0  0  0  0  0  0  0  0  0
    0.9687   -1.0486   -2.2304 C   0  0  0  0  0  0  0  0  0  0  0  0
    0.2478   -1.7763   -3.1752 C   0  0  0  0  0  0  0  0  0  0  0  0
    0.7768   -2.9398   -3.7332 C   0  0  0  0  0  0  0  0  0  0  0  0
    0.1239   -3.6893   -4.6959 O   0  0  0  0  0  0  0  0  0  0  0  0
   -0.6714   -3.0462   -5.6237 C   0  0  0  0  0  0  0  0  0  0  0  0
   -0.4206   -1.7573   -6.0784 C   0  0  0  0  0  0  0  0  0  0  0  0
   -1.3237   -1.1805   -6.9313 C   0  0  0  0  0  0  0  0  0  0  0  0
   -2.3969   -1.8266   -7.4135 N   0  0  0  0  0  0  0  0  0  0  0  0
   -2.6037   -3.1053   -7.0468 C   0  0  0  0  0  0  0  0  0  0  0  0
   -3.7015   -3.7914   -7.5929 N   0  0  0  0  0  0  0  0  0  0  0  0
   -4.5996   -3.2224   -8.4771 C   0  0  0  0  0  0  0  0  0  0  0  0
   -4.6079   -2.0819   -8.9142 O   0  0  0  0  0  0  0  0  0  0  0  0
   -5.7064   -4.1044   -8.9550 C   0  0  0  0  0  0  0  0  0  0  0  0
   -6.7134   -4.6356   -7.9601 C   0  0  0  0  0  0  0  0  0  0  0  0
   -5.8411   -5.5874   -8.7256 C   0  0  0  0  0  0  0  0  0  0  0  0
   -1.7654   -3.7486   -6.1491 C   0  0  0  0  0  0  0  0  0  0  0  0
    2.0130   -3.4029   -3.2783 C   0  0  0  0  0  0  0  0  0  0  0  0
    2.7175   -2.6928   -2.2876 C   0  0  0  0  0  0  0  0  0  0  0  0
    3.2233    0.5216    1.1246 N   0  0  0  0  0  0  0  0  0  0  0  0
    2.7993    1.3452    2.1917 C   0  0  0  0  0  0  0  0  0  0  0  0
    2.9555    0.8962    3.5074 C   0  0  0  0  0  0  0  0  0  0  0  0
    2.5601    1.6993    4.5810 C   0  0  0  0  0  0  0  0  0  0  0  0
    2.6204    1.3522    5.9066 O   0  0  0  0  0  0  0  0  0  0  0  0
    3.1722    0.0655    6.2018 C   0  0  0  0  0  0  0  0  0  0  0  0
    3.1957   -0.1290    7.7066 C   0  0  0  0  0  0  0  0  0  0  0  0
    4.0762    0.8227    8.5384 C   0  0  0  0  0  0  0  0  0  0  0  0
    4.5179   -0.3412    9.3417 N   0  0  0  0  0  0  0  0  0  0  0  0
    4.1508   -1.2283    8.2174 C   0  0  0  0  0  0  0  0  0  0  0  0
    2.0616    2.9819    4.3292 C   0  0  0  0  0  0  0  0  0  0  0  0
    1.9469    3.4654    3.0149 C   0  0  0  0  0  0  0  0  0  0  0  0
    1.5355    4.8889    2.7393 C   0  0  0  0  0  0  0  0  0  0  0  0
    1.2628    5.6071    3.8651 F   0  0  0  0  0  0  0  0  0  0  0  0
    2.5121    5.5847    2.0893 F   0  0  0  0  0  0  0  0  0  0  0  0
    0.4265    4.9833    1.9570 F   0  0  0  0  0  0  0  0  0  0  0  0
    2.2811    2.6175    1.9467 C   0  0  0  0  0  0  0  0  0  0  0  0
    3.7537   -1.2681   -0.4102 H   0  0  0  0  0  0  0  0  0  0  0  0
    0.5397   -0.1091   -1.8972 H   0  0  0  0  0  0  0  0  0  0  0  0
   -0.7226   -1.3891   -3.4730 H   0  0  0  0  0  0  0  0  0  0  0  0
    0.4364   -1.1716   -5.7397 H   0  0  0  0  0  0  0  0  0  0  0  0
   -1.2226   -0.1508   -7.2583 H   0  0  0  0  0  0  0  0  0  0  0  0
   -3.8435   -4.7422   -7.3023 H   0  0  0  0  0  0  0  0  0  0  0  0
   -6.1193   -3.7450   -9.8973 H   0  0  0  0  0  0  0  0  0  0  0  0
   -7.7611   -4.5595   -8.2316 H   0  0  0  0  0  0  0  0  0  0  0  0
   -6.5213   -4.4809   -6.9061 H   0  0  0  0  0  0  0  0  0  0  0  0
   -6.3006   -6.1669   -9.5193 H   0  0  0  0  0  0  0  0  0  0  0  0
   -5.0802   -6.1368   -8.1887 H   0  0  0  0  0  0  0  0  0  0  0  0
   -1.9413   -4.7790   -5.8407 H   0  0  0  0  0  0  0  0  0  0  0  0
    2.4288   -4.3225   -3.6855 H   0  0  0  0  0  0  0  0  0  0  0  0
    3.6693   -3.0908   -1.9449 H   0  0  0  0  0  0  0  0  0  0  0  0
    3.9706   -0.1229    1.3312 H   0  0  0  0  0  0  0  0  0  0  0  0
    3.3377   -0.1050    3.6703 H   0  0  0  0  0  0  0  0  0  0  0  0
    4.1891    0.0005    5.7966 H   0  0  0  0  0  0  0  0  0  0  0  0
    2.5441   -0.7141    5.7542 H   0  0  0  0  0  0  0  0  0  0  0  0
    2.1827   -0.2311    8.1215 H   0  0  0  0  0  0  0  0  0  0  0  0
    3.5326    1.5858    9.1033 H   0  0  0  0  0  0  0  0  0  0  0  0
    4.8936    1.3053    7.9905 H   0  0  0  0  0  0  0  0  0  0  0  0
    3.9464   -0.4904   10.1746 H   0  0  0  0  0  0  0  0  0  0  0  0
    3.6781   -2.1698    8.5119 H   0  0  0  0  0  0  0  0  0  0  0  0
    5.0003   -1.4580    7.5619 H   0  0  0  0  0  0  0  0  0  0  0  0
    1.7783    3.6160    5.1689 H   0  0  0  0  0  0  0  0  0  0  0  0
    2.1901    2.9759    0.9220 H   0  0  0  0  0  0  0  0  0  0  0  0
  1  2  2  0  0  0  0
  2  3  1  0  0  0  0
  2 23  1  0  0  0  0
  3  4  1  0  0  0  0
  3 40  1  0  0  0  0
  4  5  1  0  0  0  0
  4 22  2  0  0  0  0
  5  6  2  0  0  0  0
  5 41  1  0  0  0  0
  6  7  1  0  0  0  0
  6 42  1  0  0  0  0
  7  8  1  0  0  0  0
  7 21  2  0  0  0  0
  8  9  1  0  0  0  0
  9 10  1  0  0  0  0
  9 20  2  0  0  0  0
 10 11  2  0  0  0  0
 10 43  1  0  0  0  0
 11 12  1  0  0  0  0
 11 44  1  0  0  0  0
 12 13  2  0  0  0  0
 13 14  1  0  0  0  0
 13 20  1  0  0  0  0
 14 15  1  0  0  0  0
 14 45  1  0  0  0  0
 15 16  2  0  0  0  0
 15 17  1  0  0  0  0
 17 18  1  0  0  0  0
 17 19  1  0  0  0  0
 17 46  1  0  0  0  0
 18 19  1  0  0  0  0
 18 47  1  0  0  0  0
 18 48  1  0  0  0  0
 19 49  1  0  0  0  0
 19 50  1  0  0  0  0
 20 51  1  0  0  0  0
 21 22  1  0  0  0  0
 21 52  1  0  0  0  0
 22 53  1  0  0  0  0
 23 24  1  0  0  0  0
 23 54  1  0  0  0  0
 24 25  1  0  0  0  0
 24 39  2  0  0  0  0
 25 26  2  0  0  0  0
 25 55  1  0  0  0  0
 26 27  1  0  0  0  0
 26 33  1  0  0  0  0
 27 28  1  0  0  0  0
 28 29  1  0  0  0  0
 28 56  1  0  0  0  0
 28 57  1  0  0  0  0
 29 30  1  0  0  0  0
 29 32  1  0  0  0  0
 29 58  1  0  0  0  0
 30 31  1  0  0  0  0
 30 59  1  0  0  0  0
 30 60  1  0  0  0  0
 31 32  1  0  0  0  0
 31 61  1  0  0  0  0
 32 62  1  0  0  0  0
 32 63  1  0  0  0  0
 33 34  2  0  0  0  0
 33 64  1  0  0  0  0
 34 35  1  0  0  0  0
 34 39  1  0  0  0  0
 35 36  1  0  0  0  0
 35 37  1  0  0  0  0
 35 38  1  0  0  0  0
 39 65  1  0  0  0  0
M  END
$$$$
