CHEMBL410659
 OpenBabel04072215383D

 63 69  0  0  1  0  0  0  0  0999 V2000
    5.9602   -8.9313   -1.7360 N   0  0  0  0  0  0  0  0  0  0  0  0
    6.3023   -7.6167   -1.8650 C   0  0  0  0  0  0  0  0  0  0  0  0
    6.8961   -7.2988   -2.9942 N   0  0  0  0  0  0  0  0  0  0  0  0
    7.2598   -5.9895   -3.2201 C   0  0  0  0  0  0  0  0  0  0  0  0
    7.0340   -4.9896   -2.3519 C   0  0  0  0  0  0  0  0  0  0  0  0
    6.4106   -5.2978   -1.1586 N   0  0  0  0  0  0  0  0  0  0  0  0
    6.0360   -6.6020   -0.8705 C   0  0  0  0  0  0  0  0  0  0  0  0
    5.4559   -6.5429    0.3811 C   0  0  0  0  0  0  0  0  0  0  0  0
    4.8290   -7.5878    1.1851 C   0  0  0  0  0  0  0  0  0  0  0  0
    3.6556   -7.2469    1.8659 C   0  0  0  0  0  0  0  0  0  0  0  0
    3.0906   -8.1258    2.7819 C   0  0  0  0  0  0  0  0  0  0  0  0
    3.6949   -9.3629    3.0340 C   0  0  0  0  0  0  0  0  0  0  0  0
    3.1842  -10.1902    4.0316 C   0  0  0  0  0  0  0  0  0  0  0  0
    3.7975  -11.4037    4.2996 C   0  0  0  0  0  0  0  0  0  0  0  0
    4.8969  -11.7963    3.5411 C   0  0  0  0  0  0  0  0  0  0  0  0
    5.5405  -13.1087    3.7972 C   0  0  0  0  0  0  0  0  0  0  0  0
    5.8909  -13.9812    2.7547 C   0  0  0  0  0  0  0  0  0  0  0  0
    6.3994  -15.2640    3.0178 C   0  0  0  0  0  0  0  0  0  0  0  0
    6.5792  -15.6957    4.3300 C   0  0  0  0  0  0  0  0  0  0  0  0
    6.2613  -14.8449    5.3816 C   0  0  0  0  0  0  0  0  0  0  0  0
    5.7528  -13.5679    5.1158 C   0  0  0  0  0  0  0  0  0  0  0  0
    5.4036  -11.0011    2.5520 N   0  0  0  0  0  0  0  0  0  0  0  0
    4.8403   -9.7812    2.3228 C   0  0  0  0  0  0  0  0  0  0  0  0
    5.3881   -8.8632    1.4082 C   0  0  0  0  0  0  0  0  0  0  0  0
    5.4658   -5.2348    0.8433 N   0  0  0  0  0  0  0  0  0  0  0  0
    6.0497   -4.5092   -0.0882 C   0  0  0  0  0  0  0  0  0  0  0  0
    6.2117   -2.9856    0.0119 C   0  0  1  0  0  0  0  0  0  0  0  0
    5.6467   -2.3217    1.2918 C   0  0  0  0  0  0  0  0  0  0  0  0
    7.0800   -2.2900    1.8946 C   0  0  1  0  0  0  0  0  0  0  0  0
    7.4211   -3.3917    2.9057 C   0  0  0  0  0  0  0  0  0  0  0  0
    8.8095   -3.2664    3.3836 N   0  0  0  0  0  0  0  0  0  0  0  0
    9.0915   -4.3616    4.3543 C   0  0  0  0  0  0  0  0  0  0  0  0
    9.8092   -3.3236    5.2310 C   0  0  0  0  0  0  0  0  0  0  0  0
    8.9174   -2.2973    4.5077 C   0  0  0  0  0  0  0  0  0  0  0  0
    7.6126   -2.4799    0.4516 C   0  0  0  0  0  0  0  0  0  0  0  0
    6.0532   -9.4283   -2.6145 H   0  0  0  0  0  0  0  0  0  0  0  0
    5.0830   -9.1156   -1.2657 H   0  0  0  0  0  0  0  0  0  0  0  0
    7.7517   -5.7920   -4.1675 H   0  0  0  0  0  0  0  0  0  0  0  0
    7.3150   -3.9656   -2.5446 H   0  0  0  0  0  0  0  0  0  0  0  0
    3.2003   -6.2678    1.7198 H   0  0  0  0  0  0  0  0  0  0  0  0
    2.1994   -7.8191    3.3247 H   0  0  0  0  0  0  0  0  0  0  0  0
    2.3261   -9.8881    4.6262 H   0  0  0  0  0  0  0  0  0  0  0  0
    3.4051  -12.0368    5.0889 H   0  0  0  0  0  0  0  0  0  0  0  0
    5.7412  -13.6762    1.7213 H   0  0  0  0  0  0  0  0  0  0  0  0
    6.6438  -15.9309    2.1944 H   0  0  0  0  0  0  0  0  0  0  0  0
    6.9658  -16.6922    4.5326 H   0  0  0  0  0  0  0  0  0  0  0  0
    6.4012  -15.1713    6.4092 H   0  0  0  0  0  0  0  0  0  0  0  0
    5.5149  -12.9280    5.9630 H   0  0  0  0  0  0  0  0  0  0  0  0
    6.3120   -9.1444    0.9070 H   0  0  0  0  0  0  0  0  0  0  0  0
    5.9520   -2.5074   -0.9402 H   0  0  0  0  0  0  0  0  0  0  0  0
    4.9011   -2.8831    1.8625 H   0  0  0  0  0  0  0  0  0  0  0  0
    5.2364   -1.3201    1.1079 H   0  0  0  0  0  0  0  0  0  0  0  0
    7.3108   -1.3010    2.3150 H   0  0  0  0  0  0  0  0  0  0  0  0
    7.3204   -4.3731    2.4322 H   0  0  0  0  0  0  0  0  0  0  0  0
    6.6990   -3.3658    3.7319 H   0  0  0  0  0  0  0  0  0  0  0  0
    9.7270   -5.1628    3.9660 H   0  0  0  0  0  0  0  0  0  0  0  0
    8.2149   -4.8100    4.8400 H   0  0  0  0  0  0  0  0  0  0  0  0
   10.8802   -3.2231    5.0204 H   0  0  0  0  0  0  0  0  0  0  0  0
    9.6599   -3.4197    6.3097 H   0  0  0  0  0  0  0  0  0  0  0  0
    9.4183   -1.3576    4.2562 H   0  0  0  0  0  0  0  0  0  0  0  0
    7.9884   -2.0701    5.0450 H   0  0  0  0  0  0  0  0  0  0  0  0
    8.4549   -3.1636    0.3200 H   0  0  0  0  0  0  0  0  0  0  0  0
    7.8820   -1.5230   -0.0183 H   0  0  0  0  0  0  0  0  0  0  0  0
  1  2  1  0  0  0  0
  1 36  1  0  0  0  0
  1 37  1  0  0  0  0
  2  3  2  0  0  0  0
  2  7  1  0  0  0  0
  3  4  1  0  0  0  0
  4  5  2  0  0  0  0
  4 38  1  0  0  0  0
  5  6  1  0  0  0  0
  5 39  1  0  0  0  0
  6  7  1  0  0  0  0
  6 26  1  0  0  0  0
  7  8  2  0  0  0  0
  8  9  1  0  0  0  0
  8 25  1  0  0  0  0
  9 10  1  0  0  0  0
  9 24  2  0  0  0  0
 10 11  2  0  0  0  0
 10 40  1  0  0  0  0
 11 12  1  0  0  0  0
 11 41  1  0  0  0  0
 12 13  1  0  0  0  0
 12 23  2  0  0  0  0
 13 14  2  0  0  0  0
 13 42  1  0  0  0  0
 14 15  1  0  0  0  0
 14 43  1  0  0  0  0
 15 16  1  0  0  0  0
 15 22  2  0  0  0  0
 16 17  1  0  0  0  0
 16 21  2  0  0  0  0
 17 18  2  0  0  0  0
 17 44  1  0  0  0  0
 18 19  1  0  0  0  0
 18 45  1  0  0  0  0
 19 20  2  0  0  0  0
 19 46  1  0  0  0  0
 20 21  1  0  0  0  0
 20 47  1  0  0  0  0
 21 48  1  0  0  0  0
 22 23  1  0  0  0  0
 23 24  1  0  0  0  0
 24 49  1  0  0  0  0
 25 26  2  0  0  0  0
 27 28  1  0  0  0  0
 27 35  1  0  0  0  0
 27 26  1  0  0  0  0
 27 50  1  6  0  0  0
 28 29  1  0  0  0  0
 28 51  1  0  0  0  0
 28 52  1  0  0  0  0
 29 30  1  0  0  0  0
 29 35  1  0  0  0  0
 29 53  1  1  0  0  0
 30 31  1  0  0  0  0
 30 54  1  0  0  0  0
 30 55  1  0  0  0  0
 31 32  1  0  0  0  0
 31 34  1  0  0  0  0
 32 33  1  0  0  0  0
 32 56  1  0  0  0  0
 32 57  1  0  0  0  0
 33 34  1  0  0  0  0
 33 58  1  0  0  0  0
 33 59  1  0  0  0  0
 34 60  1  0  0  0  0
 34 61  1  0  0  0  0
 35 62  1  0  0  0  0
 35 63  1  0  0  0  0
M  END
$$$$
