CHEMBL2006765
 OpenBabel04072215363D

 47 49  0  0  0  0  0  0  0  0999 V2000
    2.8063    2.0883    1.7682 C   0  0  0  0  0  0  0  0  0  0  0  0
    2.3924    0.7108    2.2671 C   0  0  0  0  0  0  0  0  0  0  0  0
    3.0367   -0.4202    1.4682 C   0  0  0  0  0  0  0  0  0  0  0  0
    4.4812   -0.4104    1.5631 N   0  0  0  0  0  0  0  0  0  0  0  0
    5.1458   -1.0696    2.5797 C   0  0  0  0  0  0  0  0  0  0  0  0
    4.5800   -1.7441    3.4295 O   0  0  0  0  0  0  0  0  0  0  0  0
    6.6268   -0.9434    2.5898 C   0  0  0  0  0  0  0  0  0  0  0  0
    7.2718    0.1907    2.0899 C   0  0  0  0  0  0  0  0  0  0  0  0
    8.6634    0.2818    2.1495 C   0  0  0  0  0  0  0  0  0  0  0  0
    9.4298   -0.7376    2.7310 C   0  0  0  0  0  0  0  0  0  0  0  0
   10.8307   -0.6539    2.7953 N   0  0  0  0  0  0  0  0  0  0  0  0
   11.5585    0.5177    3.0464 C   0  0  0  0  0  0  0  0  0  0  0  0
   12.8064    0.5746    2.5313 N   0  0  0  0  0  0  0  0  0  0  0  0
   13.6115    1.6288    2.8221 C   0  0  0  0  0  0  0  0  0  0  0  0
   14.9127    1.6848    2.3095 N   0  0  0  0  0  0  0  0  0  0  0  0
   15.0903    1.0127    1.0071 C   0  0  0  0  0  0  0  0  0  0  0  0
   14.2631    1.5703   -0.1664 C   0  0  0  0  0  0  0  0  0  0  0  0
   13.4924    2.6283    0.1786 F   0  0  0  0  0  0  0  0  0  0  0  0
   15.0839    2.0003   -1.1577 F   0  0  0  0  0  0  0  0  0  0  0  0
   13.4541    0.6264   -0.7000 F   0  0  0  0  0  0  0  0  0  0  0  0
   13.1029    2.6384    3.6523 C   0  0  0  0  0  0  0  0  0  0  0  0
   13.5734    3.8541    4.2260 C   0  0  0  0  0  0  0  0  0  0  0  0
   12.5520    4.3769    4.9941 C   0  0  0  0  0  0  0  0  0  0  0  0
   11.4732    3.5390    4.8806 N   0  0  0  0  0  0  0  0  0  0  0  0
   11.8010    2.4810    4.0816 C   0  0  0  0  0  0  0  0  0  0  0  0
   10.9860    1.4646    3.8068 N   0  0  0  0  0  0  0  0  0  0  0  0
    8.7799   -1.8831    3.2024 C   0  0  0  0  0  0  0  0  0  0  0  0
    7.3847   -1.9772    3.1539 C   0  0  0  0  0  0  0  0  0  0  0  0
    2.3085    2.8683    2.3527 H   0  0  0  0  0  0  0  0  0  0  0  0
    2.5306    2.2221    0.7174 H   0  0  0  0  0  0  0  0  0  0  0  0
    3.8864    2.2385    1.8623 H   0  0  0  0  0  0  0  0  0  0  0  0
    1.3023    0.6202    2.1919 H   0  0  0  0  0  0  0  0  0  0  0  0
    2.6510    0.6205    3.3286 H   0  0  0  0  0  0  0  0  0  0  0  0
    2.7798   -0.3385    0.4070 H   0  0  0  0  0  0  0  0  0  0  0  0
    2.6633   -1.3835    1.8324 H   0  0  0  0  0  0  0  0  0  0  0  0
    4.9996    0.0711    0.8418 H   0  0  0  0  0  0  0  0  0  0  0  0
    6.7155    1.0312    1.6887 H   0  0  0  0  0  0  0  0  0  0  0  0
    9.1457    1.1770    1.7616 H   0  0  0  0  0  0  0  0  0  0  0  0
   11.3178   -1.1884    2.0889 H   0  0  0  0  0  0  0  0  0  0  0  0
   15.2808    2.6310    2.3484 H   0  0  0  0  0  0  0  0  0  0  0  0
   14.9117   -0.0646    1.1141 H   0  0  0  0  0  0  0  0  0  0  0  0
   16.1526    1.1041    0.7495 H   0  0  0  0  0  0  0  0  0  0  0  0
   14.5580    4.2871    4.1192 H   0  0  0  0  0  0  0  0  0  0  0  0
   12.5009    5.2575    5.6185 H   0  0  0  0  0  0  0  0  0  0  0  0
   10.5758    3.6431    5.3327 H   0  0  0  0  0  0  0  0  0  0  0  0
    9.3512   -2.6858    3.6636 H   0  0  0  0  0  0  0  0  0  0  0  0
    6.8879   -2.8523    3.5700 H   0  0  0  0  0  0  0  0  0  0  0  0
  1  2  1  0  0  0  0
  1 29  1  0  0  0  0
  1 30  1  0  0  0  0
  1 31  1  0  0  0  0
  2  3  1  0  0  0  0
  2 32  1  0  0  0  0
  2 33  1  0  0  0  0
  3  4  1  0  0  0  0
  3 34  1  0  0  0  0
  3 35  1  0  0  0  0
  4  5  1  0  0  0  0
  4 36  1  0  0  0  0
  5  6  2  0  0  0  0
  5  7  1  0  0  0  0
  7  8  1  0  0  0  0
  7 28  2  0  0  0  0
  8  9  2  0  0  0  0
  8 37  1  0  0  0  0
  9 10  1  0  0  0  0
  9 38  1  0  0  0  0
 10 11  1  0  0  0  0
 10 27  2  0  0  0  0
 11 12  1  0  0  0  0
 11 39  1  0  0  0  0
 12 13  1  0  0  0  0
 12 26  2  0  0  0  0
 13 14  2  0  0  0  0
 14 15  1  0  0  0  0
 14 21  1  0  0  0  0
 15 16  1  0  0  0  0
 15 40  1  0  0  0  0
 16 17  1  0  0  0  0
 16 41  1  0  0  0  0
 16 42  1  0  0  0  0
 17 18  1  0  0  0  0
 17 19  1  0  0  0  0
 17 20  1  0  0  0  0
 21 22  1  0  0  0  0
 21 25  2  0  0  0  0
 22 23  2  0  0  0  0
 22 43  1  0  0  0  0
 23 24  1  0  0  0  0
 23 44  1  0  0  0  0
 24 25  1  0  0  0  0
 24 45  1  0  0  0  0
 25 26  1  0  0  0  0
 27 28  1  0  0  0  0
 27 46  1  0  0  0  0
 28 47  1  0  0  0  0
M  END
$$$$
