CHEMBL356245
 OpenBabel04072215363D

 45 47  0  0  0  0  0  0  0  0999 V2000
    1.8155    0.0948    1.8834 C   0  0  0  0  0  0  0  0  0  0  0  0
    3.1091    0.0765    1.2927 O   0  0  0  0  0  0  0  0  0  0  0  0
    3.6441    1.2837    0.9278 C   0  0  0  0  0  0  0  0  0  0  0  0
    2.9984    2.5320    1.0143 C   0  0  0  0  0  0  0  0  0  0  0  0
    3.6445    3.7173    0.6177 C   0  0  0  0  0  0  0  0  0  0  0  0
    4.9363    3.6345    0.1334 C   0  0  0  0  0  0  0  0  0  0  0  0
    5.5566    2.3845    0.0381 C   0  0  0  0  0  0  0  0  0  0  0  0
    4.9453    1.2077    0.4255 C   0  0  0  0  0  0  0  0  0  0  0  0
    6.8329    2.5091   -0.4976 N   0  0  0  0  0  0  0  0  0  0  0  0
    7.1340    3.8275   -0.7964 C   0  0  0  0  0  0  0  0  0  0  0  0
    8.1509    4.2163   -1.3303 O   0  0  0  0  0  0  0  0  0  0  0  0
    5.9208    4.6183   -0.3561 C   0  0  0  0  0  0  0  0  0  0  0  0
    5.7788    5.9544   -0.3610 C   0  0  0  0  0  0  0  0  0  0  0  0
    6.8091    6.8430   -0.7679 C   0  0  0  0  0  0  0  0  0  0  0  0
    6.8926    7.1886   -2.0893 N   0  0  0  0  0  0  0  0  0  0  0  0
    7.9636    8.0247   -2.3011 C   0  0  0  0  0  0  0  0  0  0  0  0
    8.2960    8.4756   -3.6797 C   0  0  0  0  0  0  0  0  0  0  0  0
    8.5910    8.2362   -1.0776 C   0  0  0  0  0  0  0  0  0  0  0  0
    9.8646    9.0068   -0.8260 C   0  0  0  0  0  0  0  0  0  0  0  0
    9.7802   10.4923   -1.1612 C   0  0  0  0  0  0  0  0  0  0  0  0
   11.0673   11.2069   -0.8152 C   0  0  0  0  0  0  0  0  0  0  0  0
   12.0552   10.6943   -0.3153 O   0  0  0  0  0  0  0  0  0  0  0  0
   11.0221   12.5256   -1.1249 O   0  0  0  0  0  0  0  0  0  0  0  0
    7.8404    7.4841   -0.0989 C   0  0  0  0  0  0  0  0  0  0  0  0
    8.1290    7.3395    1.3559 C   0  0  0  0  0  0  0  0  0  0  0  0
    1.5448   -0.9359    2.1343 H   0  0  0  0  0  0  0  0  0  0  0  0
    1.0673    0.4721    1.1791 H   0  0  0  0  0  0  0  0  0  0  0  0
    1.8148    0.6748    2.8122 H   0  0  0  0  0  0  0  0  0  0  0  0
    1.9814    2.6103    1.3887 H   0  0  0  0  0  0  0  0  0  0  0  0
    3.1259    4.6677    0.6953 H   0  0  0  0  0  0  0  0  0  0  0  0
    5.4532    0.2533    0.3470 H   0  0  0  0  0  0  0  0  0  0  0  0
    7.4730    1.7556   -0.6849 H   0  0  0  0  0  0  0  0  0  0  0  0
    4.8660    6.4085    0.0117 H   0  0  0  0  0  0  0  0  0  0  0  0
    6.2915    6.8290   -2.8178 H   0  0  0  0  0  0  0  0  0  0  0  0
    7.5749    8.0938   -4.4110 H   0  0  0  0  0  0  0  0  0  0  0  0
    9.2889    8.1196   -3.9724 H   0  0  0  0  0  0  0  0  0  0  0  0
    8.2798    9.5668   -3.7477 H   0  0  0  0  0  0  0  0  0  0  0  0
   10.6766    8.5389   -1.3976 H   0  0  0  0  0  0  0  0  0  0  0  0
   10.1566    8.9094    0.2250 H   0  0  0  0  0  0  0  0  0  0  0  0
    8.9669   10.9631   -0.5986 H   0  0  0  0  0  0  0  0  0  0  0  0
    9.6035   10.6353   -2.2310 H   0  0  0  0  0  0  0  0  0  0  0  0
   10.1743   12.8065   -1.5180 H   0  0  0  0  0  0  0  0  0  0  0  0
    9.0244    7.8820    1.6657 H   0  0  0  0  0  0  0  0  0  0  0  0
    8.2805    6.2847    1.6085 H   0  0  0  0  0  0  0  0  0  0  0  0
    7.2899    7.7210    1.9465 H   0  0  0  0  0  0  0  0  0  0  0  0
  1  2  1  0  0  0  0
  1 26  1  0  0  0  0
  1 27  1  0  0  0  0
  1 28  1  0  0  0  0
  2  3  1  0  0  0  0
  3  4  1  0  0  0  0
  3  8  2  0  0  0  0
  4  5  2  0  0  0  0
  4 29  1  0  0  0  0
  5  6  1  0  0  0  0
  5 30  1  0  0  0  0
  6  7  2  0  0  0  0
  6 12  1  0  0  0  0
  7  8  1  0  0  0  0
  7  9  1  0  0  0  0
  8 31  1  0  0  0  0
  9 10  1  0  0  0  0
  9 32  1  0  0  0  0
 10 11  2  0  0  0  0
 10 12  1  0  0  0  0
 12 13  2  0  0  0  0
 13 14  1  0  0  0  0
 13 33  1  0  0  0  0
 14 15  1  0  0  0  0
 14 24  2  0  0  0  0
 15 16  1  0  0  0  0
 15 34  1  0  0  0  0
 16 17  1  0  0  0  0
 16 18  2  0  0  0  0
 17 35  1  0  0  0  0
 17 36  1  0  0  0  0
 17 37  1  0  0  0  0
 18 19  1  0  0  0  0
 18 24  1  0  0  0  0
 19 20  1  0  0  0  0
 19 38  1  0  0  0  0
 19 39  1  0  0  0  0
 20 21  1  0  0  0  0
 20 40  1  0  0  0  0
 20 41  1  0  0  0  0
 21 22  2  0  0  0  0
 21 23  1  0  0  0  0
 23 42  1  0  0  0  0
 24 25  1  0  0  0  0
 25 43  1  0  0  0  0
 25 44  1  0  0  0  0
 25 45  1  0  0  0  0
M  END
$$$$
