CHEMBL242555
 OpenBabel04072215363D

 57 60  0  0  0  0  0  0  0  0999 V2000
    1.1061   -0.7560   -0.1725 C   0  0  0  0  0  0  0  0  0  0  0  0
    2.3609   -0.1438    0.0507 O   0  0  0  0  0  0  0  0  0  0  0  0
    2.8130   -0.2519    1.4058 C   0  0  0  0  0  0  0  0  0  0  0  0
    4.1381    0.4936    1.4345 C   0  0  0  0  0  0  0  0  0  0  0  0
    4.7901    0.5012    2.6871 O   0  0  0  0  0  0  0  0  0  0  0  0
    6.1553    0.6652    2.6802 C   0  0  0  0  0  0  0  0  0  0  0  0
    6.7299    0.0759    3.8332 C   0  0  0  0  0  0  0  0  0  0  0  0
    8.1005    0.0418    4.0902 C   0  0  0  0  0  0  0  0  0  0  0  0
    8.5605   -0.5546    5.1957 N   0  0  0  0  0  0  0  0  0  0  0  0
    9.8863   -0.5445    5.3790 C   0  0  0  0  0  0  0  0  0  0  0  0
   10.7893    0.0209    4.5719 N   0  0  0  0  0  0  0  0  0  0  0  0
   10.3254    0.6173    3.4585 C   0  0  0  0  0  0  0  0  0  0  0  0
   11.2452    1.1944    2.5485 N   0  0  0  0  0  0  0  0  0  0  0  0
   12.6313    1.1045    2.5942 C   0  0  0  0  0  0  0  0  0  0  0  0
   13.3570    0.1349    3.1583 C   0  0  0  0  0  0  0  0  0  0  0  0
   14.8276    0.1158    3.1949 C   0  0  0  0  0  0  0  0  0  0  0  0
   15.3974   -0.8285    3.7167 O   0  0  0  0  0  0  0  0  0  0  0  0
   15.5507    1.2743    2.5901 C   0  0  0  0  0  0  0  0  0  0  0  0
   16.9319    1.4052    2.6444 O   0  0  0  0  0  0  0  0  0  0  0  0
   17.5596    0.8440    3.8065 C   0  0  0  0  0  0  0  0  0  0  0  0
   18.8294    1.6067    4.1027 C   0  0  0  0  0  0  0  0  0  0  0  0
   18.9851    2.2740    5.3273 C   0  0  0  0  0  0  0  0  0  0  0  0
   20.1692    2.9506    5.6220 C   0  0  0  0  0  0  0  0  0  0  0  0
   21.2098    2.9677    4.6963 C   0  0  0  0  0  0  0  0  0  0  0  0
   21.0654    2.3127    3.4739 C   0  0  0  0  0  0  0  0  0  0  0  0
   19.8811    1.6348    3.1771 C   0  0  0  0  0  0  0  0  0  0  0  0
   14.8457    2.2139    1.9473 C   0  0  0  0  0  0  0  0  0  0  0  0
   13.3705    2.2042    1.8865 C   0  0  0  0  0  0  0  0  0  0  0  0
   12.7656    3.0845    1.2898 O   0  0  0  0  0  0  0  0  0  0  0  0
    8.9507    0.6355    3.1583 C   0  0  0  0  0  0  0  0  0  0  0  0
    8.3953    1.1981    1.9929 C   0  0  0  0  0  0  0  0  0  0  0  0
    7.0122    1.2558    1.7445 C   0  0  0  0  0  0  0  0  0  0  0  0
    6.8267    1.8541    0.5364 O   0  0  0  0  0  0  0  0  0  0  0  0
    5.6944    2.6225    0.1941 C   0  0  0  0  0  0  0  0  0  0  0  0
    0.8526   -0.6211   -1.2283 H   0  0  0  0  0  0  0  0  0  0  0  0
    0.3342   -0.2775    0.4353 H   0  0  0  0  0  0  0  0  0  0  0  0
    1.1621   -1.8259    0.0405 H   0  0  0  0  0  0  0  0  0  0  0  0
    2.9356   -1.2993    1.6964 H   0  0  0  0  0  0  0  0  0  0  0  0
    2.0931    0.2228    2.0837 H   0  0  0  0  0  0  0  0  0  0  0  0
    3.8546    1.5193    1.2061 H   0  0  0  0  0  0  0  0  0  0  0  0
    4.7809    0.0757    0.6521 H   0  0  0  0  0  0  0  0  0  0  0  0
    6.0724   -0.4087    4.5570 H   0  0  0  0  0  0  0  0  0  0  0  0
   10.2692   -1.0427    6.2633 H   0  0  0  0  0  0  0  0  0  0  0  0
   10.9438    2.1104    2.2074 H   0  0  0  0  0  0  0  0  0  0  0  0
   12.8928   -0.7131    3.6464 H   0  0  0  0  0  0  0  0  0  0  0  0
   17.8139   -0.2060    3.6203 H   0  0  0  0  0  0  0  0  0  0  0  0
   16.9016    0.9094    4.6820 H   0  0  0  0  0  0  0  0  0  0  0  0
   18.1855    2.2659    6.0650 H   0  0  0  0  0  0  0  0  0  0  0  0
   20.2800    3.4602    6.5756 H   0  0  0  0  0  0  0  0  0  0  0  0
   22.1342    3.4897    4.9280 H   0  0  0  0  0  0  0  0  0  0  0  0
   21.8777    2.3265    2.7523 H   0  0  0  0  0  0  0  0  0  0  0  0
   19.7820    1.1239    2.2217 H   0  0  0  0  0  0  0  0  0  0  0  0
   15.3383    3.0447    1.4630 H   0  0  0  0  0  0  0  0  0  0  0  0
    9.0576    1.6072    1.2302 H   0  0  0  0  0  0  0  0  0  0  0  0
    6.0171    3.4663   -0.4228 H   0  0  0  0  0  0  0  0  0  0  0  0
    5.1632    3.0346    1.0553 H   0  0  0  0  0  0  0  0  0  0  0  0
    5.0567    2.0148   -0.4554 H   0  0  0  0  0  0  0  0  0  0  0  0
  1  2  1  0  0  0  0
  1 35  1  0  0  0  0
  1 36  1  0  0  0  0
  1 37  1  0  0  0  0
  2  3  1  0  0  0  0
  3  4  1  0  0  0  0
  3 38  1  0  0  0  0
  3 39  1  0  0  0  0
  4  5  1  0  0  0  0
  4 40  1  0  0  0  0
  4 41  1  0  0  0  0
  5  6  1  0  0  0  0
  6  7  1  0  0  0  0
  6 32  2  0  0  0  0
  7  8  2  0  0  0  0
  7 42  1  0  0  0  0
  8  9  1  0  0  0  0
  8 30  1  0  0  0  0
  9 10  2  0  0  0  0
 10 11  1  0  0  0  0
 10 43  1  0  0  0  0
 11 12  2  0  0  0  0
 12 13  1  0  0  0  0
 12 30  1  0  0  0  0
 13 14  1  0  0  0  0
 13 44  1  0  0  0  0
 14 15  2  0  0  0  0
 14 28  1  0  0  0  0
 15 16  1  0  0  0  0
 15 45  1  0  0  0  0
 16 17  2  0  0  0  0
 16 18  1  0  0  0  0
 18 19  1  0  0  0  0
 18 27  2  0  0  0  0
 19 20  1  0  0  0  0
 20 21  1  0  0  0  0
 20 46  1  0  0  0  0
 20 47  1  0  0  0  0
 21 22  1  0  0  0  0
 21 26  2  0  0  0  0
 22 23  2  0  0  0  0
 22 48  1  0  0  0  0
 23 24  1  0  0  0  0
 23 49  1  0  0  0  0
 24 25  2  0  0  0  0
 24 50  1  0  0  0  0
 25 26  1  0  0  0  0
 25 51  1  0  0  0  0
 26 52  1  0  0  0  0
 27 28  1  0  0  0  0
 27 53  1  0  0  0  0
 28 29  2  0  0  0  0
 30 31  2  0  0  0  0
 31 32  1  0  0  0  0
 31 54  1  0  0  0  0
 32 33  1  0  0  0  0
 33 34  1  0  0  0  0
 34 55  1  0  0  0  0
 34 56  1  0  0  0  0
 34 57  1  0  0  0  0
M  END
$$$$
