CHEMBL378687
 OpenBabel04072215373D

 43 46  0  0  0  0  0  0  0  0999 V2000
    1.2380   -0.1732   -1.7525 N   0  0  0  0  0  0  0  0  0  0  0  0
    2.5762   -0.3083   -1.4052 C   0  0  0  0  0  0  0  0  0  0  0  0
    3.3892    0.6969   -1.7879 N   0  0  0  0  0  0  0  0  0  0  0  0
    4.6900    0.6461   -1.4438 C   0  0  0  0  0  0  0  0  0  0  0  0
    5.3120   -0.3001   -0.7348 N   0  0  0  0  0  0  0  0  0  0  0  0
    4.4680   -1.2846   -0.3937 C   0  0  0  0  0  0  0  0  0  0  0  0
    4.8377   -2.3697    0.3354 O   0  0  0  0  0  0  0  0  0  0  0  0
    3.7511   -3.2020    0.5177 N   0  0  0  0  0  0  0  0  0  0  0  0
    2.7172   -2.6191   -0.1164 C   0  0  0  0  0  0  0  0  0  0  0  0
    1.3911   -3.2372   -0.0955 C   0  0  0  0  0  0  0  0  0  0  0  0
    0.9826   -3.9535    1.0272 C   0  0  0  0  0  0  0  0  0  0  0  0
   -0.3140   -4.4678    1.1052 C   0  0  0  0  0  0  0  0  0  0  0  0
   -1.2469   -4.2608    0.0882 C   0  0  0  0  0  0  0  0  0  0  0  0
   -2.5799   -4.7309    0.1539 N   0  0  0  0  0  0  0  0  0  0  0  0
   -3.1439   -5.3615    1.2442 C   0  0  0  0  0  0  0  0  0  0  0  0
   -2.5945   -5.4960    2.3353 O   0  0  0  0  0  0  0  0  0  0  0  0
   -4.3989   -5.8834    0.9689 N   0  0  0  0  0  0  0  0  0  0  0  0
   -5.0104   -6.6726    1.9788 C   0  0  0  0  0  0  0  0  0  0  0  0
   -5.0759   -6.2210    3.3028 C   0  0  0  0  0  0  0  0  0  0  0  0
   -5.4780   -7.0810    4.3353 C   0  0  0  0  0  0  0  0  0  0  0  0
   -5.4872   -6.6026    5.7692 C   0  0  0  0  0  0  0  0  0  0  0  0
   -5.1107   -5.3073    5.9253 F   0  0  0  0  0  0  0  0  0  0  0  0
   -6.7253   -6.7035    6.3282 F   0  0  0  0  0  0  0  0  0  0  0  0
   -4.6597   -7.3383    6.5658 F   0  0  0  0  0  0  0  0  0  0  0  0
   -5.8391   -8.3999    4.0137 C   0  0  0  0  0  0  0  0  0  0  0  0
   -5.8277   -8.8361    2.6849 C   0  0  0  0  0  0  0  0  0  0  0  0
   -5.4346   -7.9645    1.6741 C   0  0  0  0  0  0  0  0  0  0  0  0
   -5.3709   -8.4068    0.4090 F   0  0  0  0  0  0  0  0  0  0  0  0
   -0.8309   -3.5786   -1.0541 C   0  0  0  0  0  0  0  0  0  0  0  0
    0.4871   -3.1082   -1.1581 C   0  0  0  0  0  0  0  0  0  0  0  0
    3.1216   -1.3789   -0.6913 C   0  0  0  0  0  0  0  0  0  0  0  0
    1.0578    0.7622   -2.1014 H   0  0  0  0  0  0  0  0  0  0  0  0
    0.5869   -0.4936   -1.0447 H   0  0  0  0  0  0  0  0  0  0  0  0
    5.3025    1.4778   -1.7791 H   0  0  0  0  0  0  0  0  0  0  0  0
    1.6586   -4.1156    1.8667 H   0  0  0  0  0  0  0  0  0  0  0  0
   -0.5458   -5.0242    2.0087 H   0  0  0  0  0  0  0  0  0  0  0  0
   -3.1981   -4.4910   -0.6121 H   0  0  0  0  0  0  0  0  0  0  0  0
   -4.5024   -6.2448    0.0277 H   0  0  0  0  0  0  0  0  0  0  0  0
   -4.7515   -5.2093    3.5455 H   0  0  0  0  0  0  0  0  0  0  0  0
   -6.1148   -9.0952    4.8052 H   0  0  0  0  0  0  0  0  0  0  0  0
   -6.0867   -9.8614    2.4388 H   0  0  0  0  0  0  0  0  0  0  0  0
   -1.5126   -3.3970   -1.8815 H   0  0  0  0  0  0  0  0  0  0  0  0
    0.7896   -2.6295   -2.0870 H   0  0  0  0  0  0  0  0  0  0  0  0
  1  2  1  0  0  0  0
  1 32  1  0  0  0  0
  1 33  1  0  0  0  0
  2  3  1  0  0  0  0
  2 31  2  0  0  0  0
  3  4  2  0  0  0  0
  4  5  1  0  0  0  0
  4 34  1  0  0  0  0
  5  6  2  0  0  0  0
  6  7  1  0  0  0  0
  6 31  1  0  0  0  0
  7  8  1  0  0  0  0
  8  9  2  0  0  0  0
  9 10  1  0  0  0  0
  9 31  1  0  0  0  0
 10 11  1  0  0  0  0
 10 30  2  0  0  0  0
 11 12  2  0  0  0  0
 11 35  1  0  0  0  0
 12 13  1  0  0  0  0
 12 36  1  0  0  0  0
 13 14  1  0  0  0  0
 13 29  2  0  0  0  0
 14 15  1  0  0  0  0
 14 37  1  0  0  0  0
 15 16  2  0  0  0  0
 15 17  1  0  0  0  0
 17 18  1  0  0  0  0
 17 38  1  0  0  0  0
 18 19  1  0  0  0  0
 18 27  2  0  0  0  0
 19 20  2  0  0  0  0
 19 39  1  0  0  0  0
 20 21  1  0  0  0  0
 20 25  1  0  0  0  0
 21 22  1  0  0  0  0
 21 23  1  0  0  0  0
 21 24  1  0  0  0  0
 25 26  2  0  0  0  0
 25 40  1  0  0  0  0
 26 27  1  0  0  0  0
 26 41  1  0  0  0  0
 27 28  1  0  0  0  0
 29 30  1  0  0  0  0
 29 42  1  0  0  0  0
 30 43  1  0  0  0  0
M  END
$$$$
