CHEMBL3954230
 OpenBabel04072215373D

 58 61  0  0  0  0  0  0  0  0999 V2000
    2.5468    0.0353   -0.1345 C   0  0  0  0  0  0  0  0  0  0  0  0
    1.0441    0.0237   -0.1024 C   0  0  0  0  0  0  0  0  0  0  0  0
    0.3971    1.2717   -0.1310 C   0  0  0  0  0  0  0  0  0  0  0  0
   -0.9933    1.4062   -0.0749 C   0  0  0  0  0  0  0  0  0  0  0  0
   -1.6361    2.6672    0.0103 N   0  0  0  0  0  0  0  0  0  0  0  0
   -0.9886    3.8541    0.3029 C   0  0  0  0  0  0  0  0  0  0  0  0
    0.2162    3.9629    0.5176 O   0  0  0  0  0  0  0  0  0  0  0  0
   -1.8465    4.9444    0.3827 N   0  0  0  0  0  0  0  0  0  0  0  0
   -1.2754    6.2066    0.6904 C   0  0  0  0  0  0  0  0  0  0  0  0
   -0.1810    6.6910   -0.0326 C   0  0  0  0  0  0  0  0  0  0  0  0
    0.4657    7.8583    0.3680 C   0  0  0  0  0  0  0  0  0  0  0  0
    0.0313    8.5471    1.5024 C   0  0  0  0  0  0  0  0  0  0  0  0
    0.8994    9.9785    1.9250 Cl  0  0  0  0  0  0  0  0  0  0  0  0
   -1.0673    8.0780    2.2408 C   0  0  0  0  0  0  0  0  0  0  0  0
   -1.5425    8.7379    3.5157 C   0  0  0  0  0  0  0  0  0  0  0  0
   -2.5427    9.8445    3.2271 C   0  0  0  0  0  0  0  0  0  0  0  0
   -2.1719    7.8424    4.3413 F   0  0  0  0  0  0  0  0  0  0  0  0
   -0.5388    9.2516    4.2806 F   0  0  0  0  0  0  0  0  0  0  0  0
   -1.7429    6.9202    1.7921 C   0  0  0  0  0  0  0  0  0  0  0  0
   -1.7615    0.2452   -0.0944 C   0  0  0  0  0  0  0  0  0  0  0  0
   -1.1374   -1.0117   -0.0809 C   0  0  0  0  0  0  0  0  0  0  0  0
    0.2619   -1.1325   -0.0046 C   0  0  0  0  0  0  0  0  0  0  0  0
    0.8846   -2.3658    0.1235 O   0  0  0  0  0  0  0  0  0  0  0  0
    0.2937   -3.3249    0.9369 C   0  0  0  0  0  0  0  0  0  0  0  0
   -0.3940   -2.9990    2.1031 C   0  0  0  0  0  0  0  0  0  0  0  0
   -1.0041   -4.0185    2.7970 C   0  0  0  0  0  0  0  0  0  0  0  0
   -0.9168   -5.3109    2.4384 N   0  0  0  0  0  0  0  0  0  0  0  0
   -0.1871   -5.6464    1.3529 C   0  0  0  0  0  0  0  0  0  0  0  0
   -0.0697   -7.0107    1.0257 N   0  0  0  0  0  0  0  0  0  0  0  0
   -0.6559   -8.0329    1.7544 C   0  0  0  0  0  0  0  0  0  0  0  0
   -1.3636   -7.9265    2.7472 O   0  0  0  0  0  0  0  0  0  0  0  0
   -0.3651   -9.4125    1.2395 C   0  0  0  0  0  0  0  0  0  0  0  0
   -1.4069  -10.5014    1.4143 C   0  0  0  0  0  0  0  0  0  0  0  0
   -0.1471  -10.5425    2.2273 C   0  0  0  0  0  0  0  0  0  0  0  0
    0.4301   -4.6739    0.5737 C   0  0  0  0  0  0  0  0  0  0  0  0
    2.9202    1.0199   -0.4514 H   0  0  0  0  0  0  0  0  0  0  0  0
    2.9319   -0.6860   -0.8590 H   0  0  0  0  0  0  0  0  0  0  0  0
    2.9582   -0.1617    0.8589 H   0  0  0  0  0  0  0  0  0  0  0  0
    1.0329    2.1491   -0.2053 H   0  0  0  0  0  0  0  0  0  0  0  0
   -2.6419    2.6833   -0.0651 H   0  0  0  0  0  0  0  0  0  0  0  0
   -2.7320    4.7359    0.8202 H   0  0  0  0  0  0  0  0  0  0  0  0
    0.2010    6.1433   -0.8913 H   0  0  0  0  0  0  0  0  0  0  0  0
    1.3313    8.2037   -0.1932 H   0  0  0  0  0  0  0  0  0  0  0  0
   -3.4517    9.4398    2.7697 H   0  0  0  0  0  0  0  0  0  0  0  0
   -2.1268   10.6093    2.5646 H   0  0  0  0  0  0  0  0  0  0  0  0
   -2.8330   10.3353    4.1615 H   0  0  0  0  0  0  0  0  0  0  0  0
   -2.5766    6.5326    2.3749 H   0  0  0  0  0  0  0  0  0  0  0  0
   -2.8466    0.2865   -0.0808 H   0  0  0  0  0  0  0  0  0  0  0  0
   -1.7625   -1.9013   -0.0887 H   0  0  0  0  0  0  0  0  0  0  0  0
   -0.4900   -1.9801    2.4578 H   0  0  0  0  0  0  0  0  0  0  0  0
   -1.6037   -3.8289    3.6817 H   0  0  0  0  0  0  0  0  0  0  0  0
    0.4946   -7.2459    0.2229 H   0  0  0  0  0  0  0  0  0  0  0  0
    0.2208   -9.4621    0.3277 H   0  0  0  0  0  0  0  0  0  0  0  0
   -1.5274  -11.2376    0.6296 H   0  0  0  0  0  0  0  0  0  0  0  0
   -2.3291  -10.2546    1.9326 H   0  0  0  0  0  0  0  0  0  0  0  0
    0.5797  -11.3099    1.9910 H   0  0  0  0  0  0  0  0  0  0  0  0
   -0.2280  -10.3230    3.2881 H   0  0  0  0  0  0  0  0  0  0  0  0
    1.0029   -4.9379   -0.3069 H   0  0  0  0  0  0  0  0  0  0  0  0
  1  2  1  0  0  0  0
  1 36  1  0  0  0  0
  1 37  1  0  0  0  0
  1 38  1  0  0  0  0
  2  3  1  0  0  0  0
  2 22  2  0  0  0  0
  3  4  2  0  0  0  0
  3 39  1  0  0  0  0
  4  5  1  0  0  0  0
  4 20  1  0  0  0  0
  5  6  1  0  0  0  0
  5 40  1  0  0  0  0
  6  7  2  0  0  0  0
  6  8  1  0  0  0  0
  8  9  1  0  0  0  0
  8 41  1  0  0  0  0
  9 10  1  0  0  0  0
  9 19  2  0  0  0  0
 10 11  2  0  0  0  0
 10 42  1  0  0  0  0
 11 12  1  0  0  0  0
 11 43  1  0  0  0  0
 12 13  1  0  0  0  0
 12 14  2  0  0  0  0
 14 15  1  0  0  0  0
 14 19  1  0  0  0  0
 15 16  1  0  0  0  0
 15 17  1  0  0  0  0
 15 18  1  0  0  0  0
 16 44  1  0  0  0  0
 16 45  1  0  0  0  0
 16 46  1  0  0  0  0
 19 47  1  0  0  0  0
 20 21  2  0  0  0  0
 20 48  1  0  0  0  0
 21 22  1  0  0  0  0
 21 49  1  0  0  0  0
 22 23  1  0  0  0  0
 23 24  1  0  0  0  0
 24 25  1  0  0  0  0
 24 35  2  0  0  0  0
 25 26  2  0  0  0  0
 25 50  1  0  0  0  0
 26 27  1  0  0  0  0
 26 51  1  0  0  0  0
 27 28  2  0  0  0  0
 28 29  1  0  0  0  0
 28 35  1  0  0  0  0
 29 30  1  0  0  0  0
 29 52  1  0  0  0  0
 30 31  2  0  0  0  0
 30 32  1  0  0  0  0
 32 33  1  0  0  0  0
 32 34  1  0  0  0  0
 32 53  1  0  0  0  0
 33 34  1  0  0  0  0
 33 54  1  0  0  0  0
 33 55  1  0  0  0  0
 34 56  1  0  0  0  0
 34 57  1  0  0  0  0
 35 58  1  0  0  0  0
M  END
$$$$
