CHEMBL1971534
 OpenBabel04072215363D

 18 19  0  0  0  0  0  0  0  0999 V2000
    1.3714    0.5220   -0.2021 N   0  0  0  0  0  0  0  0  0  0  0  0
    2.5592   -0.0763    0.1143 C   0  0  0  0  0  0  0  0  0  0  0  0
    2.9684   -0.0246    1.2715 O   0  0  0  0  0  0  0  0  0  0  0  0
    3.2594   -0.7479   -0.9658 C   0  0  0  0  0  0  0  0  0  0  0  0
    4.4481   -1.4447   -0.8749 C   0  0  0  0  0  0  0  0  0  0  0  0
    4.8908   -1.9820   -2.1296 C   0  0  0  0  0  0  0  0  0  0  0  0
    6.0307   -2.7408   -2.4578 C   0  0  0  0  0  0  0  0  0  0  0  0
    6.1975   -3.1032   -3.7846 C   0  0  0  0  0  0  0  0  0  0  0  0
    5.3451   -2.7761   -4.7739 N   0  0  0  0  0  0  0  0  0  0  0  0
    4.2433   -2.0527   -4.4727 C   0  0  0  0  0  0  0  0  0  0  0  0
    4.0038   -1.6554   -3.1565 C   0  0  0  0  0  0  0  0  0  0  0  0
    2.6675   -0.7512   -2.5686 S   0  0  0  0  0  0  0  0  0  0  0  0
    0.8557    0.9834    0.5325 H   0  0  0  0  0  0  0  0  0  0  0  0
    0.9757    0.4619   -1.1298 H   0  0  0  0  0  0  0  0  0  0  0  0
    4.9854   -1.5592    0.0610 H   0  0  0  0  0  0  0  0  0  0  0  0
    6.7564   -3.0331   -1.7072 H   0  0  0  0  0  0  0  0  0  0  0  0
    7.0589   -3.6884   -4.0957 H   0  0  0  0  0  0  0  0  0  0  0  0
    3.5786   -1.8056   -5.2922 H   0  0  0  0  0  0  0  0  0  0  0  0
  1  2  1  0  0  0  0
  1 13  1  0  0  0  0
  1 14  1  0  0  0  0
  2  3  2  0  0  0  0
  2  4  1  0  0  0  0
  4  5  2  0  0  0  0
  4 12  1  0  0  0  0
  5  6  1  0  0  0  0
  5 15  1  0  0  0  0
  6  7  1  0  0  0  0
  6 11  2  0  0  0  0
  7  8  2  0  0  0  0
  7 16  1  0  0  0  0
  8  9  1  0  0  0  0
  8 17  1  0  0  0  0
  9 10  2  0  0  0  0
 10 11  1  0  0  0  0
 10 18  1  0  0  0  0
 11 12  1  0  0  0  0
M  END
$$$$
