CHEMBL4248513
 OpenBabel04072215383D

 42 45  0  0  0  0  0  0  0  0999 V2000
    1.4102    0.8371    0.4564 C   0  0  0  0  0  0  0  0  0  0  0  0
    2.4834   -0.0162    0.0669 O   0  0  0  0  0  0  0  0  0  0  0  0
    3.1114    0.3123   -1.1049 C   0  0  0  0  0  0  0  0  0  0  0  0
    3.1703    1.6262   -1.5796 C   0  0  0  0  0  0  0  0  0  0  0  0
    3.8162    1.9332   -2.7812 C   0  0  0  0  0  0  0  0  0  0  0  0
    4.4350    0.9450   -3.5400 C   0  0  0  0  0  0  0  0  0  0  0  0
    4.9649    1.1755   -4.8121 N   0  0  0  0  0  0  0  0  0  0  0  0
    5.0194    2.2912   -5.6534 C   0  0  0  0  0  0  0  0  0  0  0  0
    5.6786    2.0514   -6.8072 N   0  0  0  0  0  0  0  0  0  0  0  0
    6.0001    3.1064   -7.5728 C   0  0  0  0  0  0  0  0  0  0  0  0
    5.7190    4.3944   -7.2046 C   0  0  0  0  0  0  0  0  0  0  0  0
    4.9232    4.5461   -6.0810 C   0  0  0  0  0  0  0  0  0  0  0  0
    4.5598    3.5028   -5.3069 N   0  0  0  0  0  0  0  0  0  0  0  0
    4.6753    5.9129   -5.5801 C   0  0  0  0  0  0  0  0  0  0  0  0
    3.3935    6.4442   -5.3909 C   0  0  0  0  0  0  0  0  0  0  0  0
    3.2380    7.7848   -5.0082 C   0  0  0  0  0  0  0  0  0  0  0  0
    4.3556    8.5644   -4.6998 C   0  0  0  0  0  0  0  0  0  0  0  0
    4.1531   10.1963   -4.1933 Cl  0  0  0  0  0  0  0  0  0  0  0  0
    5.6361    8.0690   -4.9012 C   0  0  0  0  0  0  0  0  0  0  0  0
    5.7732    6.8012   -5.4604 C   0  0  0  0  0  0  0  0  0  0  0  0
    7.2584    6.4736   -6.4452 S   0  0  0  0  0  0  0  0  0  0  0  0
    6.3598    5.6004   -7.8076 C   0  0  0  0  0  0  0  0  0  0  0  0
    4.4425   -0.3596   -3.0196 C   0  0  0  0  0  0  0  0  0  0  0  0
    3.7749   -0.6898   -1.8267 C   0  0  0  0  0  0  0  0  0  0  0  0
    3.8777   -2.0157   -1.4858 O   0  0  0  0  0  0  0  0  0  0  0  0
    2.7280   -2.5979   -0.8813 C   0  0  0  0  0  0  0  0  0  0  0  0
    0.8810    0.3571    1.2857 H   0  0  0  0  0  0  0  0  0  0  0  0
    0.6945    0.9750   -0.3622 H   0  0  0  0  0  0  0  0  0  0  0  0
    1.7839    1.7996    0.8185 H   0  0  0  0  0  0  0  0  0  0  0  0
    2.7241    2.4514   -1.0358 H   0  0  0  0  0  0  0  0  0  0  0  0
    3.8206    2.9695   -3.1044 H   0  0  0  0  0  0  0  0  0  0  0  0
    5.4885    0.4194   -5.2310 H   0  0  0  0  0  0  0  0  0  0  0  0
    6.5657    2.8738   -8.4680 H   0  0  0  0  0  0  0  0  0  0  0  0
    2.5132    5.8504   -5.6309 H   0  0  0  0  0  0  0  0  0  0  0  0
    2.2447    8.2262   -4.9753 H   0  0  0  0  0  0  0  0  0  0  0  0
    6.5067    8.6971   -4.7354 H   0  0  0  0  0  0  0  0  0  0  0  0
    7.0554    5.3410   -8.6068 H   0  0  0  0  0  0  0  0  0  0  0  0
    5.5945    6.2647   -8.2290 H   0  0  0  0  0  0  0  0  0  0  0  0
    4.9481   -1.1575   -3.5599 H   0  0  0  0  0  0  0  0  0  0  0  0
    2.7980   -3.6830   -1.0123 H   0  0  0  0  0  0  0  0  0  0  0  0
    1.7984   -2.2678   -1.3582 H   0  0  0  0  0  0  0  0  0  0  0  0
    2.7143   -2.4081    0.1956 H   0  0  0  0  0  0  0  0  0  0  0  0
  1  2  1  0  0  0  0
  1 27  1  0  0  0  0
  1 28  1  0  0  0  0
  1 29  1  0  0  0  0
  2  3  1  0  0  0  0
  3  4  1  0  0  0  0
  3 24  2  0  0  0  0
  4  5  2  0  0  0  0
  4 30  1  0  0  0  0
  5  6  1  0  0  0  0
  5 31  1  0  0  0  0
  6  7  1  0  0  0  0
  6 23  2  0  0  0  0
  7  8  1  0  0  0  0
  7 32  1  0  0  0  0
  8  9  1  0  0  0  0
  8 13  2  0  0  0  0
  9 10  2  0  0  0  0
 10 11  1  0  0  0  0
 10 33  1  0  0  0  0
 11 12  2  0  0  0  0
 11 22  1  0  0  0  0
 12 13  1  0  0  0  0
 12 14  1  0  0  0  0
 14 15  1  0  0  0  0
 14 20  2  0  0  0  0
 15 16  2  0  0  0  0
 15 34  1  0  0  0  0
 16 17  1  0  0  0  0
 16 35  1  0  0  0  0
 17 18  1  0  0  0  0
 17 19  2  0  0  0  0
 19 20  1  0  0  0  0
 19 36  1  0  0  0  0
 20 21  1  0  0  0  0
 21 22  1  0  0  0  0
 22 37  1  0  0  0  0
 22 38  1  0  0  0  0
 23 24  1  0  0  0  0
 23 39  1  0  0  0  0
 24 25  1  0  0  0  0
 25 26  1  0  0  0  0
 26 40  1  0  0  0  0
 26 41  1  0  0  0  0
 26 42  1  0  0  0  0
M  END
$$$$
