CHEMBL357813
 OpenBabel04072215363D

 67 72  0  0  0  0  0  0  0  0999 V2000
    7.7068    0.4668   -4.1309 C   0  0  0  0  0  0  0  0  0  0  0  0
    6.9994    0.1537   -2.8140 C   0  0  0  0  0  0  0  0  0  0  0  0
    7.2933   -1.2877   -2.3913 C   0  0  0  0  0  0  0  0  0  0  0  0
    7.4071    1.1656   -1.7327 C   0  0  0  0  0  0  0  0  0  0  0  0
    6.6813    0.8995   -0.4211 C   0  0  0  0  0  0  0  0  0  0  0  0
    7.0261    1.8917    0.5277 O   0  0  0  0  0  0  0  0  0  0  0  0
    6.4080    1.5995    1.7792 C   0  0  0  0  0  0  0  0  0  0  0  0
    6.8851    2.6307    2.7487 C   0  0  0  0  0  0  0  0  0  0  0  0
    7.7209    2.2757    3.8062 C   0  0  0  0  0  0  0  0  0  0  0  0
    8.2926    3.2373    4.6294 C   0  0  0  0  0  0  0  0  0  0  0  0
    8.0073    4.5859    4.3764 C   0  0  0  0  0  0  0  0  0  0  0  0
    7.1231    4.9699    3.3465 C   0  0  0  0  0  0  0  0  0  0  0  0
    6.5317    3.9792    2.5334 C   0  0  0  0  0  0  0  0  0  0  0  0
    7.0489    6.3114    3.4819 C   0  0  0  0  0  0  0  0  0  0  0  0
    5.8959    7.1055    3.2076 C   0  0  0  0  0  0  0  0  0  0  0  0
    5.6782    8.2300    4.1103 C   0  0  0  0  0  0  0  0  0  0  0  0
    6.6357    8.4984    5.0955 C   0  0  0  0  0  0  0  0  0  0  0  0
    7.8883    8.1658    4.5839 C   0  0  0  0  0  0  0  0  0  0  0  0
    8.0038    6.8480    4.2891 C   0  0  0  0  0  0  0  0  0  0  0  0
    8.3696    5.7468    5.0802 N   0  0  0  0  0  0  0  0  0  0  0  0
    8.4368    5.8231    6.5470 C   0  0  0  0  0  0  0  0  0  0  0  0
    9.2476    4.7996    7.3371 C   0  0  0  0  0  0  0  0  0  0  0  0
    9.1896    5.0404    8.8454 C   0  0  0  0  0  0  0  0  0  0  0  0
   10.0123    4.0879    9.5127 O   0  0  0  0  0  0  0  0  0  0  0  0
    8.8319    9.2511    4.8588 C   0  0  0  0  0  0  0  0  0  0  0  0
    8.3892    9.5003    6.2716 C   0  0  0  0  0  0  0  0  0  0  0  0
    9.3430    9.4506    7.2853 C   0  0  0  0  0  0  0  0  0  0  0  0
    8.9549    8.9154    8.4975 C   0  0  0  0  0  0  0  0  0  0  0  0
    7.6169    8.5289    8.6920 C   0  0  0  0  0  0  0  0  0  0  0  0
    6.6381    8.6361    7.6564 C   0  0  0  0  0  0  0  0  0  0  0  0
    7.0036    9.1175    6.3866 C   0  0  0  0  0  0  0  0  0  0  0  0
    4.7808    9.1330    3.4308 C   0  0  0  0  0  0  0  0  0  0  0  0
    4.4190   10.2759    3.6530 O   0  0  0  0  0  0  0  0  0  0  0  0
    4.5200    8.4886    2.1895 N   0  0  0  0  0  0  0  0  0  0  0  0
    5.1329    7.1843    1.9748 C   0  0  0  0  0  0  0  0  0  0  0  0
    7.3816   -0.2259   -4.9144 H   0  0  0  0  0  0  0  0  0  0  0  0
    8.7935    0.3798   -4.0295 H   0  0  0  0  0  0  0  0  0  0  0  0
    7.4753    1.4830   -4.4665 H   0  0  0  0  0  0  0  0  0  0  0  0
    5.9194    0.2463   -2.9834 H   0  0  0  0  0  0  0  0  0  0  0  0
    8.3473   -1.4124   -2.1204 H   0  0  0  0  0  0  0  0  0  0  0  0
    7.0584   -1.9871   -3.1987 H   0  0  0  0  0  0  0  0  0  0  0  0
    6.6845   -1.5830   -1.5308 H   0  0  0  0  0  0  0  0  0  0  0  0
    7.1768    2.1826   -2.0680 H   0  0  0  0  0  0  0  0  0  0  0  0
    8.4904    1.1459   -1.5667 H   0  0  0  0  0  0  0  0  0  0  0  0
    6.9742   -0.0743   -0.0201 H   0  0  0  0  0  0  0  0  0  0  0  0
    5.5989    0.9167   -0.5804 H   0  0  0  0  0  0  0  0  0  0  0  0
    6.6936    0.5981    2.1149 H   0  0  0  0  0  0  0  0  0  0  0  0
    5.3170    1.6449    1.6877 H   0  0  0  0  0  0  0  0  0  0  0  0
    7.9679    1.2336    3.9867 H   0  0  0  0  0  0  0  0  0  0  0  0
    8.9623    2.9199    5.4198 H   0  0  0  0  0  0  0  0  0  0  0  0
    5.8931    4.2437    1.7109 H   0  0  0  0  0  0  0  0  0  0  0  0
    7.3915    5.8059    6.8915 H   0  0  0  0  0  0  0  0  0  0  0  0
    8.8601    6.7966    6.7721 H   0  0  0  0  0  0  0  0  0  0  0  0
   10.2886    4.8046    6.9973 H   0  0  0  0  0  0  0  0  0  0  0  0
    8.8656    3.7903    7.1870 H   0  0  0  0  0  0  0  0  0  0  0  0
    8.1691    4.9347    9.2311 H   0  0  0  0  0  0  0  0  0  0  0  0
    9.5562    6.0338    9.1129 H   0  0  0  0  0  0  0  0  0  0  0  0
    9.6317    3.2052    9.3625 H   0  0  0  0  0  0  0  0  0  0  0  0
    8.5513   10.1352    4.2589 H   0  0  0  0  0  0  0  0  0  0  0  0
    9.8718    9.0013    4.6824 H   0  0  0  0  0  0  0  0  0  0  0  0
   10.3968    9.5796    7.0448 H   0  0  0  0  0  0  0  0  0  0  0  0
    9.7185    8.6801    9.2371 H   0  0  0  0  0  0  0  0  0  0  0  0
    7.3723    8.0082    9.6153 H   0  0  0  0  0  0  0  0  0  0  0  0
    5.6858    8.1314    7.8129 H   0  0  0  0  0  0  0  0  0  0  0  0
    4.2589    9.0721    1.4057 H   0  0  0  0  0  0  0  0  0  0  0  0
    5.8016    7.2176    1.1081 H   0  0  0  0  0  0  0  0  0  0  0  0
    4.3630    6.4195    1.8606 H   0  0  0  0  0  0  0  0  0  0  0  0
  1  2  1  0  0  0  0
  1 36  1  0  0  0  0
  1 37  1  0  0  0  0
  1 38  1  0  0  0  0
  2  3  1  0  0  0  0
  2  4  1  0  0  0  0
  2 39  1  0  0  0  0
  3 40  1  0  0  0  0
  3 41  1  0  0  0  0
  3 42  1  0  0  0  0
  4  5  1  0  0  0  0
  4 43  1  0  0  0  0
  4 44  1  0  0  0  0
  5  6  1  0  0  0  0
  5 45  1  0  0  0  0
  5 46  1  0  0  0  0
  6  7  1  0  0  0  0
  7  8  1  0  0  0  0
  7 47  1  0  0  0  0
  7 48  1  0  0  0  0
  8  9  1  0  0  0  0
  8 13  2  0  0  0  0
  9 10  2  0  0  0  0
  9 49  1  0  0  0  0
 10 11  1  0  0  0  0
 10 50  1  0  0  0  0
 11 12  2  0  0  0  0
 11 20  1  0  0  0  0
 12 13  1  0  0  0  0
 12 14  1  0  0  0  0
 13 51  1  0  0  0  0
 14 15  1  0  0  0  0
 14 19  2  0  0  0  0
 15 16  2  0  0  0  0
 15 35  1  0  0  0  0
 16 17  1  0  0  0  0
 16 32  1  0  0  0  0
 17 18  2  0  0  0  0
 17 31  1  0  0  0  0
 18 19  1  0  0  0  0
 18 25  1  0  0  0  0
 19 20  1  0  0  0  0
 20 21  1  0  0  0  0
 21 22  1  0  0  0  0
 21 52  1  0  0  0  0
 21 53  1  0  0  0  0
 22 23  1  0  0  0  0
 22 54  1  0  0  0  0
 22 55  1  0  0  0  0
 23 24  1  0  0  0  0
 23 56  1  0  0  0  0
 23 57  1  0  0  0  0
 24 58  1  0  0  0  0
 25 26  1  0  0  0  0
 25 59  1  0  0  0  0
 25 60  1  0  0  0  0
 26 27  1  0  0  0  0
 26 31  2  0  0  0  0
 27 28  2  0  0  0  0
 27 61  1  0  0  0  0
 28 29  1  0  0  0  0
 28 62  1  0  0  0  0
 29 30  2  0  0  0  0
 29 63  1  0  0  0  0
 30 31  1  0  0  0  0
 30 64  1  0  0  0  0
 32 33  2  0  0  0  0
 32 34  1  0  0  0  0
 34 35  1  0  0  0  0
 34 65  1  0  0  0  0
 35 66  1  0  0  0  0
 35 67  1  0  0  0  0
M  END
$$$$
