CHEMBL3656069
 OpenBabel04072215373D

 62 65  0  0  0  0  0  0  0  0999 V2000
    2.9305   -5.5076    0.9035 C   0  0  0  0  0  0  0  0  0  0  0  0
    1.4754   -5.8485    1.0491 C   0  0  0  0  0  0  0  0  0  0  0  0
    1.1117   -7.0773    1.6112 C   0  0  0  0  0  0  0  0  0  0  0  0
   -0.2281   -7.4107    1.7533 C   0  0  0  0  0  0  0  0  0  0  0  0
   -1.2165   -6.5201    1.3354 C   0  0  0  0  0  0  0  0  0  0  0  0
   -0.8891   -5.2815    0.7781 C   0  0  0  0  0  0  0  0  0  0  0  0
   -1.8733   -4.3570    0.3371 N   0  0  0  0  0  0  0  0  0  0  0  0
   -3.2428   -4.4883    0.5216 C   0  0  0  0  0  0  0  0  0  0  0  0
   -3.7890   -5.3622    1.1850 O   0  0  0  0  0  0  0  0  0  0  0  0
   -3.9631   -3.5239   -0.1705 N   0  0  0  0  0  0  0  0  0  0  0  0
   -5.3833   -3.5285   -0.1232 C   0  0  0  0  0  0  0  0  0  0  0  0
   -6.0941   -3.6813    1.0723 C   0  0  0  0  0  0  0  0  0  0  0  0
   -7.4947   -3.6947    1.0642 C   0  0  0  0  0  0  0  0  0  0  0  0
   -8.1927   -3.5652   -0.1395 C   0  0  0  0  0  0  0  0  0  0  0  0
   -9.5689   -3.5851   -0.0551 O   0  0  0  0  0  0  0  0  0  0  0  0
  -10.3178   -2.8347   -0.9428 C   0  0  0  0  0  0  0  0  0  0  0  0
   -9.9077   -1.6256   -1.4883 C   0  0  0  0  0  0  0  0  0  0  0  0
  -10.7485   -1.0033   -2.3914 C   0  0  0  0  0  0  0  0  0  0  0  0
  -11.9698   -1.4691   -2.7241 N   0  0  0  0  0  0  0  0  0  0  0  0
  -12.3811   -2.6126   -2.1268 C   0  0  0  0  0  0  0  0  0  0  0  0
  -13.7327   -3.0229   -2.4944 C   0  0  0  0  0  0  0  0  0  0  0  0
  -14.5295   -4.0916   -2.1114 C   0  0  0  0  0  0  0  0  0  0  0  0
  -15.7880   -4.0036   -2.7907 C   0  0  0  0  0  0  0  0  0  0  0  0
  -16.9599   -4.8796   -2.7398 C   0  0  0  0  0  0  0  0  0  0  0  0
  -17.9515   -4.7076   -3.4446 O   0  0  0  0  0  0  0  0  0  0  0  0
  -16.8731   -5.9266   -1.8469 N   0  0  0  0  0  0  0  0  0  0  0  0
  -17.9587   -6.8695   -1.6694 C   0  0  0  0  0  0  0  0  0  0  0  0
  -17.9046   -7.9951   -2.6865 C   0  0  0  0  0  0  0  0  0  0  0  0
  -19.0772   -8.9072   -2.4718 C   0  0  0  0  0  0  0  0  0  0  0  0
  -19.0725   -9.8424   -1.6848 O   0  0  0  0  0  0  0  0  0  0  0  0
  -20.1668   -8.5698   -3.1944 O   0  0  0  0  0  0  0  0  0  0  0  0
  -15.7088   -2.8609   -3.5679 C   0  0  0  0  0  0  0  0  0  0  0  0
  -14.4826   -2.2838   -3.3828 N   0  0  0  0  0  0  0  0  0  0  0  0
  -11.5864   -3.3303   -1.2389 C   0  0  0  0  0  0  0  0  0  0  0  0
   -7.4856   -3.4841   -1.3402 C   0  0  0  0  0  0  0  0  0  0  0  0
   -6.0953   -3.4145   -1.3174 C   0  0  0  0  0  0  0  0  0  0  0  0
   -5.4313   -3.2897   -2.4767 F   0  0  0  0  0  0  0  0  0  0  0  0
    0.4685   -4.9526    0.6342 C   0  0  0  0  0  0  0  0  0  0  0  0
    3.5679   -6.3269    1.2572 H   0  0  0  0  0  0  0  0  0  0  0  0
    3.1752   -4.6208    1.4955 H   0  0  0  0  0  0  0  0  0  0  0  0
    3.1776   -5.3302   -0.1472 H   0  0  0  0  0  0  0  0  0  0  0  0
    1.8683   -7.7854    1.9417 H   0  0  0  0  0  0  0  0  0  0  0  0
   -0.5151   -8.3626    2.1888 H   0  0  0  0  0  0  0  0  0  0  0  0
   -2.2431   -6.8445    1.4629 H   0  0  0  0  0  0  0  0  0  0  0  0
   -1.5447   -3.4773   -0.0355 H   0  0  0  0  0  0  0  0  0  0  0  0
   -3.5691   -3.2739   -1.0691 H   0  0  0  0  0  0  0  0  0  0  0  0
   -5.5704   -3.7924    2.0199 H   0  0  0  0  0  0  0  0  0  0  0  0
   -8.0352   -3.8135    2.0008 H   0  0  0  0  0  0  0  0  0  0  0  0
   -8.9541   -1.1734   -1.2434 H   0  0  0  0  0  0  0  0  0  0  0  0
  -10.4493   -0.0826   -2.8852 H   0  0  0  0  0  0  0  0  0  0  0  0
  -14.2293   -4.8580   -1.4130 H   0  0  0  0  0  0  0  0  0  0  0  0
  -16.0314   -6.0502   -1.3045 H   0  0  0  0  0  0  0  0  0  0  0  0
  -18.9112   -6.3314   -1.7458 H   0  0  0  0  0  0  0  0  0  0  0  0
  -17.8858   -7.2621   -0.6495 H   0  0  0  0  0  0  0  0  0  0  0  0
  -16.9852   -8.5820   -2.5757 H   0  0  0  0  0  0  0  0  0  0  0  0
  -17.9024   -7.6250   -3.7179 H   0  0  0  0  0  0  0  0  0  0  0  0
  -20.0438   -7.7832   -3.7604 H   0  0  0  0  0  0  0  0  0  0  0  0
  -16.4342   -2.4139   -4.2360 H   0  0  0  0  0  0  0  0  0  0  0  0
  -14.1438   -1.4343   -3.8187 H   0  0  0  0  0  0  0  0  0  0  0  0
  -11.9405   -4.2408   -0.7735 H   0  0  0  0  0  0  0  0  0  0  0  0
   -7.9929   -3.4687   -2.2987 H   0  0  0  0  0  0  0  0  0  0  0  0
    0.7622   -4.0002    0.1995 H   0  0  0  0  0  0  0  0  0  0  0  0
  1  2  1  0  0  0  0
  1 39  1  0  0  0  0
  1 40  1  0  0  0  0
  1 41  1  0  0  0  0
  2  3  1  0  0  0  0
  2 38  2  0  0  0  0
  3  4  2  0  0  0  0
  3 42  1  0  0  0  0
  4  5  1  0  0  0  0
  4 43  1  0  0  0  0
  5  6  2  0  0  0  0
  5 44  1  0  0  0  0
  6  7  1  0  0  0  0
  6 38  1  0  0  0  0
  7  8  1  0  0  0  0
  7 45  1  0  0  0  0
  8  9  2  0  0  0  0
  8 10  1  0  0  0  0
 10 11  1  0  0  0  0
 10 46  1  0  0  0  0
 11 12  1  0  0  0  0
 11 36  2  0  0  0  0
 12 13  2  0  0  0  0
 12 47  1  0  0  0  0
 13 14  1  0  0  0  0
 13 48  1  0  0  0  0
 14 15  1  0  0  0  0
 14 35  2  0  0  0  0
 15 16  1  0  0  0  0
 16 17  1  0  0  0  0
 16 34  2  0  0  0  0
 17 18  2  0  0  0  0
 17 49  1  0  0  0  0
 18 19  1  0  0  0  0
 18 50  1  0  0  0  0
 19 20  2  0  0  0  0
 20 21  1  0  0  0  0
 20 34  1  0  0  0  0
 21 22  2  0  0  0  0
 21 33  1  0  0  0  0
 22 23  1  0  0  0  0
 22 51  1  0  0  0  0
 23 24  1  0  0  0  0
 23 32  2  0  0  0  0
 24 25  2  0  0  0  0
 24 26  1  0  0  0  0
 26 27  1  0  0  0  0
 26 52  1  0  0  0  0
 27 28  1  0  0  0  0
 27 53  1  0  0  0  0
 27 54  1  0  0  0  0
 28 29  1  0  0  0  0
 28 55  1  0  0  0  0
 28 56  1  0  0  0  0
 29 30  2  0  0  0  0
 29 31  1  0  0  0  0
 31 57  1  0  0  0  0
 32 33  1  0  0  0  0
 32 58  1  0  0  0  0
 33 59  1  0  0  0  0
 34 60  1  0  0  0  0
 35 36  1  0  0  0  0
 35 61  1  0  0  0  0
 36 37  1  0  0  0  0
 38 62  1  0  0  0  0
M  END
$$$$
