CHEMBL3676353
 OpenBabel04072215373D

 50 52  0  0  0  0  0  0  0  0999 V2000
    3.7966    3.8500   -0.9946 C   0  0  0  0  0  0  0  0  0  0  0  0
    3.7114    3.0457    0.0704 C   0  0  0  0  0  0  0  0  0  0  0  0
    3.8298    1.5754   -0.1198 C   0  0  0  0  0  0  0  0  0  0  0  0
    3.4314    1.0134   -1.1346 O   0  0  0  0  0  0  0  0  0  0  0  0
    4.4563    0.8602    0.8727 N   0  0  0  0  0  0  0  0  0  0  0  0
    5.2323    1.4548    1.8800 C   0  0  0  0  0  0  0  0  0  0  0  0
    6.4295    2.0565    1.4972 C   0  0  0  0  0  0  0  0  0  0  0  0
    7.1235    2.8906    2.3946 C   0  0  0  0  0  0  0  0  0  0  0  0
    8.2874    3.5978    2.0599 C   0  0  0  0  0  0  0  0  0  0  0  0
    8.7896    3.5484    0.7263 N   0  0  0  0  0  0  0  0  0  0  0  0
   10.0995    3.9792    0.4005 C   0  0  0  0  0  0  0  0  0  0  0  0
   11.1971    3.4805    1.1140 C   0  0  0  0  0  0  0  0  0  0  0  0
   12.4764    4.0026    0.9163 C   0  0  0  0  0  0  0  0  0  0  0  0
   13.7511    3.3616    1.8894 Cl  0  0  0  0  0  0  0  0  0  0  0  0
   12.6719    5.0204   -0.0243 C   0  0  0  0  0  0  0  0  0  0  0  0
   14.3527    5.8690   -0.2696 Br  0  0  0  0  0  0  0  0  0  0  0  0
   11.5991    5.4705   -0.8004 C   0  0  0  0  0  0  0  0  0  0  0  0
   10.3280    4.9436   -0.5870 C   0  0  0  0  0  0  0  0  0  0  0  0
    9.2987    5.4035   -1.3160 F   0  0  0  0  0  0  0  0  0  0  0  0
    8.9353    4.3607    2.9585 N   0  0  0  0  0  0  0  0  0  0  0  0
    8.4044    4.4332    4.1820 C   0  0  0  0  0  0  0  0  0  0  0  0
    7.2810    3.8310    4.5934 N   0  0  0  0  0  0  0  0  0  0  0  0
    6.6490    3.0589    3.7020 C   0  0  0  0  0  0  0  0  0  0  0  0
    5.4729    2.4079    4.0754 C   0  0  0  0  0  0  0  0  0  0  0  0
    4.7601    1.5883    3.1900 C   0  0  0  0  0  0  0  0  0  0  0  0
    3.5968    1.0462    3.6901 O   0  0  0  0  0  0  0  0  0  0  0  0
    3.3333   -0.2958    3.2594 C   0  0  0  0  0  0  0  0  0  0  0  0
    2.1903   -0.9326    4.0549 C   0  0  0  0  0  0  0  0  0  0  0  0
    1.8665   -2.2579    3.5383 N   0  0  0  0  0  0  0  0  0  0  0  0
    2.5952   -3.3675    3.9023 C   0  0  0  0  0  0  0  0  0  0  0  0
    2.2409   -4.6246    3.1506 C   0  0  0  0  0  0  0  0  0  0  0  0
    3.4654   -3.3492    4.7651 O   0  0  0  0  0  0  0  0  0  0  0  0
    3.7747    4.9287   -0.8823 H   0  0  0  0  0  0  0  0  0  0  0  0
    3.9044    3.4482   -1.9991 H   0  0  0  0  0  0  0  0  0  0  0  0
    3.6203    3.4441    1.0738 H   0  0  0  0  0  0  0  0  0  0  0  0
    4.7944   -0.0196    0.4998 H   0  0  0  0  0  0  0  0  0  0  0  0
    6.7964    1.9190    0.4828 H   0  0  0  0  0  0  0  0  0  0  0  0
    8.1019    3.9695    0.1020 H   0  0  0  0  0  0  0  0  0  0  0  0
   11.0368    2.7049    1.8599 H   0  0  0  0  0  0  0  0  0  0  0  0
   11.7321    6.2464   -1.5486 H   0  0  0  0  0  0  0  0  0  0  0  0
    8.9294    5.0478    4.9069 H   0  0  0  0  0  0  0  0  0  0  0  0
    5.0973    2.5554    5.0860 H   0  0  0  0  0  0  0  0  0  0  0  0
    4.2383   -0.9090    3.3503 H   0  0  0  0  0  0  0  0  0  0  0  0
    2.9968   -0.2927    2.2205 H   0  0  0  0  0  0  0  0  0  0  0  0
    1.2852   -0.3208    3.9732 H   0  0  0  0  0  0  0  0  0  0  0  0
    2.4477   -0.9992    5.1170 H   0  0  0  0  0  0  0  0  0  0  0  0
    1.2395   -2.3204    2.7458 H   0  0  0  0  0  0  0  0  0  0  0  0
    1.6578   -4.4089    2.2512 H   0  0  0  0  0  0  0  0  0  0  0  0
    1.6652   -5.2877    3.8009 H   0  0  0  0  0  0  0  0  0  0  0  0
    3.1641   -5.1244    2.8419 H   0  0  0  0  0  0  0  0  0  0  0  0
  1  2  2  0  0  0  0
  1 33  1  0  0  0  0
  1 34  1  0  0  0  0
  2  3  1  0  0  0  0
  2 35  1  0  0  0  0
  3  4  2  0  0  0  0
  3  5  1  0  0  0  0
  5  6  1  0  0  0  0
  5 36  1  0  0  0  0
  6  7  1  0  0  0  0
  6 25  2  0  0  0  0
  7  8  2  0  0  0  0
  7 37  1  0  0  0  0
  8  9  1  0  0  0  0
  8 23  1  0  0  0  0
  9 10  1  0  0  0  0
  9 20  2  0  0  0  0
 10 11  1  0  0  0  0
 10 38  1  0  0  0  0
 11 12  1  0  0  0  0
 11 18  2  0  0  0  0
 12 13  2  0  0  0  0
 12 39  1  0  0  0  0
 13 14  1  0  0  0  0
 13 15  1  0  0  0  0
 15 16  1  0  0  0  0
 15 17  2  0  0  0  0
 17 18  1  0  0  0  0
 17 40  1  0  0  0  0
 18 19  1  0  0  0  0
 20 21  1  0  0  0  0
 21 22  2  0  0  0  0
 21 41  1  0  0  0  0
 22 23  1  0  0  0  0
 23 24  2  0  0  0  0
 24 25  1  0  0  0  0
 24 42  1  0  0  0  0
 25 26  1  0  0  0  0
 26 27  1  0  0  0  0
 27 28  1  0  0  0  0
 27 43  1  0  0  0  0
 27 44  1  0  0  0  0
 28 29  1  0  0  0  0
 28 45  1  0  0  0  0
 28 46  1  0  0  0  0
 29 30  1  0  0  0  0
 29 47  1  0  0  0  0
 30 31  1  0  0  0  0
 30 32  2  0  0  0  0
 31 48  1  0  0  0  0
 31 49  1  0  0  0  0
 31 50  1  0  0  0  0
M  END
$$$$
