CHEMBL3944241
 OpenBabel04072215373D

 65 70  0  0  1  0  0  0  0  0999 V2000
    1.0386   -0.1326    0.2665 C   0  0  0  0  0  0  0  0  0  0  0  0
    2.0885    0.3934   -0.5637 O   0  0  0  0  0  0  0  0  0  0  0  0
    2.8971    1.3714    0.0186 C   0  0  0  0  0  0  0  0  0  0  0  0
    2.6036    2.0019    1.2057 C   0  0  0  0  0  0  0  0  0  0  0  0
    3.4640    2.9541    1.7122 C   0  0  0  0  0  0  0  0  0  0  0  0
    3.2966    3.6442    2.8712 O   0  0  0  0  0  0  0  0  0  0  0  0
    2.1763    3.2512    3.6426 C   0  0  0  0  0  0  0  0  0  0  0  0
    4.6330    3.3240    1.0198 C   0  0  0  0  0  0  0  0  0  0  0  0
    5.0631    2.6627   -0.1517 C   0  0  0  0  0  0  0  0  0  0  0  0
    6.3046    2.9970   -0.7564 N   0  0  0  0  0  0  0  0  0  0  0  0
    6.8893    1.8536   -1.6399 C   0  0  0  0  0  0  0  0  0  0  0  0
    7.1419    1.8201   -3.1729 C   0  0  3  0  0  0  0  0  0  0  0  0
    7.6835    2.8082   -4.2076 C   0  0  0  0  0  0  0  0  0  0  0  0
    6.2633    2.3096   -4.3174 C   0  0  3  0  0  0  0  0  0  0  0  0
    5.0521    3.1592   -4.0433 C   0  0  0  0  0  0  0  0  0  0  0  0
    5.1008    4.4987   -3.6376 C   0  0  0  0  0  0  0  0  0  0  0  0
    3.9293    5.1769   -3.3196 C   0  0  0  0  0  0  0  0  0  0  0  0
    2.7068    4.6370   -3.4470 N   0  0  0  0  0  0  0  0  0  0  0  0
    2.6660    3.3618   -3.8748 C   0  0  0  0  0  0  0  0  0  0  0  0
    3.7808    2.5998   -4.1911 C   0  0  0  0  0  0  0  0  0  0  0  0
    7.3455    3.9557   -0.3628 C   0  0  0  0  0  0  0  0  0  0  0  0
    7.9473    4.4856   -1.4664 C   0  0  0  0  0  0  0  0  0  0  0  0
    9.1717    5.0272   -1.3918 C   0  0  0  0  0  0  0  0  0  0  0  0
    9.7861    5.1205   -0.1969 C   0  0  0  0  0  0  0  0  0  0  0  0
   11.0585    4.9780   -0.4136 N   0  0  0  0  0  0  0  0  0  0  0  0
   11.7907    6.0259   -0.0785 C   0  0  0  0  0  0  0  0  0  0  0  0
   11.4432    6.9774    0.8233 C   0  0  0  0  0  0  0  0  0  0  0  0
   12.3714    8.2301    0.5320 C   0  0  0  0  0  0  0  0  0  0  0  0
   12.7118    8.5530   -0.8597 C   0  0  0  0  0  0  0  0  0  0  0  0
   13.9245    9.0533   -1.0774 N   0  0  0  0  0  0  0  0  0  0  0  0
   14.4406    9.1883    0.1456 N   0  0  0  0  0  0  0  0  0  0  0  0
   15.7559    9.8167    0.2148 C   0  0  0  0  0  0  0  0  0  0  0  0
   13.5971    8.6355    1.1286 C   0  0  0  0  0  0  0  0  0  0  0  0
   10.1540    6.7553    1.4451 N   0  0  0  0  0  0  0  0  0  0  0  0
    9.1653    5.6159    0.8777 C   0  0  0  0  0  0  0  0  0  0  0  0
    7.8353    4.6405    0.8403 C   0  0  0  0  0  0  0  0  0  0  0  0
    4.0856    1.7218   -0.6823 C   0  0  0  0  0  0  0  0  0  0  0  0
    0.5872   -1.0008   -0.2280 H   0  0  0  0  0  0  0  0  0  0  0  0
    0.2393    0.6048    0.4178 H   0  0  0  0  0  0  0  0  0  0  0  0
    1.4241   -0.4818    1.2331 H   0  0  0  0  0  0  0  0  0  0  0  0
    1.6839    1.7517    1.7274 H   0  0  0  0  0  0  0  0  0  0  0  0
    2.1863    3.8214    4.5868 H   0  0  0  0  0  0  0  0  0  0  0  0
    2.2044    2.1926    3.9100 H   0  0  0  0  0  0  0  0  0  0  0  0
    1.2392    3.4902    3.1428 H   0  0  0  0  0  0  0  0  0  0  0  0
    5.2590    4.0984    1.4569 H   0  0  0  0  0  0  0  0  0  0  0  0
    6.2965    0.9416   -1.4804 H   0  0  0  0  0  0  0  0  0  0  0  0
    7.8517    1.5742   -1.1903 H   0  0  0  0  0  0  0  0  0  0  0  0
    7.5566    0.8194   -3.3539 H   0  0  0  0  0  0  0  0  0  0  0  0
    8.4060    2.4279   -4.9335 H   0  0  0  0  0  0  0  0  0  0  0  0
    7.8141    3.8759   -4.1537 H   0  0  0  0  0  0  0  0  0  0  0  0
    6.1392    1.6290   -5.1654 H   0  0  0  0  0  0  0  0  0  0  0  0
    6.0278    5.0305   -3.5286 H   0  0  0  0  0  0  0  0  0  0  0  0
    3.9624    6.1921   -2.9371 H   0  0  0  0  0  0  0  0  0  0  0  0
    1.6686    2.9429   -3.9601 H   0  0  0  0  0  0  0  0  0  0  0  0
    3.6600    1.5742   -4.5309 H   0  0  0  0  0  0  0  0  0  0  0  0
    7.5426    4.3164   -2.4217 H   0  0  0  0  0  0  0  0  0  0  0  0
    9.7312    5.2470   -2.2905 H   0  0  0  0  0  0  0  0  0  0  0  0
   12.4889    6.2127   -0.8779 H   0  0  0  0  0  0  0  0  0  0  0  0
   12.1810    8.2484   -1.7528 H   0  0  0  0  0  0  0  0  0  0  0  0
   16.1589    9.9499   -0.8050 H   0  0  0  0  0  0  0  0  0  0  0  0
   16.4694    9.2060    0.7725 H   0  0  0  0  0  0  0  0  0  0  0  0
   15.6494   10.8124    0.6514 H   0  0  0  0  0  0  0  0  0  0  0  0
   13.9981    8.5540    2.1297 H   0  0  0  0  0  0  0  0  0  0  0  0
    7.3522    4.4344    1.8030 H   0  0  0  0  0  0  0  0  0  0  0  0
    4.2325    1.2608   -1.6534 H   0  0  0  0  0  0  0  0  0  0  0  0
  1  2  1  0  0  0  0
  1 38  1  0  0  0  0
  1 39  1  0  0  0  0
  1 40  1  0  0  0  0
  2  3  1  0  0  0  0
  3  4  1  0  0  0  0
  3 37  2  0  0  0  0
  4  5  2  0  0  0  0
  4 41  1  0  0  0  0
  5  6  1  0  0  0  0
  5  8  1  0  0  0  0
  6  7  1  0  0  0  0
  7 42  1  0  0  0  0
  7 43  1  0  0  0  0
  7 44  1  0  0  0  0
  8  9  2  0  0  0  0
  8 45  1  0  0  0  0
  9 10  1  0  0  0  0
  9 37  1  0  0  0  0
 10 11  1  0  0  0  0
 10 21  1  0  0  0  0
 11 12  1  0  0  0  0
 11 46  1  0  0  0  0
 11 47  1  0  0  0  0
 12 13  1  0  0  0  0
 12 14  1  0  0  0  0
 12 48  1  0  0  0  0
 13 14  1  0  0  0  0
 13 49  1  0  0  0  0
 13 50  1  0  0  0  0
 14 15  1  0  0  0  0
 14 51  1  0  0  0  0
 15 16  1  0  0  0  0
 15 20  2  0  0  0  0
 16 17  2  0  0  0  0
 16 52  1  0  0  0  0
 17 18  1  0  0  0  0
 17 53  1  0  0  0  0
 18 19  2  0  0  0  0
 19 20  1  0  0  0  0
 19 54  1  0  0  0  0
 20 55  1  0  0  0  0
 21 22  1  0  0  0  0
 21 36  2  0  0  0  0
 22 23  2  0  0  0  0
 22 56  1  0  0  0  0
 23 24  1  0  0  0  0
 23 57  1  0  0  0  0
 24 25  1  0  0  0  0
 24 35  2  0  0  0  0
 25 26  2  0  0  0  0
 26 27  1  0  0  0  0
 26 58  1  0  0  0  0
 27 28  1  0  0  0  0
 27 34  2  0  0  0  0
 28 29  1  0  0  0  0
 28 33  2  0  0  0  0
 29 30  2  0  0  0  0
 29 59  1  0  0  0  0
 30 31  1  0  0  0  0
 31 32  1  0  0  0  0
 31 33  1  0  0  0  0
 32 60  1  0  0  0  0
 32 61  1  0  0  0  0
 32 62  1  0  0  0  0
 33 63  1  0  0  0  0
 34 35  1  0  0  0  0
 35 36  1  0  0  0  0
 36 64  1  0  0  0  0
 37 65  1  0  0  0  0
M  END
$$$$
