CHEMBL3690438
 OpenBabel04072215373D

 62 66  0  0  0  0  0  0  0  0999 V2000
    1.8087    0.9986    0.2464 N   0  0  0  0  0  0  0  0  0  0  0  0
    1.2026    0.5956   -1.0271 C   0  0  0  0  0  0  0  0  0  0  0  0
    1.3951   -0.9149   -1.2686 C   0  0  0  0  0  0  0  0  0  0  0  0
    2.8374   -1.2781   -1.6594 C   0  0  0  0  0  0  0  0  0  0  0  0
    3.1814   -0.4310   -2.7916 N   0  0  0  0  0  0  0  0  0  0  0  0
    3.9346   -0.9101   -3.8448 C   0  0  0  0  0  0  0  0  0  0  0  0
    3.7765   -0.3138   -5.0887 C   0  0  0  0  0  0  0  0  0  0  0  0
    4.5017   -0.7504   -6.1860 C   0  0  0  0  0  0  0  0  0  0  0  0
    5.3777   -1.8107   -6.0349 C   0  0  0  0  0  0  0  0  0  0  0  0
    6.2378   -2.2714   -7.1561 C   0  0  0  0  0  0  0  0  0  0  0  0
    7.5959   -2.7754   -6.9305 C   0  0  0  0  0  0  0  0  0  0  0  0
    8.3790   -3.0884   -7.9767 C   0  0  0  0  0  0  0  0  0  0  0  0
    7.8792   -2.9922   -9.2813 N   0  0  0  0  0  0  0  0  0  0  0  0
    8.4403   -3.3080  -10.5246 C   0  0  0  0  0  0  0  0  0  0  0  0
    9.7263   -3.9784  -10.7743 C   0  0  0  0  0  0  0  0  0  0  0  0
   10.2146   -4.9206   -9.8609 C   0  0  0  0  0  0  0  0  0  0  0  0
   11.4242   -5.5628  -10.0678 C   0  0  0  0  0  0  0  0  0  0  0  0
   12.1301   -5.3384  -11.2449 C   0  0  0  0  0  0  0  0  0  0  0  0
   11.6442   -4.4765  -12.2303 C   0  0  0  0  0  0  0  0  0  0  0  0
   12.2995   -4.3175  -13.4829 N   0  0  0  0  0  0  0  0  0  0  0  0
   13.4166   -5.0142  -13.8971 C   0  0  0  0  0  0  0  0  0  0  0  0
   14.0296   -5.8719  -13.2671 O   0  0  0  0  0  0  0  0  0  0  0  0
   13.8769   -4.6305  -15.1354 N   0  0  0  0  0  0  0  0  0  0  0  0
   15.0671   -5.3143  -15.6658 C   0  0  0  0  0  0  0  0  0  0  0  0
   14.8383   -6.6806  -16.3347 C   0  0  0  0  0  0  0  0  0  0  0  0
   13.5262   -6.9890  -16.4390 F   0  0  0  0  0  0  0  0  0  0  0  0
   15.3363   -6.6601  -17.5981 F   0  0  0  0  0  0  0  0  0  0  0  0
   15.4580   -7.6865  -15.6815 F   0  0  0  0  0  0  0  0  0  0  0  0
   10.4543   -3.7706  -11.9728 C   0  0  0  0  0  0  0  0  0  0  0  0
    7.4651   -2.9256  -11.4329 C   0  0  0  0  0  0  0  0  0  0  0  0
    6.3428   -2.4394  -10.8233 N   0  0  0  0  0  0  0  0  0  0  0  0
    6.5947   -2.5204   -9.5374 C   0  0  0  0  0  0  0  0  0  0  0  0
    5.7747   -2.1835   -8.4235 C   0  0  0  0  0  0  0  0  0  0  0  0
    5.5180   -2.4021   -4.8296 N   0  0  0  0  0  0  0  0  0  0  0  0
    4.7739   -1.9594   -3.7338 N   0  0  0  0  0  0  0  0  0  0  0  0
    3.2192    0.9990   -2.4962 C   0  0  0  0  0  0  0  0  0  0  0  0
    1.7896    1.4248   -2.1796 C   0  0  0  0  0  0  0  0  0  0  0  0
    1.3496    0.5055    1.0122 H   0  0  0  0  0  0  0  0  0  0  0  0
    1.6384    1.9910    0.4093 H   0  0  0  0  0  0  0  0  0  0  0  0
    0.1285    0.8068   -0.9635 H   0  0  0  0  0  0  0  0  0  0  0  0
    0.7303   -1.2123   -2.0923 H   0  0  0  0  0  0  0  0  0  0  0  0
    1.0802   -1.4940   -0.3929 H   0  0  0  0  0  0  0  0  0  0  0  0
    2.8719   -2.3438   -1.9148 H   0  0  0  0  0  0  0  0  0  0  0  0
    3.5240   -1.1134   -0.8202 H   0  0  0  0  0  0  0  0  0  0  0  0
    3.0592    0.4891   -5.2207 H   0  0  0  0  0  0  0  0  0  0  0  0
    4.3729   -0.2380   -7.1312 H   0  0  0  0  0  0  0  0  0  0  0  0
    7.9545   -2.8745   -5.9093 H   0  0  0  0  0  0  0  0  0  0  0  0
    9.3961   -3.4202   -7.8312 H   0  0  0  0  0  0  0  0  0  0  0  0
    9.6527   -5.2002   -8.9751 H   0  0  0  0  0  0  0  0  0  0  0  0
   11.8093   -6.2606   -9.3340 H   0  0  0  0  0  0  0  0  0  0  0  0
   13.0634   -5.8786  -11.3517 H   0  0  0  0  0  0  0  0  0  0  0  0
   11.8843   -3.6744  -14.1380 H   0  0  0  0  0  0  0  0  0  0  0  0
   13.1993   -4.2859  -15.8020 H   0  0  0  0  0  0  0  0  0  0  0  0
   15.7856   -5.4476  -14.8465 H   0  0  0  0  0  0  0  0  0  0  0  0
   15.5287   -4.6265  -16.3787 H   0  0  0  0  0  0  0  0  0  0  0  0
   10.0748   -3.0630  -12.7070 H   0  0  0  0  0  0  0  0  0  0  0  0
    7.5027   -3.0165  -12.5118 H   0  0  0  0  0  0  0  0  0  0  0  0
    4.7762   -1.8367   -8.6647 H   0  0  0  0  0  0  0  0  0  0  0  0
    3.5959    1.6034   -3.3293 H   0  0  0  0  0  0  0  0  0  0  0  0
    3.8906    1.1955   -1.6506 H   0  0  0  0  0  0  0  0  0  0  0  0
    1.1703    1.2711   -3.0743 H   0  0  0  0  0  0  0  0  0  0  0  0
    1.7555    2.4974   -1.9567 H   0  0  0  0  0  0  0  0  0  0  0  0
  1  2  1  0  0  0  0
  1 38  1  0  0  0  0
  1 39  1  0  0  0  0
  2  3  1  0  0  0  0
  2 37  1  0  0  0  0
  2 40  1  0  0  0  0
  3  4  1  0  0  0  0
  3 41  1  0  0  0  0
  3 42  1  0  0  0  0
  4  5  1  0  0  0  0
  4 43  1  0  0  0  0
  4 44  1  0  0  0  0
  5  6  1  0  0  0  0
  5 36  1  0  0  0  0
  6  7  1  0  0  0  0
  6 35  2  0  0  0  0
  7  8  2  0  0  0  0
  7 45  1  0  0  0  0
  8  9  1  0  0  0  0
  8 46  1  0  0  0  0
  9 10  1  0  0  0  0
  9 34  2  0  0  0  0
 10 11  1  0  0  0  0
 10 33  2  0  0  0  0
 11 12  2  0  0  0  0
 11 47  1  0  0  0  0
 12 13  1  0  0  0  0
 12 48  1  0  0  0  0
 13 14  1  0  0  0  0
 13 32  1  0  0  0  0
 14 15  1  0  0  0  0
 14 30  2  0  0  0  0
 15 16  1  0  0  0  0
 15 29  2  0  0  0  0
 16 17  2  0  0  0  0
 16 49  1  0  0  0  0
 17 18  1  0  0  0  0
 17 50  1  0  0  0  0
 18 19  2  0  0  0  0
 18 51  1  0  0  0  0
 19 20  1  0  0  0  0
 19 29  1  0  0  0  0
 20 21  1  0  0  0  0
 20 52  1  0  0  0  0
 21 22  2  0  0  0  0
 21 23  1  0  0  0  0
 23 24  1  0  0  0  0
 23 53  1  0  0  0  0
 24 25  1  0  0  0  0
 24 54  1  0  0  0  0
 24 55  1  0  0  0  0
 25 26  1  0  0  0  0
 25 27  1  0  0  0  0
 25 28  1  0  0  0  0
 29 56  1  0  0  0  0
 30 31  1  0  0  0  0
 30 57  1  0  0  0  0
 31 32  2  0  0  0  0
 32 33  1  0  0  0  0
 33 58  1  0  0  0  0
 34 35  1  0  0  0  0
 36 37  1  0  0  0  0
 36 59  1  0  0  0  0
 36 60  1  0  0  0  0
 37 61  1  0  0  0  0
 37 62  1  0  0  0  0
M  END
$$$$
