CHEMBL3800526
 OpenBabel04072215373D

 73 78  0  0  1  0  0  0  0  0999 V2000
    6.3477   -1.5951    3.0241 C   0  0  0  0  0  0  0  0  0  0  0  0
    5.9101   -0.8178    1.9096 O   0  0  0  0  0  0  0  0  0  0  0  0
    5.0866   -1.4322    1.0041 C   0  0  0  0  0  0  0  0  0  0  0  0
    4.6559   -2.7593    1.0812 C   0  0  0  0  0  0  0  0  0  0  0  0
    3.7670   -3.2928    0.1312 C   0  0  0  0  0  0  0  0  0  0  0  0
    3.2473   -4.7129    0.2331 C   0  0  0  0  0  0  0  0  0  0  0  0
    1.9666   -4.7911    1.0653 C   0  0  0  0  0  0  0  0  0  0  0  0
    1.3511   -6.1384    1.1818 C   0  0  0  0  0  0  0  0  0  0  0  0
    0.0297   -6.4759    1.3654 C   0  0  0  0  0  0  0  0  0  0  0  0
   -0.0033   -7.8801    1.3328 C   0  0  0  0  0  0  0  0  0  0  0  0
   -1.0632   -8.6711    1.3777 N   0  0  0  0  0  0  0  0  0  0  0  0
   -2.4645   -8.4601    1.4891 C   0  0  0  0  0  0  0  0  0  0  0  0
   -2.9664   -7.2088    1.5585 N   0  0  0  0  0  0  0  0  0  0  0  0
   -4.2984   -7.1027    1.7271 C   0  0  0  0  0  0  0  0  0  0  0  0
   -5.1646   -8.1100    1.7876 N   0  0  0  0  0  0  0  0  0  0  0  0
   -4.6374   -9.3272    1.8125 C   0  0  0  0  0  0  0  0  0  0  0  0
   -5.4990  -10.3639    2.0857 C   0  0  0  0  0  0  0  0  0  0  0  0
   -5.0681  -11.6814    2.2523 C   0  0  0  0  0  0  0  0  0  0  0  0
   -5.9686  -12.6691    2.5741 N   0  0  0  0  0  0  0  0  0  0  0  0
   -5.5489  -13.8027    3.3936 C   0  0  0  0  0  0  0  0  0  0  0  0
   -5.6029  -15.1158    2.6055 C   0  0  0  0  0  0  0  0  0  0  0  0
   -6.9446  -15.3377    2.0343 N   0  0  3  0  0  0  0  0  0  0  0  0
   -7.0139  -16.6495    1.3898 C   0  0  0  0  0  0  0  0  0  0  0  0
   -8.4166  -16.9006    0.8463 C   0  0  0  0  0  0  0  0  0  0  0  0
   -8.8140  -15.8098   -0.1400 C   0  0  0  0  0  0  0  0  0  0  0  0
   -8.6800  -14.4348    0.5088 C   0  0  0  0  0  0  0  0  0  0  0  0
   -7.2762  -14.2244    1.1037 C   0  0  3  0  0  0  0  0  0  0  0  0
   -7.2125  -12.8272    1.8023 C   0  0  0  0  0  0  0  0  0  0  0  0
   -3.7115  -11.9530    2.0986 C   0  0  0  0  0  0  0  0  0  0  0  0
   -2.8257  -10.9387    1.7707 C   0  0  0  0  0  0  0  0  0  0  0  0
   -3.2730   -9.5950    1.6682 C   0  0  0  0  0  0  0  0  0  0  0  0
    1.2322   -8.3877    1.1847 N   0  0  0  0  0  0  0  0  0  0  0  0
    2.0303   -7.3201    1.1216 N   0  0  0  0  0  0  0  0  0  0  0  0
    3.3073   -2.4680   -0.9026 C   0  0  0  0  0  0  0  0  0  0  0  0
    3.7066   -1.1301   -0.9704 C   0  0  0  0  0  0  0  0  0  0  0  0
    3.2687   -0.2334   -1.9087 O   0  0  0  0  0  0  0  0  0  0  0  0
    1.9477   -0.4521   -2.3949 C   0  0  0  0  0  0  0  0  0  0  0  0
    4.6171   -0.6299   -0.0349 C   0  0  0  0  0  0  0  0  0  0  0  0
    6.8483   -0.9214    3.7265 H   0  0  0  0  0  0  0  0  0  0  0  0
    7.0713   -2.3516    2.7019 H   0  0  0  0  0  0  0  0  0  0  0  0
    5.5186   -2.0573    3.5708 H   0  0  0  0  0  0  0  0  0  0  0  0
    4.9960   -3.3854    1.8987 H   0  0  0  0  0  0  0  0  0  0  0  0
    4.0251   -5.3529    0.6680 H   0  0  0  0  0  0  0  0  0  0  0  0
    3.0630   -5.0970   -0.7788 H   0  0  0  0  0  0  0  0  0  0  0  0
    1.2079   -4.1253    0.6350 H   0  0  0  0  0  0  0  0  0  0  0  0
    2.1698   -4.4443    2.0845 H   0  0  0  0  0  0  0  0  0  0  0  0
   -0.8036   -5.7933    1.4434 H   0  0  0  0  0  0  0  0  0  0  0  0
   -0.8337   -9.5895    1.0088 H   0  0  0  0  0  0  0  0  0  0  0  0
   -4.7222   -6.1158    1.8777 H   0  0  0  0  0  0  0  0  0  0  0  0
   -6.5444  -10.1109    2.2542 H   0  0  0  0  0  0  0  0  0  0  0  0
   -6.2138  -13.8549    4.2630 H   0  0  0  0  0  0  0  0  0  0  0  0
   -4.5418  -13.6705    3.8049 H   0  0  0  0  0  0  0  0  0  0  0  0
   -5.3498  -15.9258    3.2964 H   0  0  0  0  0  0  0  0  0  0  0  0
   -4.8432  -15.1138    1.8108 H   0  0  0  0  0  0  0  0  0  0  0  0
   -6.7858  -17.4313    2.1244 H   0  0  0  0  0  0  0  0  0  0  0  0
   -6.2764  -16.7347    0.5818 H   0  0  0  0  0  0  0  0  0  0  0  0
   -9.1346  -16.9263    1.6765 H   0  0  0  0  0  0  0  0  0  0  0  0
   -8.4554  -17.8805    0.3587 H   0  0  0  0  0  0  0  0  0  0  0  0
   -9.8427  -15.9680   -0.4803 H   0  0  0  0  0  0  0  0  0  0  0  0
   -8.1674  -15.8630   -1.0244 H   0  0  0  0  0  0  0  0  0  0  0  0
   -9.4377  -14.3358    1.2973 H   0  0  0  0  0  0  0  0  0  0  0  0
   -8.8943  -13.6601   -0.2371 H   0  0  0  0  0  0  0  0  0  0  0  0
   -6.5470  -14.2227    0.2793 H   0  0  0  0  0  0  0  0  0  0  0  0
   -8.0557  -12.7149    2.4941 H   0  0  0  0  0  0  0  0  0  0  0  0
   -7.3239  -12.0496    1.0371 H   0  0  0  0  0  0  0  0  0  0  0  0
   -3.3329  -12.9628    2.2123 H   0  0  0  0  0  0  0  0  0  0  0  0
   -1.7812  -11.2150    1.6457 H   0  0  0  0  0  0  0  0  0  0  0  0
    3.0256   -7.4736    0.9819 H   0  0  0  0  0  0  0  0  0  0  0  0
    2.6337   -2.8899   -1.6431 H   0  0  0  0  0  0  0  0  0  0  0  0
    1.6478    0.4341   -2.9631 H   0  0  0  0  0  0  0  0  0  0  0  0
    1.2296   -0.5775   -1.5758 H   0  0  0  0  0  0  0  0  0  0  0  0
    1.9209   -1.3088   -3.0750 H   0  0  0  0  0  0  0  0  0  0  0  0
    4.9273    0.4123   -0.0949 H   0  0  0  0  0  0  0  0  0  0  0  0
  1  2  1  0  0  0  0
  1 39  1  0  0  0  0
  1 40  1  0  0  0  0
  1 41  1  0  0  0  0
  2  3  1  0  0  0  0
  3  4  1  0  0  0  0
  3 38  2  0  0  0  0
  4  5  2  0  0  0  0
  4 42  1  0  0  0  0
  5  6  1  0  0  0  0
  5 34  1  0  0  0  0
  6  7  1  0  0  0  0
  6 43  1  0  0  0  0
  6 44  1  0  0  0  0
  7  8  1  0  0  0  0
  7 45  1  0  0  0  0
  7 46  1  0  0  0  0
  8  9  2  0  0  0  0
  8 33  1  0  0  0  0
  9 10  1  0  0  0  0
  9 47  1  0  0  0  0
 10 11  1  0  0  0  0
 10 32  2  0  0  0  0
 11 12  1  0  0  0  0
 11 48  1  0  0  0  0
 12 13  1  0  0  0  0
 12 31  2  0  0  0  0
 13 14  2  0  0  0  0
 14 15  1  0  0  0  0
 14 49  1  0  0  0  0
 15 16  2  0  0  0  0
 16 17  1  0  0  0  0
 16 31  1  0  0  0  0
 17 18  2  0  0  0  0
 17 50  1  0  0  0  0
 18 19  1  0  0  0  0
 18 29  1  0  0  0  0
 19 20  1  0  0  0  0
 19 28  1  0  0  0  0
 20 21  1  0  0  0  0
 20 51  1  0  0  0  0
 20 52  1  0  0  0  0
 21 22  1  0  0  0  0
 21 53  1  0  0  0  0
 21 54  1  0  0  0  0
 22 23  1  0  0  0  0
 22 27  1  0  0  0  0
 23 24  1  0  0  0  0
 23 55  1  0  0  0  0
 23 56  1  0  0  0  0
 24 25  1  0  0  0  0
 24 57  1  0  0  0  0
 24 58  1  0  0  0  0
 25 26  1  0  0  0  0
 25 59  1  0  0  0  0
 25 60  1  0  0  0  0
 26 27  1  0  0  0  0
 26 61  1  0  0  0  0
 26 62  1  0  0  0  0
 27 28  1  0  0  0  0
 27 63  1  0  0  0  0
 28 64  1  0  0  0  0
 28 65  1  0  0  0  0
 29 30  2  0  0  0  0
 29 66  1  0  0  0  0
 30 31  1  0  0  0  0
 30 67  1  0  0  0  0
 32 33  1  0  0  0  0
 33 68  1  0  0  0  0
 34 35  2  0  0  0  0
 34 69  1  0  0  0  0
 35 36  1  0  0  0  0
 35 38  1  0  0  0  0
 36 37  1  0  0  0  0
 37 70  1  0  0  0  0
 37 71  1  0  0  0  0
 37 72  1  0  0  0  0
 38 73  1  0  0  0  0
M  END
$$$$
