CHEMBL3656073
 OpenBabel04072215373D

 80 83  0  0  1  0  0  0  0  0999 V2000
    2.8158    7.2615    2.7142 C   0  0  0  0  0  0  0  0  0  0  0  0
    1.7078    6.2760    2.4756 C   0  0  0  0  0  0  0  0  0  0  0  0
    2.0126    4.9805    2.0474 C   0  0  0  0  0  0  0  0  0  0  0  0
    0.9944    4.0549    1.8594 C   0  0  0  0  0  0  0  0  0  0  0  0
   -0.3308    4.4193    2.0792 C   0  0  0  0  0  0  0  0  0  0  0  0
   -1.2280    3.4289    2.0132 F   0  0  0  0  0  0  0  0  0  0  0  0
   -0.6809    5.7294    2.4444 C   0  0  0  0  0  0  0  0  0  0  0  0
   -2.0159    6.1985    2.5951 N   0  0  0  0  0  0  0  0  0  0  0  0
   -3.1338    5.6000    2.0430 C   0  0  0  0  0  0  0  0  0  0  0  0
   -3.1239    4.6067    1.3278 O   0  0  0  0  0  0  0  0  0  0  0  0
   -4.3099    6.2927    2.3247 N   0  0  0  0  0  0  0  0  0  0  0  0
   -5.5395    5.7246    1.9038 C   0  0  0  0  0  0  0  0  0  0  0  0
   -5.8426    4.3940    2.2135 C   0  0  0  0  0  0  0  0  0  0  0  0
   -6.9904    3.7903    1.7004 C   0  0  0  0  0  0  0  0  0  0  0  0
   -7.8767    4.5306    0.9169 C   0  0  0  0  0  0  0  0  0  0  0  0
   -9.0296    4.0166    0.3621 O   0  0  0  0  0  0  0  0  0  0  0  0
   -9.7294    3.0419    1.0409 C   0  0  0  0  0  0  0  0  0  0  0  0
   -9.8727    3.0078    2.4236 C   0  0  0  0  0  0  0  0  0  0  0  0
  -10.5753    1.9548    2.9796 C   0  0  0  0  0  0  0  0  0  0  0  0
  -11.1726    0.9823    2.2569 N   0  0  0  0  0  0  0  0  0  0  0  0
  -11.0678    1.0681    0.9090 C   0  0  0  0  0  0  0  0  0  0  0  0
  -11.7636    0.0106    0.1807 C   0  0  0  0  0  0  0  0  0  0  0  0
  -11.9265   -0.2218   -1.1741 C   0  0  0  0  0  0  0  0  0  0  0  0
  -12.7203   -1.3968   -1.3557 C   0  0  0  0  0  0  0  0  0  0  0  0
  -13.1863   -2.0339   -2.5885 C   0  0  0  0  0  0  0  0  0  0  0  0
  -13.9406   -3.0036   -2.5858 O   0  0  0  0  0  0  0  0  0  0  0  0
  -12.7221   -1.4519   -3.7479 N   0  0  0  0  0  0  0  0  0  0  0  0
  -13.1277   -1.8991   -5.0643 C   0  0  0  0  0  0  0  0  0  0  0  0
  -14.4367   -1.2549   -5.5192 C   0  0  0  0  0  0  0  0  0  0  0  0
  -14.3107    0.2623   -5.6692 C   0  0  0  0  0  0  0  0  0  0  0  0
  -15.6349    0.8821   -6.0794 C   0  0  0  0  0  0  0  0  0  0  0  0
  -16.1172    0.5790   -7.1758 O   0  0  0  0  0  0  0  0  0  0  0  0
  -16.2591    1.8068   -5.2538 N   0  0  0  0  0  0  0  0  0  0  0  0
  -15.8301    2.1972   -3.9126 C   0  0  0  0  0  0  0  0  0  0  0  0
  -17.5009    2.4366   -5.7402 C   0  0  0  0  0  0  0  0  0  0  0  0
  -17.3053    3.7564   -6.5112 C   0  0  3  0  0  0  0  0  0  0  0  0
  -16.7248    4.7493   -5.6542 O   0  0  0  0  0  0  0  0  0  0  0  0
  -16.4876    3.6113   -7.8036 C   0  0  0  0  0  0  0  0  0  0  0  0
  -16.3515    4.8701   -8.4701 O   0  0  0  0  0  0  0  0  0  0  0  0
  -13.0048   -1.8510   -0.0800 C   0  0  0  0  0  0  0  0  0  0  0  0
  -12.4255   -1.0082    0.8294 N   0  0  0  0  0  0  0  0  0  0  0  0
  -10.3661    2.0785    0.2645 C   0  0  0  0  0  0  0  0  0  0  0  0
   -7.5738    5.8594    0.6034 C   0  0  0  0  0  0  0  0  0  0  0  0
   -6.4197    6.4670    1.1163 C   0  0  0  0  0  0  0  0  0  0  0  0
    0.3610    6.6437    2.6734 C   0  0  0  0  0  0  0  0  0  0  0  0
    3.7966    6.8084    2.5296 H   0  0  0  0  0  0  0  0  0  0  0  0
    2.8009    7.6032    3.7535 H   0  0  0  0  0  0  0  0  0  0  0  0
    2.7144    8.1200    2.0437 H   0  0  0  0  0  0  0  0  0  0  0  0
    3.0428    4.6762    1.8746 H   0  0  0  0  0  0  0  0  0  0  0  0
    1.2158    3.0356    1.5574 H   0  0  0  0  0  0  0  0  0  0  0  0
   -2.1440    7.1072    3.0128 H   0  0  0  0  0  0  0  0  0  0  0  0
   -4.2285    7.2935    2.2273 H   0  0  0  0  0  0  0  0  0  0  0  0
   -5.1686    3.8050    2.8319 H   0  0  0  0  0  0  0  0  0  0  0  0
   -7.1624    2.7390    1.9130 H   0  0  0  0  0  0  0  0  0  0  0  0
   -9.4340    3.7648    3.0634 H   0  0  0  0  0  0  0  0  0  0  0  0
  -10.6723    1.8615    4.0577 H   0  0  0  0  0  0  0  0  0  0  0  0
  -11.5222    0.4080   -1.9516 H   0  0  0  0  0  0  0  0  0  0  0  0
  -12.0990   -0.6619   -3.6870 H   0  0  0  0  0  0  0  0  0  0  0  0
  -13.2334   -2.9891   -5.0513 H   0  0  0  0  0  0  0  0  0  0  0  0
  -12.3156   -1.6474   -5.7554 H   0  0  0  0  0  0  0  0  0  0  0  0
  -15.2418   -1.4959   -4.8147 H   0  0  0  0  0  0  0  0  0  0  0  0
  -14.7230   -1.6925   -6.4842 H   0  0  0  0  0  0  0  0  0  0  0  0
  -13.5925    0.4981   -6.4647 H   0  0  0  0  0  0  0  0  0  0  0  0
  -13.8936    0.7067   -4.7695 H   0  0  0  0  0  0  0  0  0  0  0  0
  -15.0100    1.5988   -3.5232 H   0  0  0  0  0  0  0  0  0  0  0  0
  -16.6729    2.0760   -3.2257 H   0  0  0  0  0  0  0  0  0  0  0  0
  -15.5226    3.2450   -3.9244 H   0  0  0  0  0  0  0  0  0  0  0  0
  -18.1371    2.6232   -4.8667 H   0  0  0  0  0  0  0  0  0  0  0  0
  -18.0416    1.7277   -6.3778 H   0  0  0  0  0  0  0  0  0  0  0  0
  -18.2963    4.1455   -6.7741 H   0  0  0  0  0  0  0  0  0  0  0  0
  -15.7605    4.6188   -5.6890 H   0  0  0  0  0  0  0  0  0  0  0  0
  -16.9645    2.9092   -8.4940 H   0  0  0  0  0  0  0  0  0  0  0  0
  -15.4700    3.2711   -7.5941 H   0  0  0  0  0  0  0  0  0  0  0  0
  -17.2023    5.3374   -8.4040 H   0  0  0  0  0  0  0  0  0  0  0  0
  -13.5767   -2.7095    0.2479 H   0  0  0  0  0  0  0  0  0  0  0  0
  -12.4656   -1.0910    1.8390 H   0  0  0  0  0  0  0  0  0  0  0  0
  -10.2989    2.1220   -0.8152 H   0  0  0  0  0  0  0  0  0  0  0  0
   -8.2250    6.4171   -0.0648 H   0  0  0  0  0  0  0  0  0  0  0  0
   -6.1879    7.4877    0.8278 H   0  0  0  0  0  0  0  0  0  0  0  0
    0.1383    7.6617    2.9857 H   0  0  0  0  0  0  0  0  0  0  0  0
  1  2  1  0  0  0  0
  1 46  1  0  0  0  0
  1 47  1  0  0  0  0
  1 48  1  0  0  0  0
  2  3  1  0  0  0  0
  2 45  2  0  0  0  0
  3  4  2  0  0  0  0
  3 49  1  0  0  0  0
  4  5  1  0  0  0  0
  4 50  1  0  0  0  0
  5  6  1  0  0  0  0
  5  7  2  0  0  0  0
  7  8  1  0  0  0  0
  7 45  1  0  0  0  0
  8  9  1  0  0  0  0
  8 51  1  0  0  0  0
  9 10  2  0  0  0  0
  9 11  1  0  0  0  0
 11 12  1  0  0  0  0
 11 52  1  0  0  0  0
 12 13  1  0  0  0  0
 12 44  2  0  0  0  0
 13 14  2  0  0  0  0
 13 53  1  0  0  0  0
 14 15  1  0  0  0  0
 14 54  1  0  0  0  0
 15 16  1  0  0  0  0
 15 43  2  0  0  0  0
 16 17  1  0  0  0  0
 17 18  1  0  0  0  0
 17 42  2  0  0  0  0
 18 19  2  0  0  0  0
 18 55  1  0  0  0  0
 19 20  1  0  0  0  0
 19 56  1  0  0  0  0
 20 21  2  0  0  0  0
 21 22  1  0  0  0  0
 21 42  1  0  0  0  0
 22 23  2  0  0  0  0
 22 41  1  0  0  0  0
 23 24  1  0  0  0  0
 23 57  1  0  0  0  0
 24 25  1  0  0  0  0
 24 40  2  0  0  0  0
 25 26  2  0  0  0  0
 25 27  1  0  0  0  0
 27 28  1  0  0  0  0
 27 58  1  0  0  0  0
 28 29  1  0  0  0  0
 28 59  1  0  0  0  0
 28 60  1  0  0  0  0
 29 30  1  0  0  0  0
 29 61  1  0  0  0  0
 29 62  1  0  0  0  0
 30 31  1  0  0  0  0
 30 63  1  0  0  0  0
 30 64  1  0  0  0  0
 31 32  2  0  0  0  0
 31 33  1  0  0  0  0
 33 34  1  0  0  0  0
 33 35  1  0  0  0  0
 34 65  1  0  0  0  0
 34 66  1  0  0  0  0
 34 67  1  0  0  0  0
 35 36  1  0  0  0  0
 35 68  1  0  0  0  0
 35 69  1  0  0  0  0
 36 37  1  0  0  0  0
 36 38  1  0  0  0  0
 36 70  1  0  0  0  0
 37 71  1  0  0  0  0
 38 39  1  0  0  0  0
 38 72  1  0  0  0  0
 38 73  1  0  0  0  0
 39 74  1  0  0  0  0
 40 41  1  0  0  0  0
 40 75  1  0  0  0  0
 41 76  1  0  0  0  0
 42 77  1  0  0  0  0
 43 44  1  0  0  0  0
 43 78  1  0  0  0  0
 44 79  1  0  0  0  0
 45 80  1  0  0  0  0
M  END
$$$$
