CHEMBL382142
 OpenBabel04072215373D

 47 50  0  0  0  0  0  0  0  0999 V2000
    9.0232    6.0559   -7.8675 F   0  0  0  0  0  0  0  0  0  0  0  0
    8.9353    4.8908   -7.1720 C   0  0  0  0  0  0  0  0  0  0  0  0
    7.9730    5.0866   -6.2334 F   0  0  0  0  0  0  0  0  0  0  0  0
    8.4939    3.5914   -8.2794 Cl  0  0  0  0  0  0  0  0  0  0  0  0
   10.2047    4.6872   -6.5538 O   0  0  0  0  0  0  0  0  0  0  0  0
   10.2630    3.9425   -5.4123 C   0  0  0  0  0  0  0  0  0  0  0  0
    9.3365    2.9832   -5.0123 C   0  0  0  0  0  0  0  0  0  0  0  0
    9.5325    2.2685   -3.8266 C   0  0  0  0  0  0  0  0  0  0  0  0
   10.6624    2.4869   -3.0280 C   0  0  0  0  0  0  0  0  0  0  0  0
   10.8668    1.8046   -1.8110 N   0  0  0  0  0  0  0  0  0  0  0  0
   10.5149    0.5158   -1.6329 C   0  0  0  0  0  0  0  0  0  0  0  0
   10.0340   -0.0900   -0.5705 N   0  0  0  0  0  0  0  0  0  0  0  0
    9.8761   -1.4175   -0.9191 N   0  0  0  0  0  0  0  0  0  0  0  0
   10.2961   -1.5335   -2.1647 C   0  0  0  0  0  0  0  0  0  0  0  0
   10.4378   -2.7319   -2.9870 C   0  0  0  0  0  0  0  0  0  0  0  0
   10.2113   -3.9533   -2.3343 C   0  0  0  0  0  0  0  0  0  0  0  0
   10.3539   -5.1809   -2.8850 N   0  0  0  0  0  0  0  0  0  0  0  0
   10.7615   -5.2121   -4.1597 C   0  0  0  0  0  0  0  0  0  0  0  0
   11.0012   -4.0716   -4.9119 C   0  0  0  0  0  0  0  0  0  0  0  0
   10.8128   -2.7897   -4.3511 C   0  0  0  0  0  0  0  0  0  0  0  0
   11.0785   -1.5524   -5.2107 C   0  0  0  0  0  0  0  0  0  0  0  0
   10.8946   -1.7609   -6.7285 C   0  0  0  0  0  0  0  0  0  0  0  0
   11.1754   -0.6196   -7.6740 C   0  0  0  0  0  0  0  0  0  0  0  0
   11.6262    0.6419   -7.2943 C   0  0  0  0  0  0  0  0  0  0  0  0
   11.9110    1.5753   -8.2846 C   0  0  0  0  0  0  0  0  0  0  0  0
   11.7755    1.3420   -9.6083 N   0  0  0  0  0  0  0  0  0  0  0  0
   11.3302    0.1202   -9.9610 C   0  0  0  0  0  0  0  0  0  0  0  0
   11.0176   -0.8723   -9.0473 C   0  0  0  0  0  0  0  0  0  0  0  0
   10.7170   -0.3435   -2.6768 O   0  0  0  0  0  0  0  0  0  0  0  0
   11.5725    3.4706   -3.4201 C   0  0  0  0  0  0  0  0  0  0  0  0
   11.3872    4.1731   -4.6147 C   0  0  0  0  0  0  0  0  0  0  0  0
    8.4466    2.7534   -5.5891 H   0  0  0  0  0  0  0  0  0  0  0  0
    8.7797    1.5392   -3.5336 H   0  0  0  0  0  0  0  0  0  0  0  0
   10.6881    2.4038   -1.0108 H   0  0  0  0  0  0  0  0  0  0  0  0
    9.9056   -3.9814   -1.2884 H   0  0  0  0  0  0  0  0  0  0  0  0
   10.9022   -6.2005   -4.5858 H   0  0  0  0  0  0  0  0  0  0  0  0
   11.3417   -4.2216   -5.9292 H   0  0  0  0  0  0  0  0  0  0  0  0
   12.1013   -1.2123   -5.0009 H   0  0  0  0  0  0  0  0  0  0  0  0
   10.3866   -0.7537   -4.9261 H   0  0  0  0  0  0  0  0  0  0  0  0
    9.8643   -2.0978   -6.9045 H   0  0  0  0  0  0  0  0  0  0  0  0
   11.5672   -2.5599   -7.0603 H   0  0  0  0  0  0  0  0  0  0  0  0
   11.7745    0.9129   -6.2560 H   0  0  0  0  0  0  0  0  0  0  0  0
   12.2734    2.5659   -8.0311 H   0  0  0  0  0  0  0  0  0  0  0  0
   11.2354   -0.0545  -11.0286 H   0  0  0  0  0  0  0  0  0  0  0  0
   10.6743   -1.8388   -9.4031 H   0  0  0  0  0  0  0  0  0  0  0  0
   12.4513    3.6747   -2.8120 H   0  0  0  0  0  0  0  0  0  0  0  0
   12.1243    4.9149   -4.9154 H   0  0  0  0  0  0  0  0  0  0  0  0
  1  2  1  0  0  0  0
  2  3  1  0  0  0  0
  2  4  1  0  0  0  0
  2  5  1  0  0  0  0
  5  6  1  0  0  0  0
  6  7  1  0  0  0  0
  6 31  2  0  0  0  0
  7  8  2  0  0  0  0
  7 32  1  0  0  0  0
  8  9  1  0  0  0  0
  8 33  1  0  0  0  0
  9 10  1  0  0  0  0
  9 30  2  0  0  0  0
 10 11  1  0  0  0  0
 10 34  1  0  0  0  0
 11 12  2  0  0  0  0
 11 29  1  0  0  0  0
 12 13  1  0  0  0  0
 13 14  2  0  0  0  0
 14 15  1  0  0  0  0
 14 29  1  0  0  0  0
 15 16  1  0  0  0  0
 15 20  2  0  0  0  0
 16 17  2  0  0  0  0
 16 35  1  0  0  0  0
 17 18  1  0  0  0  0
 18 19  2  0  0  0  0
 18 36  1  0  0  0  0
 19 20  1  0  0  0  0
 19 37  1  0  0  0  0
 20 21  1  0  0  0  0
 21 22  1  0  0  0  0
 21 38  1  0  0  0  0
 21 39  1  0  0  0  0
 22 23  1  0  0  0  0
 22 40  1  0  0  0  0
 22 41  1  0  0  0  0
 23 24  1  0  0  0  0
 23 28  2  0  0  0  0
 24 25  2  0  0  0  0
 24 42  1  0  0  0  0
 25 26  1  0  0  0  0
 25 43  1  0  0  0  0
 26 27  2  0  0  0  0
 27 28  1  0  0  0  0
 27 44  1  0  0  0  0
 28 45  1  0  0  0  0
 30 31  1  0  0  0  0
 30 46  1  0  0  0  0
 31 47  1  0  0  0  0
M  END
$$$$
