CHEMBL302481
 OpenBabel04072215363D

 50 53  0  0  0  0  0  0  0  0999 V2000
    3.2334    1.0417    0.6819 C   0  0  0  0  0  0  0  0  0  0  0  0
    2.4613   -0.1279    0.0144 C   0  0  0  0  0  0  0  0  0  0  0  0
    0.9704    0.0480    0.3738 C   0  0  0  0  0  0  0  0  0  0  0  0
    2.6493    0.0306   -1.5076 C   0  0  0  0  0  0  0  0  0  0  0  0
    2.9493   -1.4508    0.4664 N   0  0  0  0  0  0  0  0  0  0  0  0
    3.9595   -1.6680    1.3718 C   0  0  0  0  0  0  0  0  0  0  0  0
    4.1179   -3.0277    1.5718 C   0  0  0  0  0  0  0  0  0  0  0  0
    5.1097   -3.5529    2.5021 C   0  0  0  0  0  0  0  0  0  0  0  0
    5.4565   -2.8348    3.6545 C   0  0  0  0  0  0  0  0  0  0  0  0
    6.3729   -3.3560    4.5650 C   0  0  0  0  0  0  0  0  0  0  0  0
    6.8679   -4.6507    4.3957 C   0  0  0  0  0  0  0  0  0  0  0  0
    7.6854   -5.2976    5.2930 O   0  0  0  0  0  0  0  0  0  0  0  0
    7.5617   -5.0277    6.6323 C   0  0  0  0  0  0  0  0  0  0  0  0
    6.3530   -4.6933    7.2620 C   0  0  0  0  0  0  0  0  0  0  0  0
    6.3411   -4.3451    8.6088 C   0  0  0  0  0  0  0  0  0  0  0  0
    7.5214   -4.4153    9.3382 C   0  0  0  0  0  0  0  0  0  0  0  0
    7.5540   -4.0798   10.6605 O   0  0  0  0  0  0  0  0  0  0  0  0
    8.7105   -4.8339    8.7481 C   0  0  0  0  0  0  0  0  0  0  0  0
    8.7298   -5.1393    7.3879 C   0  0  0  0  0  0  0  0  0  0  0  0
    6.5685   -5.3524    3.2322 C   0  0  0  0  0  0  0  0  0  0  0  0
    5.7332   -4.7833    2.2719 C   0  0  0  0  0  0  0  0  0  0  0  0
    3.1473   -3.6829    0.7460 C   0  0  0  0  0  0  0  0  0  0  0  0
    2.7378   -5.0094    0.4841 C   0  0  0  0  0  0  0  0  0  0  0  0
    3.2551   -6.1451    1.0935 N   0  0  0  0  0  0  0  0  0  0  0  0
    1.7551   -5.2244   -0.4137 N   0  0  0  0  0  0  0  0  0  0  0  0
    1.1925   -4.1617   -1.0114 C   0  0  0  0  0  0  0  0  0  0  0  0
    1.4723   -2.8667   -0.8268 N   0  0  0  0  0  0  0  0  0  0  0  0
    2.4579   -2.6793    0.0637 C   0  0  0  0  0  0  0  0  0  0  0  0
    2.9021    2.0116    0.2929 H   0  0  0  0  0  0  0  0  0  0  0  0
    4.3106    0.9734    0.4922 H   0  0  0  0  0  0  0  0  0  0  0  0
    3.0793    1.0574    1.7670 H   0  0  0  0  0  0  0  0  0  0  0  0
    0.6054    1.0337    0.0650 H   0  0  0  0  0  0  0  0  0  0  0  0
    0.8111   -0.0464    1.4547 H   0  0  0  0  0  0  0  0  0  0  0  0
    0.3346   -0.6948   -0.1163 H   0  0  0  0  0  0  0  0  0  0  0  0
    2.3521    1.0335   -1.8353 H   0  0  0  0  0  0  0  0  0  0  0  0
    2.0441   -0.6815   -2.0771 H   0  0  0  0  0  0  0  0  0  0  0  0
    3.6966   -0.1182   -1.7936 H   0  0  0  0  0  0  0  0  0  0  0  0
    4.5030   -0.8438    1.8139 H   0  0  0  0  0  0  0  0  0  0  0  0
    5.0143   -1.8650    3.8670 H   0  0  0  0  0  0  0  0  0  0  0  0
    6.6535   -2.7534    5.4243 H   0  0  0  0  0  0  0  0  0  0  0  0
    5.4232   -4.6641    6.7023 H   0  0  0  0  0  0  0  0  0  0  0  0
    5.4114   -4.0179    9.0604 H   0  0  0  0  0  0  0  0  0  0  0  0
    6.6635   -3.7951   10.9255 H   0  0  0  0  0  0  0  0  0  0  0  0
    9.6161   -4.9097    9.3379 H   0  0  0  0  0  0  0  0  0  0  0  0
    9.6564   -5.4506    6.9132 H   0  0  0  0  0  0  0  0  0  0  0  0
    6.9812   -6.3457    3.0698 H   0  0  0  0  0  0  0  0  0  0  0  0
    5.5676   -5.3295    1.3461 H   0  0  0  0  0  0  0  0  0  0  0  0
    3.5370   -6.0061    2.0534 H   0  0  0  0  0  0  0  0  0  0  0  0
    2.6550   -6.9429    0.9237 H   0  0  0  0  0  0  0  0  0  0  0  0
    0.4092   -4.3856   -1.7274 H   0  0  0  0  0  0  0  0  0  0  0  0
  1  2  1  0  0  0  0
  1 29  1  0  0  0  0
  1 30  1  0  0  0  0
  1 31  1  0  0  0  0
  2  3  1  0  0  0  0
  2  4  1  0  0  0  0
  2  5  1  0  0  0  0
  3 32  1  0  0  0  0
  3 33  1  0  0  0  0
  3 34  1  0  0  0  0
  4 35  1  0  0  0  0
  4 36  1  0  0  0  0
  4 37  1  0  0  0  0
  5  6  1  0  0  0  0
  5 28  1  0  0  0  0
  6  7  2  0  0  0  0
  6 38  1  0  0  0  0
  7  8  1  0  0  0  0
  7 22  1  0  0  0  0
  8  9  1  0  0  0  0
  8 21  2  0  0  0  0
  9 10  2  0  0  0  0
  9 39  1  0  0  0  0
 10 11  1  0  0  0  0
 10 40  1  0  0  0  0
 11 12  1  0  0  0  0
 11 20  2  0  0  0  0
 12 13  1  0  0  0  0
 13 14  1  0  0  0  0
 13 19  2  0  0  0  0
 14 15  2  0  0  0  0
 14 41  1  0  0  0  0
 15 16  1  0  0  0  0
 15 42  1  0  0  0  0
 16 17  1  0  0  0  0
 16 18  2  0  0  0  0
 17 43  1  0  0  0  0
 18 19  1  0  0  0  0
 18 44  1  0  0  0  0
 19 45  1  0  0  0  0
 20 21  1  0  0  0  0
 20 46  1  0  0  0  0
 21 47  1  0  0  0  0
 22 23  1  0  0  0  0
 22 28  2  0  0  0  0
 23 24  1  0  0  0  0
 23 25  2  0  0  0  0
 24 48  1  0  0  0  0
 24 49  1  0  0  0  0
 25 26  1  0  0  0  0
 26 27  2  0  0  0  0
 26 50  1  0  0  0  0
 27 28  1  0  0  0  0
M  END
$$$$
