CHEMBL3965938
 OpenBabel04072215373D

 60 63  0  0  1  0  0  0  0  0999 V2000
    8.6051    3.6313    7.1892 C   0  0  0  0  0  0  0  0  0  0  0  0
    8.7327    2.4808    6.2030 C   0  0  0  0  0  0  0  0  0  0  0  0
    7.9950    2.7643    4.9074 C   0  0  0  0  0  0  0  0  0  0  0  0
    7.4113    3.8320    4.7018 O   0  0  0  0  0  0  0  0  0  0  0  0
    7.9470    1.6610    3.8619 C   0  0  0  0  0  0  0  0  0  0  0  0
    9.2666    1.2837    3.3368 N   0  0  0  0  0  0  0  0  0  0  0  0
   10.0483    2.3778    2.7207 C   0  0  0  0  0  0  0  0  0  0  0  0
    9.6476    2.7527    1.2852 C   0  0  0  0  0  0  0  0  0  0  0  0
    9.6215    1.6145    0.4160 O   0  0  0  0  0  0  0  0  0  0  0  0
    8.7476    0.5757    0.8980 C   0  0  3  0  0  0  0  0  0  0  0  0
    7.2571    0.9642    0.6884 C   0  0  0  0  0  0  0  0  0  0  0  0
    6.8333    0.8654   -0.6950 O   0  0  0  0  0  0  0  0  0  0  0  0
    6.4400   -0.3650   -1.1538 C   0  0  0  0  0  0  0  0  0  0  0  0
    6.5242   -1.5150   -0.3375 C   0  0  0  0  0  0  0  0  0  0  0  0
    6.2152   -2.7863   -0.7781 C   0  0  0  0  0  0  0  0  0  0  0  0
    6.3381   -3.8089    0.0715 N   0  0  0  0  0  0  0  0  0  0  0  0
    6.0641   -5.0213   -0.4178 C   0  0  0  0  0  0  0  0  0  0  0  0
    5.7211   -5.2980   -1.6777 N   0  0  0  0  0  0  0  0  0  0  0  0
    5.6208   -4.2552   -2.5232 C   0  0  0  0  0  0  0  0  0  0  0  0
    5.3489   -4.4975   -3.8988 N   0  0  0  0  0  0  0  0  0  0  0  0
    4.9494   -5.7482   -4.4055 C   0  0  0  0  0  0  0  0  0  0  0  0
    3.8934   -6.4470   -3.8181 C   0  0  0  0  0  0  0  0  0  0  0  0
    3.5407   -7.7159   -4.2623 C   0  0  0  0  0  0  0  0  0  0  0  0
    4.2451   -8.3021   -5.3173 C   0  0  0  0  0  0  0  0  0  0  0  0
    3.7964   -9.9051   -5.7794 Cl  0  0  0  0  0  0  0  0  0  0  0  0
    5.2771   -7.6003   -5.9372 C   0  0  0  0  0  0  0  0  0  0  0  0
    6.1972   -8.2645   -7.2443 Cl  0  0  0  0  0  0  0  0  0  0  0  0
    5.6202   -6.3133   -5.4917 C   0  0  0  0  0  0  0  0  0  0  0  0
    5.8167   -2.9398   -2.0983 C   0  0  0  0  0  0  0  0  0  0  0  0
    5.6466   -1.8069   -2.9113 C   0  0  0  0  0  0  0  0  0  0  0  0
    5.9541   -0.5176   -2.4602 C   0  0  0  0  0  0  0  0  0  0  0  0
    5.7081    0.3760   -3.4594 O   0  0  0  0  0  0  0  0  0  0  0  0
    6.1056    1.7247   -3.4004 C   0  0  0  0  0  0  0  0  0  0  0  0
    9.1544    0.1831    2.3517 C   0  0  0  0  0  0  0  0  0  0  0  0
    9.2285    3.4541    8.0704 H   0  0  0  0  0  0  0  0  0  0  0  0
    7.5676    3.7452    7.5222 H   0  0  0  0  0  0  0  0  0  0  0  0
    8.9146    4.5795    6.7364 H   0  0  0  0  0  0  0  0  0  0  0  0
    8.3191    1.5708    6.6500 H   0  0  0  0  0  0  0  0  0  0  0  0
    9.7890    2.3140    5.9726 H   0  0  0  0  0  0  0  0  0  0  0  0
    7.2689    1.9975    3.0773 H   0  0  0  0  0  0  0  0  0  0  0  0
    7.4801    0.7936    4.3452 H   0  0  0  0  0  0  0  0  0  0  0  0
   11.0913    2.0336    2.6892 H   0  0  0  0  0  0  0  0  0  0  0  0
   10.0560    3.2729    3.3513 H   0  0  0  0  0  0  0  0  0  0  0  0
   10.3846    3.4471    0.8699 H   0  0  0  0  0  0  0  0  0  0  0  0
    8.6837    3.2674    1.2641 H   0  0  0  0  0  0  0  0  0  0  0  0
    8.9722   -0.2944    0.2700 H   0  0  0  0  0  0  0  0  0  0  0  0
    7.0888    2.0118    0.9408 H   0  0  0  0  0  0  0  0  0  0  0  0
    6.5825    0.4064    1.3490 H   0  0  0  0  0  0  0  0  0  0  0  0
    6.8582   -1.4711    0.6957 H   0  0  0  0  0  0  0  0  0  0  0  0
    6.1373   -5.8585    0.2657 H   0  0  0  0  0  0  0  0  0  0  0  0
    6.0790   -4.0597   -4.4555 H   0  0  0  0  0  0  0  0  0  0  0  0
    3.3509   -5.9991   -2.9864 H   0  0  0  0  0  0  0  0  0  0  0  0
    2.7310   -8.2433   -3.7676 H   0  0  0  0  0  0  0  0  0  0  0  0
    6.4468   -5.7897   -5.9675 H   0  0  0  0  0  0  0  0  0  0  0  0
    5.2646   -1.9148   -3.9246 H   0  0  0  0  0  0  0  0  0  0  0  0
    6.0866    2.0871   -4.4375 H   0  0  0  0  0  0  0  0  0  0  0  0
    7.1239    1.8526   -3.0337 H   0  0  0  0  0  0  0  0  0  0  0  0
    5.3782    2.3162   -2.8406 H   0  0  0  0  0  0  0  0  0  0  0  0
   10.1583   -0.2647    2.2958 H   0  0  0  0  0  0  0  0  0  0  0  0
    8.5094   -0.6165    2.7369 H   0  0  0  0  0  0  0  0  0  0  0  0
  1  2  1  0  0  0  0
  1 35  1  0  0  0  0
  1 36  1  0  0  0  0
  1 37  1  0  0  0  0
  2  3  1  0  0  0  0
  2 38  1  0  0  0  0
  2 39  1  0  0  0  0
  3  4  2  0  0  0  0
  3  5  1  0  0  0  0
  5  6  1  0  0  0  0
  5 40  1  0  0  0  0
  5 41  1  0  0  0  0
  6  7  1  0  0  0  0
  6 34  1  0  0  0  0
  7  8  1  0  0  0  0
  7 42  1  0  0  0  0
  7 43  1  0  0  0  0
  8  9  1  0  0  0  0
  8 44  1  0  0  0  0
  8 45  1  0  0  0  0
  9 10  1  0  0  0  0
 10 11  1  0  0  0  0
 10 34  1  0  0  0  0
 10 46  1  0  0  0  0
 11 12  1  0  0  0  0
 11 47  1  0  0  0  0
 11 48  1  0  0  0  0
 12 13  1  0  0  0  0
 13 14  1  0  0  0  0
 13 31  2  0  0  0  0
 14 15  2  0  0  0  0
 14 49  1  0  0  0  0
 15 16  1  0  0  0  0
 15 29  1  0  0  0  0
 16 17  2  0  0  0  0
 17 18  1  0  0  0  0
 17 50  1  0  0  0  0
 18 19  2  0  0  0  0
 19 20  1  0  0  0  0
 19 29  1  0  0  0  0
 20 21  1  0  0  0  0
 20 51  1  0  0  0  0
 21 22  1  0  0  0  0
 21 28  2  0  0  0  0
 22 23  2  0  0  0  0
 22 52  1  0  0  0  0
 23 24  1  0  0  0  0
 23 53  1  0  0  0  0
 24 25  1  0  0  0  0
 24 26  2  0  0  0  0
 26 27  1  0  0  0  0
 26 28  1  0  0  0  0
 28 54  1  0  0  0  0
 29 30  2  0  0  0  0
 30 31  1  0  0  0  0
 30 55  1  0  0  0  0
 31 32  1  0  0  0  0
 32 33  1  0  0  0  0
 33 56  1  0  0  0  0
 33 57  1  0  0  0  0
 33 58  1  0  0  0  0
 34 59  1  0  0  0  0
 34 60  1  0  0  0  0
M  END
$$$$
