CHEMBL271140
 OpenBabel04072215363D

 76 80  0  0  0  0  0  0  0  0999 V2000
    2.3659    0.2524   -0.6031 C   0  0  0  0  0  0  0  0  0  0  0  0
    0.9741    0.0692   -0.0660 C   0  0  0  0  0  0  0  0  0  0  0  0
    0.2588    1.2330    0.2560 C   0  0  0  0  0  0  0  0  0  0  0  0
   -1.0742    1.1845    0.6772 C   0  0  0  0  0  0  0  0  0  0  0  0
   -1.7462   -0.0287    0.7950 C   0  0  0  0  0  0  0  0  0  0  0  0
   -3.1099   -0.1415    1.1796 N   0  0  0  0  0  0  0  0  0  0  0  0
   -3.9901    0.9122    1.4086 C   0  0  0  0  0  0  0  0  0  0  0  0
   -3.7113    2.0991    1.2791 O   0  0  0  0  0  0  0  0  0  0  0  0
   -5.3930    0.5573    1.8311 C   0  0  0  0  0  0  0  0  0  0  0  0
   -6.0037   -0.5870    1.2914 C   0  0  0  0  0  0  0  0  0  0  0  0
   -7.3272   -0.9002    1.6024 C   0  0  0  0  0  0  0  0  0  0  0  0
   -8.0556   -0.0828    2.4612 C   0  0  0  0  0  0  0  0  0  0  0  0
   -7.4767    1.0613    3.0388 C   0  0  0  0  0  0  0  0  0  0  0  0
   -8.3095    1.8752    4.0133 C   0  0  0  0  0  0  0  0  0  0  0  0
   -9.5600    1.3682    4.2159 F   0  0  0  0  0  0  0  0  0  0  0  0
   -7.7434    1.9394    5.2514 F   0  0  0  0  0  0  0  0  0  0  0  0
   -8.4994    3.1619    3.6116 F   0  0  0  0  0  0  0  0  0  0  0  0
   -6.1342    1.3999    2.7115 C   0  0  0  0  0  0  0  0  0  0  0  0
   -5.5005    2.6424    3.2982 C   0  0  0  0  0  0  0  0  0  0  0  0
   -1.0299   -1.2008    0.5207 C   0  0  0  0  0  0  0  0  0  0  0  0
    0.3261   -1.1703    0.1060 C   0  0  0  0  0  0  0  0  0  0  0  0
    0.9414   -2.5099   -0.1701 C   0  0  0  0  0  0  0  0  0  0  0  0
    0.2196   -3.3880   -0.6310 O   0  0  0  0  0  0  0  0  0  0  0  0
    2.2708   -2.6735    0.1763 N   0  0  0  0  0  0  0  0  0  0  0  0
    3.0202   -3.8688    0.0573 C   0  0  0  0  0  0  0  0  0  0  0  0
    2.5435   -5.0798   -0.3863 C   0  0  0  0  0  0  0  0  0  0  0  0
    3.2934   -6.1959   -0.4526 N   0  0  0  0  0  0  0  0  0  0  0  0
    4.5785   -6.1297   -0.0546 C   0  0  0  0  0  0  0  0  0  0  0  0
    5.3555   -7.2809   -0.0809 N   0  0  0  0  0  0  0  0  0  0  0  0
    5.2295   -8.3505   -0.9826 C   0  0  0  0  0  0  0  0  0  0  0  0
    4.6985   -8.1661   -2.2595 C   0  0  0  0  0  0  0  0  0  0  0  0
    4.4700   -9.2487   -3.1016 C   0  0  0  0  0  0  0  0  0  0  0  0
    4.7419  -10.5605   -2.6992 C   0  0  0  0  0  0  0  0  0  0  0  0
    4.4577  -11.5961   -3.5666 N   0  0  0  0  0  0  0  0  0  0  0  0
    5.1432  -12.8881   -3.4935 C   0  0  0  0  0  0  0  0  0  0  0  0
    5.1936  -13.4943   -4.9181 C   0  0  0  0  0  0  0  0  0  0  0  0
    3.8496  -13.6344   -5.5309 N   0  0  0  0  0  0  0  0  0  0  0  0
    3.9559  -14.1596   -6.8884 C   0  0  0  0  0  0  0  0  0  0  0  0
    3.1772  -12.3128   -5.5401 C   0  0  0  0  0  0  0  0  0  0  0  0
    3.0973  -11.6838   -4.1323 C   0  0  0  0  0  0  0  0  0  0  0  0
    5.3309  -10.7342   -1.4436 C   0  0  0  0  0  0  0  0  0  0  0  0
    5.5794   -9.6445   -0.5947 C   0  0  0  0  0  0  0  0  0  0  0  0
    5.1431   -5.0022    0.3965 N   0  0  0  0  0  0  0  0  0  0  0  0
    4.3540   -3.8989    0.4227 C   0  0  0  0  0  0  0  0  0  0  0  0
    2.5341    1.2915   -0.9119 H   0  0  0  0  0  0  0  0  0  0  0  0
    2.5310   -0.3659   -1.4901 H   0  0  0  0  0  0  0  0  0  0  0  0
    3.1134    0.0294    0.1629 H   0  0  0  0  0  0  0  0  0  0  0  0
    0.7240    2.2135    0.1561 H   0  0  0  0  0  0  0  0  0  0  0  0
   -1.5548    2.1324    0.8956 H   0  0  0  0  0  0  0  0  0  0  0  0
   -3.4587   -1.0845    1.2880 H   0  0  0  0  0  0  0  0  0  0  0  0
   -5.4811   -1.2319    0.5903 H   0  0  0  0  0  0  0  0  0  0  0  0
   -7.7984   -1.7789    1.1659 H   0  0  0  0  0  0  0  0  0  0  0  0
   -9.0916   -0.3436    2.6817 H   0  0  0  0  0  0  0  0  0  0  0  0
   -6.1456    3.1654    4.0067 H   0  0  0  0  0  0  0  0  0  0  0  0
   -5.2752    3.3687    2.5115 H   0  0  0  0  0  0  0  0  0  0  0  0
   -4.5894    2.3766    3.8435 H   0  0  0  0  0  0  0  0  0  0  0  0
   -1.5253   -2.1669    0.6093 H   0  0  0  0  0  0  0  0  0  0  0  0
    2.7401   -1.9031    0.6267 H   0  0  0  0  0  0  0  0  0  0  0  0
    1.5193   -5.2365   -0.7023 H   0  0  0  0  0  0  0  0  0  0  0  0
    6.2676   -7.1361    0.3158 H   0  0  0  0  0  0  0  0  0  0  0  0
    4.4553   -7.1701   -2.6233 H   0  0  0  0  0  0  0  0  0  0  0  0
    4.0786   -9.0516   -4.0951 H   0  0  0  0  0  0  0  0  0  0  0  0
    4.6185  -13.5647   -2.8070 H   0  0  0  0  0  0  0  0  0  0  0  0
    6.1738  -12.7719   -3.1388 H   0  0  0  0  0  0  0  0  0  0  0  0
    5.6801  -14.4744   -4.8622 H   0  0  0  0  0  0  0  0  0  0  0  0
    5.8240  -12.8479   -5.5456 H   0  0  0  0  0  0  0  0  0  0  0  0
    4.4237  -15.1496   -6.8771 H   0  0  0  0  0  0  0  0  0  0  0  0
    4.5425  -13.5064   -7.5444 H   0  0  0  0  0  0  0  0  0  0  0  0
    2.9599  -14.2847   -7.3270 H   0  0  0  0  0  0  0  0  0  0  0  0
    2.1591  -12.4173   -5.9330 H   0  0  0  0  0  0  0  0  0  0  0  0
    3.7152  -11.6180   -6.2005 H   0  0  0  0  0  0  0  0  0  0  0  0
    2.4637  -12.2990   -3.4794 H   0  0  0  0  0  0  0  0  0  0  0  0
    2.6051  -10.7086   -4.2188 H   0  0  0  0  0  0  0  0  0  0  0  0
    5.5602  -11.7313   -1.0749 H   0  0  0  0  0  0  0  0  0  0  0  0
    5.9938   -9.8245    0.3939 H   0  0  0  0  0  0  0  0  0  0  0  0
    4.8680   -3.0015    0.7531 H   0  0  0  0  0  0  0  0  0  0  0  0
  1  2  1  0  0  0  0
  1 45  1  0  0  0  0
  1 46  1  0  0  0  0
  1 47  1  0  0  0  0
  2  3  1  0  0  0  0
  2 21  2  0  0  0  0
  3  4  2  0  0  0  0
  3 48  1  0  0  0  0
  4  5  1  0  0  0  0
  4 49  1  0  0  0  0
  5  6  1  0  0  0  0
  5 20  2  0  0  0  0
  6  7  1  0  0  0  0
  6 50  1  0  0  0  0
  7  8  2  0  0  0  0
  7  9  1  0  0  0  0
  9 10  1  0  0  0  0
  9 18  2  0  0  0  0
 10 11  2  0  0  0  0
 10 51  1  0  0  0  0
 11 12  1  0  0  0  0
 11 52  1  0  0  0  0
 12 13  2  0  0  0  0
 12 53  1  0  0  0  0
 13 14  1  0  0  0  0
 13 18  1  0  0  0  0
 14 15  1  0  0  0  0
 14 16  1  0  0  0  0
 14 17  1  0  0  0  0
 18 19  1  0  0  0  0
 19 54  1  0  0  0  0
 19 55  1  0  0  0  0
 19 56  1  0  0  0  0
 20 21  1  0  0  0  0
 20 57  1  0  0  0  0
 21 22  1  0  0  0  0
 22 23  2  0  0  0  0
 22 24  1  0  0  0  0
 24 25  1  0  0  0  0
 24 58  1  0  0  0  0
 25 26  1  0  0  0  0
 25 44  2  0  0  0  0
 26 27  2  0  0  0  0
 26 59  1  0  0  0  0
 27 28  1  0  0  0  0
 28 29  1  0  0  0  0
 28 43  2  0  0  0  0
 29 30  1  0  0  0  0
 29 60  1  0  0  0  0
 30 31  1  0  0  0  0
 30 42  2  0  0  0  0
 31 32  2  0  0  0  0
 31 61  1  0  0  0  0
 32 33  1  0  0  0  0
 32 62  1  0  0  0  0
 33 34  1  0  0  0  0
 33 41  2  0  0  0  0
 34 35  1  0  0  0  0
 34 40  1  0  0  0  0
 35 36  1  0  0  0  0
 35 63  1  0  0  0  0
 35 64  1  0  0  0  0
 36 37  1  0  0  0  0
 36 65  1  0  0  0  0
 36 66  1  0  0  0  0
 37 38  1  0  0  0  0
 37 39  1  0  0  0  0
 38 67  1  0  0  0  0
 38 68  1  0  0  0  0
 38 69  1  0  0  0  0
 39 40  1  0  0  0  0
 39 70  1  0  0  0  0
 39 71  1  0  0  0  0
 40 72  1  0  0  0  0
 40 73  1  0  0  0  0
 41 42  1  0  0  0  0
 41 74  1  0  0  0  0
 42 75  1  0  0  0  0
 43 44  1  0  0  0  0
 44 76  1  0  0  0  0
M  END
$$$$
