CHEMBL3986036
 OpenBabel04072215373D

 64 68  0  0  0  0  0  0  0  0999 V2000
    0.6184    3.4976    2.4110 C   0  0  0  0  0  0  0  0  0  0  0  0
    1.9949    3.8608    2.2718 O   0  0  0  0  0  0  0  0  0  0  0  0
    2.8785    2.8672    1.9158 C   0  0  0  0  0  0  0  0  0  0  0  0
    2.5186    1.5296    1.7445 C   0  0  0  0  0  0  0  0  0  0  0  0
    3.4695    0.6050    1.3188 C   0  0  0  0  0  0  0  0  0  0  0  0
    3.2351   -0.7236    1.0772 O   0  0  0  0  0  0  0  0  0  0  0  0
    1.9170   -1.2012    1.3212 C   0  0  0  0  0  0  0  0  0  0  0  0
    4.7841    1.0190    1.0692 C   0  0  0  0  0  0  0  0  0  0  0  0
    5.1908    2.3515    1.2316 C   0  0  0  0  0  0  0  0  0  0  0  0
    6.4683    2.8078    0.8087 N   0  0  0  0  0  0  0  0  0  0  0  0
    7.0024    2.1855   -0.4813 C   0  0  0  0  0  0  0  0  0  0  0  0
    6.0978    2.3802   -1.7226 C   0  0  0  0  0  0  0  0  0  0  0  0
    6.6605    1.7294   -3.0219 C   0  0  0  0  0  0  0  0  0  0  0  0
    5.7583    1.9205   -4.1717 N   0  0  0  0  0  0  0  0  0  0  0  0
    4.4425    1.2845   -4.0247 C   0  0  0  0  0  0  0  0  0  0  0  0
    3.9708    0.8542   -5.4137 C   0  0  0  0  0  0  0  0  0  0  0  0
    5.0294    1.3783   -6.3522 C   0  0  0  0  0  0  0  0  0  0  0  0
    5.1976    0.5524   -7.4066 F   0  0  0  0  0  0  0  0  0  0  0  0
    4.6695    2.5882   -6.8416 F   0  0  0  0  0  0  0  0  0  0  0  0
    6.2795    1.4774   -5.4801 C   0  0  0  0  0  0  0  0  0  0  0  0
    7.5748    3.2462    1.6250 C   0  0  0  0  0  0  0  0  0  0  0  0
    8.3916    4.2074    1.0381 C   0  0  0  0  0  0  0  0  0  0  0  0
    9.7102    4.3412    1.4285 C   0  0  0  0  0  0  0  0  0  0  0  0
   10.2136    3.6426    2.4971 C   0  0  0  0  0  0  0  0  0  0  0  0
   11.5417    3.7179    2.6255 N   0  0  0  0  0  0  0  0  0  0  0  0
   12.0592    3.2087    3.7533 C   0  0  0  0  0  0  0  0  0  0  0  0
   11.2775    2.7194    4.7674 C   0  0  0  0  0  0  0  0  0  0  0  0
   11.9197    2.6243    6.0803 C   0  0  0  0  0  0  0  0  0  0  0  0
   11.8509    3.5337    7.1656 C   0  0  0  0  0  0  0  0  0  0  0  0
   12.7992    3.3256    8.0864 N   0  0  0  0  0  0  0  0  0  0  0  0
   13.5147    2.3046    7.5867 N   0  0  0  0  0  0  0  0  0  0  0  0
   13.0825    1.9162    6.3426 C   0  0  0  0  0  0  0  0  0  0  0  0
    9.9304    2.5268    4.5905 N   0  0  0  0  0  0  0  0  0  0  0  0
    9.3601    2.9342    3.3781 C   0  0  0  0  0  0  0  0  0  0  0  0
    8.0214    2.7035    2.8644 C   0  0  0  0  0  0  0  0  0  0  0  0
    4.2108    3.2653    1.6769 C   0  0  0  0  0  0  0  0  0  0  0  0
    0.0365    4.4061    2.5980 H   0  0  0  0  0  0  0  0  0  0  0  0
    0.4731    2.8310    3.2694 H   0  0  0  0  0  0  0  0  0  0  0  0
    0.2207    3.0436    1.4956 H   0  0  0  0  0  0  0  0  0  0  0  0
    1.5015    1.2113    1.9292 H   0  0  0  0  0  0  0  0  0  0  0  0
    1.9028   -2.2721    1.1006 H   0  0  0  0  0  0  0  0  0  0  0  0
    1.1911   -0.7155    0.6601 H   0  0  0  0  0  0  0  0  0  0  0  0
    1.6406   -1.0741    2.3736 H   0  0  0  0  0  0  0  0  0  0  0  0
    5.4880    0.2721    0.7170 H   0  0  0  0  0  0  0  0  0  0  0  0
    7.2228    1.1251   -0.3135 H   0  0  0  0  0  0  0  0  0  0  0  0
    7.9675    2.6307   -0.7572 H   0  0  0  0  0  0  0  0  0  0  0  0
    5.9647    3.4544   -1.9015 H   0  0  0  0  0  0  0  0  0  0  0  0
    5.1076    1.9649   -1.5207 H   0  0  0  0  0  0  0  0  0  0  0  0
    6.8521    0.6606   -2.8593 H   0  0  0  0  0  0  0  0  0  0  0  0
    7.6282    2.1928   -3.2560 H   0  0  0  0  0  0  0  0  0  0  0  0
    3.7398    2.0026   -3.5908 H   0  0  0  0  0  0  0  0  0  0  0  0
    4.4766    0.4027   -3.3743 H   0  0  0  0  0  0  0  0  0  0  0  0
    2.9831    1.2628   -5.6475 H   0  0  0  0  0  0  0  0  0  0  0  0
    3.9163   -0.2381   -5.4744 H   0  0  0  0  0  0  0  0  0  0  0  0
    6.9847    2.2025   -5.8981 H   0  0  0  0  0  0  0  0  0  0  0  0
    6.7654    0.4957   -5.4241 H   0  0  0  0  0  0  0  0  0  0  0  0
    8.0383    4.7766    0.1801 H   0  0  0  0  0  0  0  0  0  0  0  0
   10.3770    4.9745    0.8526 H   0  0  0  0  0  0  0  0  0  0  0  0
   13.1439    3.2851    3.8251 H   0  0  0  0  0  0  0  0  0  0  0  0
   11.1889    4.3802    7.2962 H   0  0  0  0  0  0  0  0  0  0  0  0
   14.3155    1.9759    8.1083 H   0  0  0  0  0  0  0  0  0  0  0  0
   13.6614    1.2069    5.7676 H   0  0  0  0  0  0  0  0  0  0  0  0
    7.3695    2.0360    3.4267 H   0  0  0  0  0  0  0  0  0  0  0  0
    4.4631    4.3193    1.7745 H   0  0  0  0  0  0  0  0  0  0  0  0
  1  2  1  0  0  0  0
  1 37  1  0  0  0  0
  1 38  1  0  0  0  0
  1 39  1  0  0  0  0
  2  3  1  0  0  0  0
  3  4  1  0  0  0  0
  3 36  2  0  0  0  0
  4  5  2  0  0  0  0
  4 40  1  0  0  0  0
  5  6  1  0  0  0  0
  5  8  1  0  0  0  0
  6  7  1  0  0  0  0
  7 41  1  0  0  0  0
  7 42  1  0  0  0  0
  7 43  1  0  0  0  0
  8  9  2  0  0  0  0
  8 44  1  0  0  0  0
  9 10  1  0  0  0  0
  9 36  1  0  0  0  0
 10 11  1  0  0  0  0
 10 21  1  0  0  0  0
 11 12  1  0  0  0  0
 11 45  1  0  0  0  0
 11 46  1  0  0  0  0
 12 13  1  0  0  0  0
 12 47  1  0  0  0  0
 12 48  1  0  0  0  0
 13 14  1  0  0  0  0
 13 49  1  0  0  0  0
 13 50  1  0  0  0  0
 14 15  1  0  0  0  0
 14 20  1  0  0  0  0
 15 16  1  0  0  0  0
 15 51  1  0  0  0  0
 15 52  1  0  0  0  0
 16 17  1  0  0  0  0
 16 53  1  0  0  0  0
 16 54  1  0  0  0  0
 17 18  1  0  0  0  0
 17 19  1  0  0  0  0
 17 20  1  0  0  0  0
 20 55  1  0  0  0  0
 20 56  1  0  0  0  0
 21 22  1  0  0  0  0
 21 35  2  0  0  0  0
 22 23  2  0  0  0  0
 22 57  1  0  0  0  0
 23 24  1  0  0  0  0
 23 58  1  0  0  0  0
 24 25  1  0  0  0  0
 24 34  2  0  0  0  0
 25 26  2  0  0  0  0
 26 27  1  0  0  0  0
 26 59  1  0  0  0  0
 27 28  1  0  0  0  0
 27 33  2  0  0  0  0
 28 29  1  0  0  0  0
 28 32  2  0  0  0  0
 29 30  2  0  0  0  0
 29 60  1  0  0  0  0
 30 31  1  0  0  0  0
 31 32  1  0  0  0  0
 31 61  1  0  0  0  0
 32 62  1  0  0  0  0
 33 34  1  0  0  0  0
 34 35  1  0  0  0  0
 35 63  1  0  0  0  0
 36 64  1  0  0  0  0
M  END
$$$$
