CHEMBL2023476
 OpenBabel04072215363D

 52 55  0  0  0  0  0  0  0  0999 V2000
    2.9232    1.1721    0.6760 C   0  0  0  0  0  0  0  0  0  0  0  0
    4.2594    0.9375    0.2422 O   0  0  0  0  0  0  0  0  0  0  0  0
    4.3760    0.4664   -1.0361 C   0  0  0  0  0  0  0  0  0  0  0  0
    3.4370    0.6539   -2.0337 C   0  0  0  0  0  0  0  0  0  0  0  0
    3.6554    0.1048   -3.2953 C   0  0  0  0  0  0  0  0  0  0  0  0
    4.8696   -0.5391   -3.6380 C   0  0  0  0  0  0  0  0  0  0  0  0
    5.2433   -0.9924   -4.9349 C   0  0  0  0  0  0  0  0  0  0  0  0
    4.5529   -0.8315   -6.1275 O   0  0  0  0  0  0  0  0  0  0  0  0
    3.7606    0.2671   -6.3633 C   0  0  0  0  0  0  0  0  0  0  0  0
    4.0570    1.5590   -5.9418 C   0  0  0  0  0  0  0  0  0  0  0  0
    3.0613    2.5412   -5.9954 C   0  0  0  0  0  0  0  0  0  0  0  0
    1.7847    2.2643   -6.5282 C   0  0  0  0  0  0  0  0  0  0  0  0
    0.6675    3.2739   -6.3878 C   0  0  0  0  0  0  0  0  0  0  0  0
    0.7211    4.1443   -5.1507 C   0  0  0  0  0  0  0  0  0  0  0  0
    1.1916    5.2764   -5.2257 O   0  0  0  0  0  0  0  0  0  0  0  0
    0.2196    3.5187   -4.0281 N   0  0  0  0  0  0  0  0  0  0  0  0
    0.1709    4.1760   -2.8310 C   0  0  0  0  0  0  0  0  0  0  0  0
    0.3132    5.4551   -2.6102 N   0  0  0  0  0  0  0  0  0  0  0  0
    0.3753    5.6815   -1.2560 C   0  0  0  0  0  0  0  0  0  0  0  0
    0.2621    4.5596   -0.4610 C   0  0  0  0  0  0  0  0  0  0  0  0
    0.4131    4.4461    1.0102 C   0  0  0  0  0  0  0  0  0  0  0  0
   -0.0657    3.1941   -1.4545 S   0  0  0  0  0  0  0  0  0  0  0  0
    1.5908    1.0287   -7.1677 C   0  0  0  0  0  0  0  0  0  0  0  0
    0.4549    0.6212   -7.8169 O   0  0  0  0  0  0  0  0  0  0  0  0
   -0.1930    1.5691   -8.6635 C   0  0  0  0  0  0  0  0  0  0  0  0
    2.5688    0.0305   -7.0514 C   0  0  0  0  0  0  0  0  0  0  0  0
    6.4126   -1.7372   -5.0903 C   0  0  0  0  0  0  0  0  0  0  0  0
    7.2089   -1.9527   -3.9853 C   0  0  0  0  0  0  0  0  0  0  0  0
    6.9336   -1.4601   -2.7650 N   0  0  0  0  0  0  0  0  0  0  0  0
    5.7992   -0.7596   -2.5960 C   0  0  0  0  0  0  0  0  0  0  0  0
    5.5384   -0.2477   -1.3278 C   0  0  0  0  0  0  0  0  0  0  0  0
    2.9455    1.4101    1.7427 H   0  0  0  0  0  0  0  0  0  0  0  0
    2.3037    0.2781    0.5411 H   0  0  0  0  0  0  0  0  0  0  0  0
    2.4876    2.0307    0.1576 H   0  0  0  0  0  0  0  0  0  0  0  0
    2.5323    1.2267   -1.8777 H   0  0  0  0  0  0  0  0  0  0  0  0
    2.8585    0.2194   -4.0230 H   0  0  0  0  0  0  0  0  0  0  0  0
    5.0087    1.7897   -5.4687 H   0  0  0  0  0  0  0  0  0  0  0  0
    3.2828    3.5132   -5.5529 H   0  0  0  0  0  0  0  0  0  0  0  0
   -0.3004    2.7617   -6.3432 H   0  0  0  0  0  0  0  0  0  0  0  0
    0.6597    3.9360   -7.2606 H   0  0  0  0  0  0  0  0  0  0  0  0
    0.0324    2.5214   -4.0199 H   0  0  0  0  0  0  0  0  0  0  0  0
    0.5491    6.6907   -0.9030 H   0  0  0  0  0  0  0  0  0  0  0  0
    0.5965    5.4303    1.4550 H   0  0  0  0  0  0  0  0  0  0  0  0
    1.2725    3.8145    1.2568 H   0  0  0  0  0  0  0  0  0  0  0  0
   -0.4807    4.0230    1.4759 H   0  0  0  0  0  0  0  0  0  0  0  0
   -0.5549    1.0476   -9.5543 H   0  0  0  0  0  0  0  0  0  0  0  0
    0.4597    2.3829   -8.9963 H   0  0  0  0  0  0  0  0  0  0  0  0
   -1.0748    1.9649   -8.1500 H   0  0  0  0  0  0  0  0  0  0  0  0
    2.3784   -0.9566   -7.4660 H   0  0  0  0  0  0  0  0  0  0  0  0
    6.6914   -2.1451   -6.0562 H   0  0  0  0  0  0  0  0  0  0  0  0
    8.1210   -2.5334   -4.0572 H   0  0  0  0  0  0  0  0  0  0  0  0
    6.2718   -0.4082   -0.5383 H   0  0  0  0  0  0  0  0  0  0  0  0
  1  2  1  0  0  0  0
  1 32  1  0  0  0  0
  1 33  1  0  0  0  0
  1 34  1  0  0  0  0
  2  3  1  0  0  0  0
  3  4  1  0  0  0  0
  3 31  2  0  0  0  0
  4  5  2  0  0  0  0
  4 35  1  0  0  0  0
  5  6  1  0  0  0  0
  5 36  1  0  0  0  0
  6  7  1  0  0  0  0
  6 30  2  0  0  0  0
  7  8  1  0  0  0  0
  7 27  2  0  0  0  0
  8  9  1  0  0  0  0
  9 10  1  0  0  0  0
  9 26  2  0  0  0  0
 10 11  2  0  0  0  0
 10 37  1  0  0  0  0
 11 12  1  0  0  0  0
 11 38  1  0  0  0  0
 12 13  1  0  0  0  0
 12 23  2  0  0  0  0
 13 14  1  0  0  0  0
 13 39  1  0  0  0  0
 13 40  1  0  0  0  0
 14 15  2  0  0  0  0
 14 16  1  0  0  0  0
 16 17  1  0  0  0  0
 16 41  1  0  0  0  0
 17 18  2  0  0  0  0
 17 22  1  0  0  0  0
 18 19  1  0  0  0  0
 19 20  2  0  0  0  0
 19 42  1  0  0  0  0
 20 21  1  0  0  0  0
 20 22  1  0  0  0  0
 21 43  1  0  0  0  0
 21 44  1  0  0  0  0
 21 45  1  0  0  0  0
 23 24  1  0  0  0  0
 23 26  1  0  0  0  0
 24 25  1  0  0  0  0
 25 46  1  0  0  0  0
 25 47  1  0  0  0  0
 25 48  1  0  0  0  0
 26 49  1  0  0  0  0
 27 28  1  0  0  0  0
 27 50  1  0  0  0  0
 28 29  2  0  0  0  0
 28 51  1  0  0  0  0
 29 30  1  0  0  0  0
 30 31  1  0  0  0  0
 31 52  1  0  0  0  0
M  END
$$$$
