CHEMBL3671478
 OpenBabel04072215373D

 59 62  0  0  0  0  0  0  0  0999 V2000
    2.0542   -1.0652    1.8203 C   0  0  0  0  0  0  0  0  0  0  0  0
    3.0985   -0.6000    1.1276 C   0  0  0  0  0  0  0  0  0  0  0  0
    3.9697   -1.5568    0.3962 C   0  0  0  0  0  0  0  0  0  0  0  0
    4.0631   -2.7271    0.7433 O   0  0  0  0  0  0  0  0  0  0  0  0
    4.5434   -0.9902   -0.7311 N   0  0  0  0  0  0  0  0  0  0  0  0
    5.2018   -1.8225   -1.6632 C   0  0  0  0  0  0  0  0  0  0  0  0
    6.2740   -2.5400   -1.1378 C   0  0  0  0  0  0  0  0  0  0  0  0
    6.9415   -3.5147   -1.8869 C   0  0  0  0  0  0  0  0  0  0  0  0
    7.9281   -4.3448   -1.3491 C   0  0  0  0  0  0  0  0  0  0  0  0
    8.2523   -4.2393    0.0282 N   0  0  0  0  0  0  0  0  0  0  0  0
    8.8415   -5.2714    0.7827 C   0  0  0  0  0  0  0  0  0  0  0  0
    8.4236   -6.5991    0.6190 C   0  0  0  0  0  0  0  0  0  0  0  0
    9.1171   -7.6426    1.2238 C   0  0  0  0  0  0  0  0  0  0  0  0
   10.2194   -7.3587    2.0252 C   0  0  0  0  0  0  0  0  0  0  0  0
   11.2427   -8.7808    2.7320 Br  0  0  0  0  0  0  0  0  0  0  0  0
   10.5939   -6.0401    2.2791 C   0  0  0  0  0  0  0  0  0  0  0  0
    9.8941   -5.0088    1.6634 C   0  0  0  0  0  0  0  0  0  0  0  0
   10.2723   -3.7379    1.8833 F   0  0  0  0  0  0  0  0  0  0  0  0
    8.5218   -5.2992   -2.0872 N   0  0  0  0  0  0  0  0  0  0  0  0
    8.1088   -5.4262   -3.3496 C   0  0  0  0  0  0  0  0  0  0  0  0
    7.1597   -4.6963   -3.9511 N   0  0  0  0  0  0  0  0  0  0  0  0
    6.5727   -3.7511   -3.2130 C   0  0  0  0  0  0  0  0  0  0  0  0
    5.5307   -2.9907   -3.7465 C   0  0  0  0  0  0  0  0  0  0  0  0
    4.8348   -2.0162   -3.0053 C   0  0  0  0  0  0  0  0  0  0  0  0
    3.8066   -1.4530   -3.7293 O   0  0  0  0  0  0  0  0  0  0  0  0
    3.0393   -0.4522   -3.0860 C   0  0  0  0  0  0  0  0  0  0  0  0
    1.9435    0.1432   -3.9786 C   0  0  0  0  0  0  0  0  0  0  0  0
    1.2697    1.3129   -3.2254 C   0  0  0  0  0  0  0  0  0  0  0  0
    0.3860    0.8151   -2.0789 C   0  0  0  0  0  0  0  0  0  0  0  0
   -0.5975   -0.1236   -2.6040 N   0  0  0  0  0  0  0  0  0  0  0  0
   -1.9595    0.0431   -2.5838 C   0  0  0  0  0  0  0  0  0  0  0  0
   -2.4199    1.1915   -2.0283 N   0  0  0  0  0  0  0  0  0  0  0  0
   -2.7702   -0.7660   -3.0224 O   0  0  0  0  0  0  0  0  0  0  0  0
   -0.0357   -1.3055   -3.2592 C   0  0  0  0  0  0  0  0  0  0  0  0
    0.8858   -0.8894   -4.4089 C   0  0  0  0  0  0  0  0  0  0  0  0
    1.4021   -0.3935    2.3714 H   0  0  0  0  0  0  0  0  0  0  0  0
    1.8249   -2.1269    1.8548 H   0  0  0  0  0  0  0  0  0  0  0  0
    3.3401    0.4527    1.0884 H   0  0  0  0  0  0  0  0  0  0  0  0
    4.1810   -0.1033   -1.0303 H   0  0  0  0  0  0  0  0  0  0  0  0
    6.5633   -2.3630   -0.1040 H   0  0  0  0  0  0  0  0  0  0  0  0
    8.5907   -3.3161    0.2768 H   0  0  0  0  0  0  0  0  0  0  0  0
    7.5721   -6.8222   -0.0216 H   0  0  0  0  0  0  0  0  0  0  0  0
    8.8058   -8.6655    1.0305 H   0  0  0  0  0  0  0  0  0  0  0  0
   11.4390   -5.8040    2.9165 H   0  0  0  0  0  0  0  0  0  0  0  0
    8.5825   -6.2080   -3.9360 H   0  0  0  0  0  0  0  0  0  0  0  0
    5.2195   -3.2050   -4.7673 H   0  0  0  0  0  0  0  0  0  0  0  0
    3.7102    0.3738   -2.8270 H   0  0  0  0  0  0  0  0  0  0  0  0
    2.5742   -0.8836   -2.1968 H   0  0  0  0  0  0  0  0  0  0  0  0
    2.4231    0.5294   -4.8869 H   0  0  0  0  0  0  0  0  0  0  0  0
    0.6525    1.8812   -3.9306 H   0  0  0  0  0  0  0  0  0  0  0  0
    2.0260    2.0035   -2.8335 H   0  0  0  0  0  0  0  0  0  0  0  0
   -0.0745    1.6631   -1.5678 H   0  0  0  0  0  0  0  0  0  0  0  0
    0.9720    0.2901   -1.3160 H   0  0  0  0  0  0  0  0  0  0  0  0
   -1.9156    2.0393   -2.2242 H   0  0  0  0  0  0  0  0  0  0  0  0
   -3.4239    1.2845   -2.1358 H   0  0  0  0  0  0  0  0  0  0  0  0
   -0.8244   -1.9596   -3.6434 H   0  0  0  0  0  0  0  0  0  0  0  0
    0.5153   -1.8777   -2.5035 H   0  0  0  0  0  0  0  0  0  0  0  0
    0.2691   -0.4357   -5.1964 H   0  0  0  0  0  0  0  0  0  0  0  0
    1.3600   -1.7733   -4.8495 H   0  0  0  0  0  0  0  0  0  0  0  0
  1  2  2  0  0  0  0
  1 36  1  0  0  0  0
  1 37  1  0  0  0  0
  2  3  1  0  0  0  0
  2 38  1  0  0  0  0
  3  4  2  0  0  0  0
  3  5  1  0  0  0  0
  5  6  1  0  0  0  0
  5 39  1  0  0  0  0
  6  7  1  0  0  0  0
  6 24  2  0  0  0  0
  7  8  2  0  0  0  0
  7 40  1  0  0  0  0
  8  9  1  0  0  0  0
  8 22  1  0  0  0  0
  9 10  1  0  0  0  0
  9 19  2  0  0  0  0
 10 11  1  0  0  0  0
 10 41  1  0  0  0  0
 11 12  1  0  0  0  0
 11 17  2  0  0  0  0
 12 13  2  0  0  0  0
 12 42  1  0  0  0  0
 13 14  1  0  0  0  0
 13 43  1  0  0  0  0
 14 15  1  0  0  0  0
 14 16  2  0  0  0  0
 16 17  1  0  0  0  0
 16 44  1  0  0  0  0
 17 18  1  0  0  0  0
 19 20  1  0  0  0  0
 20 21  2  0  0  0  0
 20 45  1  0  0  0  0
 21 22  1  0  0  0  0
 22 23  2  0  0  0  0
 23 24  1  0  0  0  0
 23 46  1  0  0  0  0
 24 25  1  0  0  0  0
 25 26  1  0  0  0  0
 26 27  1  0  0  0  0
 26 47  1  0  0  0  0
 26 48  1  0  0  0  0
 27 28  1  0  0  0  0
 27 35  1  0  0  0  0
 27 49  1  0  0  0  0
 28 29  1  0  0  0  0
 28 50  1  0  0  0  0
 28 51  1  0  0  0  0
 29 30  1  0  0  0  0
 29 52  1  0  0  0  0
 29 53  1  0  0  0  0
 30 31  1  0  0  0  0
 30 34  1  0  0  0  0
 31 32  1  0  0  0  0
 31 33  2  0  0  0  0
 32 54  1  0  0  0  0
 32 55  1  0  0  0  0
 34 35  1  0  0  0  0
 34 56  1  0  0  0  0
 34 57  1  0  0  0  0
 35 58  1  0  0  0  0
 35 59  1  0  0  0  0
M  END
$$$$
