CHEMBL3950292
 OpenBabel04072215373D

 59 63  0  0  0  0  0  0  0  0999 V2000
    0.5831   -4.6124   -0.4169 C   0  0  0  0  0  0  0  0  0  0  0  0
    1.9913   -4.8382   -0.3279 O   0  0  0  0  0  0  0  0  0  0  0  0
    2.8082   -3.7444   -0.4887 C   0  0  0  0  0  0  0  0  0  0  0  0
    2.3767   -2.5052   -0.9596 C   0  0  0  0  0  0  0  0  0  0  0  0
    3.2695   -1.4376   -1.0258 C   0  0  0  0  0  0  0  0  0  0  0  0
    2.9654   -0.1758   -1.4657 O   0  0  0  0  0  0  0  0  0  0  0  0
    1.6867    0.0036   -2.0643 C   0  0  0  0  0  0  0  0  0  0  0  0
    4.5856   -1.6046   -0.5780 C   0  0  0  0  0  0  0  0  0  0  0  0
    5.0566   -2.8352   -0.0973 C   0  0  0  0  0  0  0  0  0  0  0  0
    6.2884   -2.9534    0.5924 N   0  0  0  0  0  0  0  0  0  0  0  0
    6.5952   -1.8145    1.5389 C   0  0  0  0  0  0  0  0  0  0  0  0
    5.5416   -1.4478    2.5392 C   0  0  0  0  0  0  0  0  0  0  0  0
    4.8055   -1.0230    3.3946 C   0  0  0  0  0  0  0  0  0  0  0  0
    3.9709   -0.4834    4.4340 C   0  0  0  0  0  0  0  0  0  0  0  0
    3.1926   -1.2985    5.2539 C   0  0  0  0  0  0  0  0  0  0  0  0
    2.3482   -0.8065    6.2039 N   0  0  0  0  0  0  0  0  0  0  0  0
    2.3219    0.5410    6.3053 C   0  0  0  0  0  0  0  0  0  0  0  0
    3.1159    1.3589    5.5166 C   0  0  0  0  0  0  0  0  0  0  0  0
    3.9533    0.8688    4.5658 N   0  0  0  0  0  0  0  0  0  0  0  0
    7.5110   -3.6133    0.2092 C   0  0  0  0  0  0  0  0  0  0  0  0
    8.2017   -4.2126    1.2516 C   0  0  0  0  0  0  0  0  0  0  0  0
    9.5758   -4.3981    1.1727 C   0  0  0  0  0  0  0  0  0  0  0  0
   10.2736   -4.1383    0.0277 C   0  0  0  0  0  0  0  0  0  0  0  0
   11.6062   -4.1668    0.1799 N   0  0  0  0  0  0  0  0  0  0  0  0
   12.3378   -4.1138   -0.9384 C   0  0  0  0  0  0  0  0  0  0  0  0
   11.7725   -4.1275   -2.1910 C   0  0  0  0  0  0  0  0  0  0  0  0
   12.6581   -4.4980   -3.2967 C   0  0  0  0  0  0  0  0  0  0  0  0
   12.8553   -5.7740   -3.8944 C   0  0  0  0  0  0  0  0  0  0  0  0
   13.9315   -5.8182   -4.6908 N   0  0  0  0  0  0  0  0  0  0  0  0
   14.4402   -4.5785   -4.5965 N   0  0  0  0  0  0  0  0  0  0  0  0
   15.4621   -4.1347   -5.5169 C   0  0  0  0  0  0  0  0  0  0  0  0
   13.8151   -3.8171   -3.6450 C   0  0  0  0  0  0  0  0  0  0  0  0
   10.4059   -3.9606   -2.3477 N   0  0  0  0  0  0  0  0  0  0  0  0
    9.6126   -3.8888   -1.1960 C   0  0  0  0  0  0  0  0  0  0  0  0
    8.1906   -3.5564   -1.0492 C   0  0  0  0  0  0  0  0  0  0  0  0
    4.1531   -3.9170   -0.1061 C   0  0  0  0  0  0  0  0  0  0  0  0
    0.0674   -5.5081   -0.0551 H   0  0  0  0  0  0  0  0  0  0  0  0
    0.2803   -4.4522   -1.4579 H   0  0  0  0  0  0  0  0  0  0  0  0
    0.2584   -3.7770    0.2151 H   0  0  0  0  0  0  0  0  0  0  0  0
    1.3454   -2.3672   -1.2591 H   0  0  0  0  0  0  0  0  0  0  0  0
    1.6641    0.9991   -2.5172 H   0  0  0  0  0  0  0  0  0  0  0  0
    0.8958   -0.0410   -1.3082 H   0  0  0  0  0  0  0  0  0  0  0  0
    1.5092   -0.7245   -2.8634 H   0  0  0  0  0  0  0  0  0  0  0  0
    5.2338   -0.7314   -0.5807 H   0  0  0  0  0  0  0  0  0  0  0  0
    6.8804   -0.9312    0.9691 H   0  0  0  0  0  0  0  0  0  0  0  0
    7.4720   -2.0508    2.1588 H   0  0  0  0  0  0  0  0  0  0  0  0
    3.2177   -2.3749    5.1651 H   0  0  0  0  0  0  0  0  0  0  0  0
    1.6362    0.9498    7.0406 H   0  0  0  0  0  0  0  0  0  0  0  0
    3.0900    2.4361    5.6211 H   0  0  0  0  0  0  0  0  0  0  0  0
    7.7038   -4.4241    2.1900 H   0  0  0  0  0  0  0  0  0  0  0  0
   10.1189   -4.7206    2.0584 H   0  0  0  0  0  0  0  0  0  0  0  0
   13.4129   -4.1353   -0.7857 H   0  0  0  0  0  0  0  0  0  0  0  0
   12.2844   -6.6837   -3.7577 H   0  0  0  0  0  0  0  0  0  0  0  0
   15.6929   -4.9302   -6.2312 H   0  0  0  0  0  0  0  0  0  0  0  0
   16.3599   -3.8534   -4.9615 H   0  0  0  0  0  0  0  0  0  0  0  0
   15.0607   -3.2712   -6.0547 H   0  0  0  0  0  0  0  0  0  0  0  0
   14.2258   -2.8672   -3.3357 H   0  0  0  0  0  0  0  0  0  0  0  0
    7.6616   -3.2003   -1.9345 H   0  0  0  0  0  0  0  0  0  0  0  0
    4.4662   -4.8824    0.2819 H   0  0  0  0  0  0  0  0  0  0  0  0
  1  2  1  0  0  0  0
  1 37  1  0  0  0  0
  1 38  1  0  0  0  0
  1 39  1  0  0  0  0
  2  3  1  0  0  0  0
  3  4  1  0  0  0  0
  3 36  2  0  0  0  0
  4  5  2  0  0  0  0
  4 40  1  0  0  0  0
  5  6  1  0  0  0  0
  5  8  1  0  0  0  0
  6  7  1  0  0  0  0
  7 41  1  0  0  0  0
  7 42  1  0  0  0  0
  7 43  1  0  0  0  0
  8  9  2  0  0  0  0
  8 44  1  0  0  0  0
  9 10  1  0  0  0  0
  9 36  1  0  0  0  0
 10 11  1  0  0  0  0
 10 20  1  0  0  0  0
 11 12  1  0  0  0  0
 11 45  1  0  0  0  0
 11 46  1  0  0  0  0
 12 13  3  0  0  0  0
 13 14  1  0  0  0  0
 14 15  1  0  0  0  0
 14 19  2  0  0  0  0
 15 16  2  0  0  0  0
 15 47  1  0  0  0  0
 16 17  1  0  0  0  0
 17 18  2  0  0  0  0
 17 48  1  0  0  0  0
 18 19  1  0  0  0  0
 18 49  1  0  0  0  0
 20 21  1  0  0  0  0
 20 35  2  0  0  0  0
 21 22  2  0  0  0  0
 21 50  1  0  0  0  0
 22 23  1  0  0  0  0
 22 51  1  0  0  0  0
 23 24  1  0  0  0  0
 23 34  2  0  0  0  0
 24 25  2  0  0  0  0
 25 26  1  0  0  0  0
 25 52  1  0  0  0  0
 26 27  1  0  0  0  0
 26 33  2  0  0  0  0
 27 28  1  0  0  0  0
 27 32  2  0  0  0  0
 28 29  2  0  0  0  0
 28 53  1  0  0  0  0
 29 30  1  0  0  0  0
 30 31  1  0  0  0  0
 30 32  1  0  0  0  0
 31 54  1  0  0  0  0
 31 55  1  0  0  0  0
 31 56  1  0  0  0  0
 32 57  1  0  0  0  0
 33 34  1  0  0  0  0
 34 35  1  0  0  0  0
 35 58  1  0  0  0  0
 36 59  1  0  0  0  0
M  END
$$$$
