CHEMBL3815081
 OpenBabel04072215373D

 70 74  0  0  0  0  0  0  0  0999 V2000
   -3.5249    0.7008   -4.1540 N   0  0  0  0  0  0  0  0  0  0  0  0
   -3.0144    0.5814   -2.8546 C   0  0  0  0  0  0  0  0  0  0  0  0
   -2.7335   -0.6763   -2.4967 N   0  0  0  0  0  0  0  0  0  0  0  0
   -2.1951   -0.8320   -1.2856 C   0  0  0  0  0  0  0  0  0  0  0  0
   -1.9064    0.1460   -0.4236 N   0  0  0  0  0  0  0  0  0  0  0  0
   -2.1661    1.4159   -0.8157 C   0  0  0  0  0  0  0  0  0  0  0  0
   -1.8571    2.3030    0.1812 O   0  0  0  0  0  0  0  0  0  0  0  0
   -1.3205    3.5447   -0.0320 C   0  0  0  0  0  0  0  0  0  0  0  0
   -1.6400    4.4677    0.9631 C   0  0  0  0  0  0  0  0  0  0  0  0
   -1.1934    5.7864    0.8806 C   0  0  0  0  0  0  0  0  0  0  0  0
   -0.4135    6.2144   -0.1966 C   0  0  0  0  0  0  0  0  0  0  0  0
    0.0656    7.5424   -0.2864 N   0  0  0  0  0  0  0  0  0  0  0  0
    0.2217    8.3906    0.7976 C   0  0  0  0  0  0  0  0  0  0  0  0
    0.0458    8.1102    1.9767 O   0  0  0  0  0  0  0  0  0  0  0  0
    0.6891    9.7762    0.4815 C   0  0  0  0  0  0  0  0  0  0  0  0
   -0.3726   10.7123    0.0023 C   0  0  0  0  0  0  0  0  0  0  0  0
   -0.6294   10.6982   -1.1978 O   0  0  0  0  0  0  0  0  0  0  0  0
   -0.9640   11.4818    0.9770 N   0  0  0  0  0  0  0  0  0  0  0  0
   -2.0142   12.4087    0.7866 C   0  0  0  0  0  0  0  0  0  0  0  0
   -2.6334   12.6244   -0.4495 C   0  0  0  0  0  0  0  0  0  0  0  0
   -3.6948   13.5235   -0.5716 C   0  0  0  0  0  0  0  0  0  0  0  0
   -4.1329   14.2208    0.5431 C   0  0  0  0  0  0  0  0  0  0  0  0
   -5.1597   15.0726    0.4277 F   0  0  0  0  0  0  0  0  0  0  0  0
   -3.5210   14.0412    1.7769 C   0  0  0  0  0  0  0  0  0  0  0  0
   -2.4632   13.1325    1.9008 C   0  0  0  0  0  0  0  0  0  0  0  0
    2.0850   10.0032   -0.0981 C   0  0  0  0  0  0  0  0  0  0  0  0
    1.8419   10.3045    1.3449 C   0  0  0  0  0  0  0  0  0  0  0  0
   -0.1029    5.2982   -1.2061 C   0  0  0  0  0  0  0  0  0  0  0  0
   -0.5140    3.9608   -1.0919 C   0  0  0  0  0  0  0  0  0  0  0  0
   -0.1455    3.0996   -2.0532 F   0  0  0  0  0  0  0  0  0  0  0  0
   -2.7680    1.6814   -2.0291 C   0  0  0  0  0  0  0  0  0  0  0  0
   -3.0565    2.9915   -2.6048 C   0  0  0  0  0  0  0  0  0  0  0  0
   -3.3585    4.0676   -1.9544 N   0  0  0  0  0  0  0  0  0  0  0  0
   -3.3989    5.2781   -2.7127 O   0  0  0  0  0  0  0  0  0  0  0  0
   -3.5025    5.1193   -4.1279 C   0  0  0  0  0  0  0  0  0  0  0  0
   -3.6123    6.4560   -4.8443 C   0  0  0  0  0  0  0  0  0  0  0  0
   -4.0676    6.2879   -6.2385 N   0  0  0  0  0  0  0  0  0  0  0  0
   -3.1710    5.4903   -7.0910 C   0  0  0  0  0  0  0  0  0  0  0  0
   -2.1792    6.4844   -7.6525 C   0  0  0  0  0  0  0  0  0  0  0  0
   -3.0333    7.7142   -7.8856 C   0  0  0  0  0  0  0  0  0  0  0  0
   -4.1835    7.6009   -6.8917 C   0  0  0  0  0  0  0  0  0  0  0  0
   -3.6363   -0.2380   -4.5316 H   0  0  0  0  0  0  0  0  0  0  0  0
   -4.3947    1.2228   -4.1978 H   0  0  0  0  0  0  0  0  0  0  0  0
   -1.9763   -1.8498   -0.9714 H   0  0  0  0  0  0  0  0  0  0  0  0
   -2.2671    4.1706    1.8003 H   0  0  0  0  0  0  0  0  0  0  0  0
   -1.5138    6.4729    1.6589 H   0  0  0  0  0  0  0  0  0  0  0  0
    0.3736    7.8755   -1.1937 H   0  0  0  0  0  0  0  0  0  0  0  0
   -0.6379   11.3485    1.9267 H   0  0  0  0  0  0  0  0  0  0  0  0
   -2.3266   12.0971   -1.3472 H   0  0  0  0  0  0  0  0  0  0  0  0
   -4.1806   13.6712   -1.5309 H   0  0  0  0  0  0  0  0  0  0  0  0
   -3.8759   14.6053    2.6338 H   0  0  0  0  0  0  0  0  0  0  0  0
   -2.0025   13.0047    2.8769 H   0  0  0  0  0  0  0  0  0  0  0  0
    2.2286   10.8521   -0.7611 H   0  0  0  0  0  0  0  0  0  0  0  0
    2.6898    9.1421   -0.3529 H   0  0  0  0  0  0  0  0  0  0  0  0
    1.8267   11.3391    1.6648 H   0  0  0  0  0  0  0  0  0  0  0  0
    2.2858    9.6319    2.0748 H   0  0  0  0  0  0  0  0  0  0  0  0
    0.4779    5.5883   -2.0751 H   0  0  0  0  0  0  0  0  0  0  0  0
   -2.9695    2.9694   -3.6956 H   0  0  0  0  0  0  0  0  0  0  0  0
   -4.3884    4.5106   -4.3421 H   0  0  0  0  0  0  0  0  0  0  0  0
   -2.5871    4.6440   -4.4953 H   0  0  0  0  0  0  0  0  0  0  0  0
   -2.6497    6.9811   -4.7858 H   0  0  0  0  0  0  0  0  0  0  0  0
   -4.3349    7.0733   -4.2968 H   0  0  0  0  0  0  0  0  0  0  0  0
   -3.7647    5.0589   -7.9075 H   0  0  0  0  0  0  0  0  0  0  0  0
   -2.6799    4.6467   -6.5988 H   0  0  0  0  0  0  0  0  0  0  0  0
   -1.7061    6.1313   -8.5736 H   0  0  0  0  0  0  0  0  0  0  0  0
   -1.3901    6.6982   -6.9221 H   0  0  0  0  0  0  0  0  0  0  0  0
   -3.4271    7.7071   -8.9082 H   0  0  0  0  0  0  0  0  0  0  0  0
   -2.4547    8.6316   -7.7458 H   0  0  0  0  0  0  0  0  0  0  0  0
   -5.1437    7.6534   -7.4160 H   0  0  0  0  0  0  0  0  0  0  0  0
   -4.1670    8.4331   -6.1783 H   0  0  0  0  0  0  0  0  0  0  0  0
  1  2  1  0  0  0  0
  1 42  1  0  0  0  0
  1 43  1  0  0  0  0
  2  3  1  0  0  0  0
  2 31  2  0  0  0  0
  3  4  2  0  0  0  0
  4  5  1  0  0  0  0
  4 44  1  0  0  0  0
  5  6  2  0  0  0  0
  6  7  1  0  0  0  0
  6 31  1  0  0  0  0
  7  8  1  0  0  0  0
  8  9  1  0  0  0  0
  8 29  2  0  0  0  0
  9 10  2  0  0  0  0
  9 45  1  0  0  0  0
 10 11  1  0  0  0  0
 10 46  1  0  0  0  0
 11 12  1  0  0  0  0
 11 28  2  0  0  0  0
 12 13  1  0  0  0  0
 12 47  1  0  0  0  0
 13 14  2  0  0  0  0
 13 15  1  0  0  0  0
 15 16  1  0  0  0  0
 15 26  1  0  0  0  0
 15 27  1  0  0  0  0
 16 17  2  0  0  0  0
 16 18  1  0  0  0  0
 18 19  1  0  0  0  0
 18 48  1  0  0  0  0
 19 20  1  0  0  0  0
 19 25  2  0  0  0  0
 20 21  2  0  0  0  0
 20 49  1  0  0  0  0
 21 22  1  0  0  0  0
 21 50  1  0  0  0  0
 22 23  1  0  0  0  0
 22 24  2  0  0  0  0
 24 25  1  0  0  0  0
 24 51  1  0  0  0  0
 25 52  1  0  0  0  0
 26 27  1  0  0  0  0
 26 53  1  0  0  0  0
 26 54  1  0  0  0  0
 27 55  1  0  0  0  0
 27 56  1  0  0  0  0
 28 29  1  0  0  0  0
 28 57  1  0  0  0  0
 29 30  1  0  0  0  0
 31 32  1  0  0  0  0
 32 33  2  0  0  0  0
 32 58  1  0  0  0  0
 33 34  1  0  0  0  0
 34 35  1  0  0  0  0
 35 36  1  0  0  0  0
 35 59  1  0  0  0  0
 35 60  1  0  0  0  0
 36 37  1  0  0  0  0
 36 61  1  0  0  0  0
 36 62  1  0  0  0  0
 37 38  1  0  0  0  0
 37 41  1  0  0  0  0
 38 39  1  0  0  0  0
 38 63  1  0  0  0  0
 38 64  1  0  0  0  0
 39 40  1  0  0  0  0
 39 65  1  0  0  0  0
 39 66  1  0  0  0  0
 40 41  1  0  0  0  0
 40 67  1  0  0  0  0
 40 68  1  0  0  0  0
 41 69  1  0  0  0  0
 41 70  1  0  0  0  0
M  END
$$$$
