CHEMBL1976328
 OpenBabel04072215363D

 48 51  0  0  0  0  0  0  0  0999 V2000
   -2.3596    0.9003   -0.7864 C   0  0  0  0  0  0  0  0  0  0  0  0
   -1.1418    0.1113   -1.1723 C   0  0  0  0  0  0  0  0  0  0  0  0
   -0.1191    0.7136   -1.9156 C   0  0  0  0  0  0  0  0  0  0  0  0
    1.0231   -0.0094   -2.2643 C   0  0  0  0  0  0  0  0  0  0  0  0
    2.1256    0.6129   -3.0696 C   0  0  0  0  0  0  0  0  0  0  0  0
    1.1405   -1.3425   -1.8491 C   0  0  0  0  0  0  0  0  0  0  0  0
    0.1437   -1.9585   -1.0843 C   0  0  0  0  0  0  0  0  0  0  0  0
    0.2560   -3.2938   -0.6204 N   0  0  0  0  0  0  0  0  0  0  0  0
    1.4555   -3.9604   -0.4445 C   0  0  0  0  0  0  0  0  0  0  0  0
    2.5642   -3.4455   -0.5792 O   0  0  0  0  0  0  0  0  0  0  0  0
    1.2760   -5.2957   -0.1118 N   0  0  0  0  0  0  0  0  0  0  0  0
    2.3998   -6.1272    0.1042 C   0  0  0  0  0  0  0  0  0  0  0  0
    3.4690   -5.7190    0.9024 C   0  0  0  0  0  0  0  0  0  0  0  0
    4.6342   -6.4920    0.9881 C   0  0  0  0  0  0  0  0  0  0  0  0
    4.7621   -7.7064    0.2939 C   0  0  0  0  0  0  0  0  0  0  0  0
    6.0180   -8.4979    0.3350 C   0  0  0  0  0  0  0  0  0  0  0  0
    6.7801   -8.5736    1.5279 C   0  0  0  0  0  0  0  0  0  0  0  0
    7.9018   -9.3894    1.6521 C   0  0  0  0  0  0  0  0  0  0  0  0
    8.2843  -10.2099    0.6035 C   0  0  0  0  0  0  0  0  0  0  0  0
    7.5723  -10.1200   -0.6012 C   0  0  0  0  0  0  0  0  0  0  0  0
    7.8258  -11.0277   -2.0389 S   0  0  0  0  0  0  0  0  0  0  0  0
    6.7282  -10.2212   -2.9554 N   0  0  0  0  0  0  0  0  0  0  0  0
    6.1436   -9.2859   -2.2246 C   0  0  0  0  0  0  0  0  0  0  0  0
    5.2947   -8.4162   -2.8062 N   0  0  0  0  0  0  0  0  0  0  0  0
    6.4972   -9.2417   -0.8030 C   0  0  0  0  0  0  0  0  0  0  0  0
    3.6217   -8.1468   -0.4097 C   0  0  0  0  0  0  0  0  0  0  0  0
    2.4644   -7.3637   -0.5258 C   0  0  0  0  0  0  0  0  0  0  0  0
   -1.0106   -1.2316   -0.7743 C   0  0  0  0  0  0  0  0  0  0  0  0
   -2.3077    1.9285   -1.1633 H   0  0  0  0  0  0  0  0  0  0  0  0
   -2.4451    0.9510    0.3035 H   0  0  0  0  0  0  0  0  0  0  0  0
   -3.2585    0.4369   -1.2018 H   0  0  0  0  0  0  0  0  0  0  0  0
   -0.2110    1.7534   -2.2242 H   0  0  0  0  0  0  0  0  0  0  0  0
    1.9076    1.6578   -3.3107 H   0  0  0  0  0  0  0  0  0  0  0  0
    2.2548    0.0695   -4.0108 H   0  0  0  0  0  0  0  0  0  0  0  0
    3.0651    0.5870   -2.5072 H   0  0  0  0  0  0  0  0  0  0  0  0
    2.0323   -1.8892   -2.1452 H   0  0  0  0  0  0  0  0  0  0  0  0
   -0.5351   -3.6790   -0.1277 H   0  0  0  0  0  0  0  0  0  0  0  0
    0.4784   -5.7258   -0.5589 H   0  0  0  0  0  0  0  0  0  0  0  0
    3.4205   -4.7788    1.4487 H   0  0  0  0  0  0  0  0  0  0  0  0
    5.4516   -6.1051    1.5912 H   0  0  0  0  0  0  0  0  0  0  0  0
    6.4829   -7.9971    2.4031 H   0  0  0  0  0  0  0  0  0  0  0  0
    8.4608   -9.4039    2.5842 H   0  0  0  0  0  0  0  0  0  0  0  0
    9.1254  -10.8900    0.7074 H   0  0  0  0  0  0  0  0  0  0  0  0
    5.2608   -8.4176   -3.8223 H   0  0  0  0  0  0  0  0  0  0  0  0
    5.1381   -7.4993   -2.4000 H   0  0  0  0  0  0  0  0  0  0  0  0
    3.6400   -9.0994   -0.9396 H   0  0  0  0  0  0  0  0  0  0  0  0
    1.6639   -7.7082   -1.1753 H   0  0  0  0  0  0  0  0  0  0  0  0
   -1.8056   -1.6858   -0.1891 H   0  0  0  0  0  0  0  0  0  0  0  0
  1  2  1  0  0  0  0
  1 29  1  0  0  0  0
  1 30  1  0  0  0  0
  1 31  1  0  0  0  0
  2  3  1  0  0  0  0
  2 28  2  0  0  0  0
  3  4  2  0  0  0  0
  3 32  1  0  0  0  0
  4  5  1  0  0  0  0
  4  6  1  0  0  0  0
  5 33  1  0  0  0  0
  5 34  1  0  0  0  0
  5 35  1  0  0  0  0
  6  7  2  0  0  0  0
  6 36  1  0  0  0  0
  7  8  1  0  0  0  0
  7 28  1  0  0  0  0
  8  9  1  0  0  0  0
  8 37  1  0  0  0  0
  9 10  2  0  0  0  0
  9 11  1  0  0  0  0
 11 12  1  0  0  0  0
 11 38  1  0  0  0  0
 12 13  1  0  0  0  0
 12 27  2  0  0  0  0
 13 14  2  0  0  0  0
 13 39  1  0  0  0  0
 14 15  1  0  0  0  0
 14 40  1  0  0  0  0
 15 16  1  0  0  0  0
 15 26  2  0  0  0  0
 16 17  1  0  0  0  0
 16 25  2  0  0  0  0
 17 18  2  0  0  0  0
 17 41  1  0  0  0  0
 18 19  1  0  0  0  0
 18 42  1  0  0  0  0
 19 20  2  0  0  0  0
 19 43  1  0  0  0  0
 20 21  1  0  0  0  0
 20 25  1  0  0  0  0
 21 22  1  0  0  0  0
 22 23  2  0  0  0  0
 23 24  1  0  0  0  0
 23 25  1  0  0  0  0
 24 44  1  0  0  0  0
 24 45  1  0  0  0  0
 26 27  1  0  0  0  0
 26 46  1  0  0  0  0
 27 47  1  0  0  0  0
 28 48  1  0  0  0  0
M  END
$$$$
