CHEMBL939
 OpenBabel04072215383D

 55 58  0  0  0  0  0  0  0  0999 V2000
    2.9410   -0.2708    1.4731 C   0  0  0  0  0  0  0  0  0  0  0  0
    2.5548    0.0418    0.1376 O   0  0  0  0  0  0  0  0  0  0  0  0
    3.2292   -0.5356   -0.9032 C   0  0  0  0  0  0  0  0  0  0  0  0
    4.4400   -1.2229   -0.7699 C   0  0  0  0  0  0  0  0  0  0  0  0
    5.0746   -1.8319   -1.8442 C   0  0  0  0  0  0  0  0  0  0  0  0
    6.2274   -2.4657   -1.6086 N   0  0  0  0  0  0  0  0  0  0  0  0
    6.8319   -3.0135   -2.6642 C   0  0  0  0  0  0  0  0  0  0  0  0
    6.4047   -2.9606   -3.9221 N   0  0  0  0  0  0  0  0  0  0  0  0
    5.2406   -2.3226   -4.1584 C   0  0  0  0  0  0  0  0  0  0  0  0
    4.7658   -2.2069   -5.4933 N   0  0  0  0  0  0  0  0  0  0  0  0
    5.3304   -2.7890   -6.6509 C   0  0  0  0  0  0  0  0  0  0  0  0
    6.0301   -4.0075   -6.6114 C   0  0  0  0  0  0  0  0  0  0  0  0
    6.5980   -4.5550   -7.7616 C   0  0  0  0  0  0  0  0  0  0  0  0
    6.4273   -3.9150   -8.9781 C   0  0  0  0  0  0  0  0  0  0  0  0
    6.9892   -4.4497  -10.0740 F   0  0  0  0  0  0  0  0  0  0  0  0
    5.6731   -2.7493   -9.0596 C   0  0  0  0  0  0  0  0  0  0  0  0
    5.4179   -1.9742  -10.5769 Cl  0  0  0  0  0  0  0  0  0  0  0  0
    5.1160   -2.1932   -7.9027 C   0  0  0  0  0  0  0  0  0  0  0  0
    4.4992   -1.7462   -3.1135 C   0  0  0  0  0  0  0  0  0  0  0  0
    3.2611   -1.0771   -3.2620 C   0  0  0  0  0  0  0  0  0  0  0  0
    2.6592   -0.4352   -2.1803 C   0  0  0  0  0  0  0  0  0  0  0  0
    1.4999    0.2206   -2.4961 O   0  0  0  0  0  0  0  0  0  0  0  0
    1.3922    1.5447   -1.9677 C   0  0  0  0  0  0  0  0  0  0  0  0
    0.7610    2.4721   -3.0149 C   0  0  0  0  0  0  0  0  0  0  0  0
   -0.5963    1.9376   -3.4909 C   0  0  0  0  0  0  0  0  0  0  0  0
   -1.3143    2.8077   -4.4444 N   0  0  0  0  0  0  0  0  0  0  0  0
   -1.6757    4.1366   -3.9017 C   0  0  0  0  0  0  0  0  0  0  0  0
   -2.7497    4.0839   -2.8038 C   0  0  0  0  0  0  0  0  0  0  0  0
   -3.9456    3.4554   -3.2821 O   0  0  0  0  0  0  0  0  0  0  0  0
   -3.6722    2.1390   -3.7799 C   0  0  0  0  0  0  0  0  0  0  0  0
   -2.5809    2.1542   -4.8696 C   0  0  0  0  0  0  0  0  0  0  0  0
    3.5027    0.5688    1.8926 H   0  0  0  0  0  0  0  0  0  0  0  0
    3.5089   -1.1971    1.5888 H   0  0  0  0  0  0  0  0  0  0  0  0
    2.0254   -0.3989    2.0576 H   0  0  0  0  0  0  0  0  0  0  0  0
    4.9514   -1.2950    0.1852 H   0  0  0  0  0  0  0  0  0  0  0  0
    7.7620   -3.5424   -2.4804 H   0  0  0  0  0  0  0  0  0  0  0  0
    4.4982   -1.2445   -5.6636 H   0  0  0  0  0  0  0  0  0  0  0  0
    6.1530   -4.5448   -5.6752 H   0  0  0  0  0  0  0  0  0  0  0  0
    7.1732   -5.4752   -7.7040 H   0  0  0  0  0  0  0  0  0  0  0  0
    4.5252   -1.2850   -7.9832 H   0  0  0  0  0  0  0  0  0  0  0  0
    2.7626   -1.0378   -4.2287 H   0  0  0  0  0  0  0  0  0  0  0  0
    2.3663    1.9627   -1.6846 H   0  0  0  0  0  0  0  0  0  0  0  0
    0.7495    1.5052   -1.0812 H   0  0  0  0  0  0  0  0  0  0  0  0
    1.4331    2.5653   -3.8767 H   0  0  0  0  0  0  0  0  0  0  0  0
    0.6617    3.4629   -2.5609 H   0  0  0  0  0  0  0  0  0  0  0  0
   -1.2094    1.7097   -2.6145 H   0  0  0  0  0  0  0  0  0  0  0  0
   -0.4105    0.9837   -4.0015 H   0  0  0  0  0  0  0  0  0  0  0  0
   -2.0711    4.7324   -4.7368 H   0  0  0  0  0  0  0  0  0  0  0  0
   -0.7935    4.6808   -3.5526 H   0  0  0  0  0  0  0  0  0  0  0  0
   -3.0142    5.1013   -2.4984 H   0  0  0  0  0  0  0  0  0  0  0  0
   -2.3931    3.5579   -1.9111 H   0  0  0  0  0  0  0  0  0  0  0  0
   -4.6043    1.7478   -4.1997 H   0  0  0  0  0  0  0  0  0  0  0  0
   -3.3997    1.4898   -2.9404 H   0  0  0  0  0  0  0  0  0  0  0  0
   -2.9644    2.7077   -5.7369 H   0  0  0  0  0  0  0  0  0  0  0  0
   -2.3871    1.1343   -5.2225 H   0  0  0  0  0  0  0  0  0  0  0  0
  1  2  1  0  0  0  0
  1 32  1  0  0  0  0
  1 33  1  0  0  0  0
  1 34  1  0  0  0  0
  2  3  1  0  0  0  0
  3  4  1  0  0  0  0
  3 21  2  0  0  0  0
  4  5  2  0  0  0  0
  4 35  1  0  0  0  0
  5  6  1  0  0  0  0
  5 19  1  0  0  0  0
  6  7  2  0  0  0  0
  7  8  1  0  0  0  0
  7 36  1  0  0  0  0
  8  9  2  0  0  0  0
  9 10  1  0  0  0  0
  9 19  1  0  0  0  0
 10 11  1  0  0  0  0
 10 37  1  0  0  0  0
 11 12  1  0  0  0  0
 11 18  2  0  0  0  0
 12 13  2  0  0  0  0
 12 38  1  0  0  0  0
 13 14  1  0  0  0  0
 13 39  1  0  0  0  0
 14 15  1  0  0  0  0
 14 16  2  0  0  0  0
 16 17  1  0  0  0  0
 16 18  1  0  0  0  0
 18 40  1  0  0  0  0
 19 20  2  0  0  0  0
 20 21  1  0  0  0  0
 20 41  1  0  0  0  0
 21 22  1  0  0  0  0
 22 23  1  0  0  0  0
 23 24  1  0  0  0  0
 23 42  1  0  0  0  0
 23 43  1  0  0  0  0
 24 25  1  0  0  0  0
 24 44  1  0  0  0  0
 24 45  1  0  0  0  0
 25 26  1  0  0  0  0
 25 46  1  0  0  0  0
 25 47  1  0  0  0  0
 26 27  1  0  0  0  0
 26 31  1  0  0  0  0
 27 28  1  0  0  0  0
 27 48  1  0  0  0  0
 27 49  1  0  0  0  0
 28 29  1  0  0  0  0
 28 50  1  0  0  0  0
 28 51  1  0  0  0  0
 29 30  1  0  0  0  0
 30 31  1  0  0  0  0
 30 52  1  0  0  0  0
 30 53  1  0  0  0  0
 31 54  1  0  0  0  0
 31 55  1  0  0  0  0
M  END
$$$$
