CHEMBL3908829
 OpenBabel04072215373D

 88 92  0  0  0  0  0  0  0  0999 V2000
    9.0888   -1.6733   -6.1509 C   0  0  0  0  0  0  0  0  0  0  0  0
    8.9269   -0.7261   -5.1407 O   0  0  0  0  0  0  0  0  0  0  0  0
    7.8370    0.0842   -5.0003 C   0  0  0  0  0  0  0  0  0  0  0  0
    6.7501   -0.0209   -5.8977 C   0  0  0  0  0  0  0  0  0  0  0  0
    5.6242    0.7690   -5.7407 C   0  0  0  0  0  0  0  0  0  0  0  0
    4.6071    0.6302   -6.6329 O   0  0  0  0  0  0  0  0  0  0  0  0
    3.4089    1.3250   -6.6118 C   0  0  0  0  0  0  0  0  0  0  0  0
    5.5702    1.6696   -4.6804 C   0  0  0  0  0  0  0  0  0  0  0  0
    6.6252    1.8269   -3.7446 C   0  0  0  0  0  0  0  0  0  0  0  0
    6.4096    2.6933   -2.5970 N   0  0  0  0  0  0  0  0  0  0  0  0
    5.0168    2.6689   -2.0201 C   0  0  0  0  0  0  0  0  0  0  0  0
    4.6862    1.3201   -1.3006 C   0  0  0  0  0  0  0  0  0  0  0  0
    3.1972    1.0497   -0.9868 C   0  0  0  0  0  0  0  0  0  0  0  0
    4.0783    1.5552    0.1049 C   0  0  0  0  0  0  0  0  0  0  0  0
    7.3471    3.6031   -1.9117 C   0  0  0  0  0  0  0  0  0  0  0  0
    7.1440    3.6157   -0.5291 C   0  0  0  0  0  0  0  0  0  0  0  0
    7.5587    4.6207    0.2564 C   0  0  0  0  0  0  0  0  0  0  0  0
    8.2831    5.6436   -0.2496 C   0  0  0  0  0  0  0  0  0  0  0  0
    8.4321    6.6742    0.5733 N   0  0  0  0  0  0  0  0  0  0  0  0
    9.1830    7.7144    0.2811 C   0  0  0  0  0  0  0  0  0  0  0  0
   10.0045    7.6868   -0.8426 C   0  0  0  0  0  0  0  0  0  0  0  0
   11.2435    8.5771   -0.6245 C   0  0  0  0  0  0  0  0  0  0  0  0
   12.4609    8.6737   -1.2938 C   0  0  0  0  0  0  0  0  0  0  0  0
   13.3625    9.3322   -0.5037 N   0  0  0  0  0  0  0  0  0  0  0  0
   12.7614    9.7008    0.6213 N   0  0  0  0  0  0  0  0  0  0  0  0
   13.3768   10.1415    1.8801 C   0  0  0  0  0  0  0  0  0  0  0  0
   14.3922   11.2724    1.7742 C   0  0  0  0  0  0  0  0  0  0  0  0
   13.7678   12.6305    1.4583 C   0  0  0  0  0  0  0  0  0  0  0  0
   14.8104   13.6723    1.2796 N   0  0  0  0  0  0  0  0  0  0  0  0
   15.6183   13.9828    2.4863 C   0  0  0  0  0  0  0  0  0  0  0  0
   14.8153   14.7875    3.5306 C   0  0  0  0  0  0  0  0  0  0  0  0
   14.2672   16.0308    2.9470 N   0  0  0  0  0  0  0  0  0  0  0  0
   15.3359   17.0363    2.7151 C   0  0  0  0  0  0  0  0  0  0  0  0
   14.8063   18.3894    2.2237 C   0  0  0  0  0  0  0  0  0  0  0  0
   13.8026   18.9994    3.2052 C   0  0  0  0  0  0  0  0  0  0  0  0
   13.2963   20.2046    2.7017 O   0  0  0  0  0  0  0  0  0  0  0  0
   13.4426   15.7035    1.7622 C   0  0  0  0  0  0  0  0  0  0  0  0
   14.2458   14.9137    0.7103 C   0  0  0  0  0  0  0  0  0  0  0  0
   11.4798    9.3100    0.5617 C   0  0  0  0  0  0  0  0  0  0  0  0
    9.7512    6.6895   -1.8146 N   0  0  0  0  0  0  0  0  0  0  0  0
    8.8153    5.6593   -1.5530 C   0  0  0  0  0  0  0  0  0  0  0  0
    8.2946    4.6031   -2.4525 C   0  0  0  0  0  0  0  0  0  0  0  0
    7.7778    1.0244   -3.9280 C   0  0  0  0  0  0  0  0  0  0  0  0
    0.0149   -1.6346   -1.7174 Cl  0  0  0  0  0  0  0  0  0  0  0  0
   10.0448   -2.2179   -6.0143 H   0  0  0  0  0  0  0  0  0  0  0  0
    9.1114   -1.1679   -7.1400 H   0  0  0  0  0  0  0  0  0  0  0  0
    8.2645   -2.4235   -6.1423 H   0  0  0  0  0  0  0  0  0  0  0  0
    6.7614   -0.7220   -6.7218 H   0  0  0  0  0  0  0  0  0  0  0  0
    2.7886    1.0207   -7.4725 H   0  0  0  0  0  0  0  0  0  0  0  0
    3.6078    2.4193   -6.6749 H   0  0  0  0  0  0  0  0  0  0  0  0
    2.8595    1.1023   -5.6728 H   0  0  0  0  0  0  0  0  0  0  0  0
    4.6739    2.2428   -4.5889 H   0  0  0  0  0  0  0  0  0  0  0  0
    4.2418    2.9297   -2.7521 H   0  0  0  0  0  0  0  0  0  0  0  0
    4.8579    3.5022   -1.3031 H   0  0  0  0  0  0  0  0  0  0  0  0
    4.9304    0.3796   -1.8392 H   0  0  0  0  0  0  0  0  0  0  0  0
    2.9046    0.0097   -0.7141 H   0  0  0  0  0  0  0  0  0  0  0  0
    2.5080    1.7558   -1.4936 H   0  0  0  0  0  0  0  0  0  0  0  0
    4.3462    0.7789    0.8534 H   0  0  0  0  0  0  0  0  0  0  0  0
    3.6925    2.5531    0.4142 H   0  0  0  0  0  0  0  0  0  0  0  0
    6.5398    2.8731   -0.0370 H   0  0  0  0  0  0  0  0  0  0  0  0
    7.2639    4.6363    1.2936 H   0  0  0  0  0  0  0  0  0  0  0  0
    9.2071    8.4432    1.0525 H   0  0  0  0  0  0  0  0  0  0  0  0
   12.7292    8.2029   -2.2252 H   0  0  0  0  0  0  0  0  0  0  0  0
   13.9275    9.2686    2.2891 H   0  0  0  0  0  0  0  0  0  0  0  0
   12.6040   10.3975    2.6458 H   0  0  0  0  0  0  0  0  0  0  0  0
   15.1625   11.0032    1.0305 H   0  0  0  0  0  0  0  0  0  0  0  0
   14.8683   11.3323    2.7792 H   0  0  0  0  0  0  0  0  0  0  0  0
   13.0423   12.9052    2.2534 H   0  0  0  0  0  0  0  0  0  0  0  0
   13.2063   12.5124    0.5070 H   0  0  0  0  0  0  0  0  0  0  0  0
   16.5120   14.5606    2.1739 H   0  0  0  0  0  0  0  0  0  0  0  0
   16.0427   13.0753    2.9517 H   0  0  0  0  0  0  0  0  0  0  0  0
   15.4583   15.0182    4.4086 H   0  0  0  0  0  0  0  0  0  0  0  0
   13.9806   14.1646    3.9162 H   0  0  0  0  0  0  0  0  0  0  0  0
   16.0826   16.6822    1.9792 H   0  0  0  0  0  0  0  0  0  0  0  0
   15.8771   17.2170    3.6720 H   0  0  0  0  0  0  0  0  0  0  0  0
   14.3432   18.2842    1.2223 H   0  0  0  0  0  0  0  0  0  0  0  0
   15.6684   19.0809    2.1042 H   0  0  0  0  0  0  0  0  0  0  0  0
   14.2748   19.1658    4.1991 H   0  0  0  0  0  0  0  0  0  0  0  0
   12.9496   18.3023    3.3486 H   0  0  0  0  0  0  0  0  0  0  0  0
   14.0615   20.8335    2.6412 H   0  0  0  0  0  0  0  0  0  0  0  0
   13.0027   16.6105    1.3083 H   0  0  0  0  0  0  0  0  0  0  0  0
   12.5680   15.1038    2.0903 H   0  0  0  0  0  0  0  0  0  0  0  0
   15.0719   15.5436    0.3191 H   0  0  0  0  0  0  0  0  0  0  0  0
   13.5965   14.6835   -0.1622 H   0  0  0  0  0  0  0  0  0  0  0  0
   10.8515    9.4575    1.4225 H   0  0  0  0  0  0  0  0  0  0  0  0
    8.5350    4.6107   -3.5182 H   0  0  0  0  0  0  0  0  0  0  0  0
    8.5911    1.0608   -3.2165 H   0  0  0  0  0  0  0  0  0  0  0  0
    1.3565   -1.3455   -1.6990 H   0  0  0  0  0  0  0  0  0  0  0  0
  1  2  1  0  0  0  0
  1 45  1  0  0  0  0
  1 46  1  0  0  0  0
  1 47  1  0  0  0  0
  2  3  1  0  0  0  0
  3  4  1  0  0  0  0
  3 43  2  0  0  0  0
  4  5  2  0  0  0  0
  4 48  1  0  0  0  0
  5  6  1  0  0  0  0
  5  8  1  0  0  0  0
  6  7  1  0  0  0  0
  7 49  1  0  0  0  0
  7 50  1  0  0  0  0
  7 51  1  0  0  0  0
  8  9  2  0  0  0  0
  8 52  1  0  0  0  0
  9 10  1  0  0  0  0
  9 43  1  0  0  0  0
 10 11  1  0  0  0  0
 10 15  1  0  0  0  0
 11 12  1  0  0  0  0
 11 53  1  0  0  0  0
 11 54  1  0  0  0  0
 12 13  1  0  0  0  0
 12 14  1  0  0  0  0
 12 55  1  0  0  0  0
 13 14  1  0  0  0  0
 13 56  1  0  0  0  0
 13 57  1  0  0  0  0
 14 58  1  0  0  0  0
 14 59  1  0  0  0  0
 15 16  1  0  0  0  0
 15 42  2  0  0  0  0
 16 17  2  0  0  0  0
 16 60  1  0  0  0  0
 17 18  1  0  0  0  0
 17 61  1  0  0  0  0
 18 19  1  0  0  0  0
 18 41  2  0  0  0  0
 19 20  2  0  0  0  0
 20 21  1  0  0  0  0
 20 62  1  0  0  0  0
 21 22  1  0  0  0  0
 21 40  2  0  0  0  0
 22 23  1  0  0  0  0
 22 39  2  0  0  0  0
 23 24  2  0  0  0  0
 23 63  1  0  0  0  0
 24 25  1  0  0  0  0
 25 26  1  0  0  0  0
 25 39  1  0  0  0  0
 26 27  1  0  0  0  0
 26 64  1  0  0  0  0
 26 65  1  0  0  0  0
 27 28  1  0  0  0  0
 27 66  1  0  0  0  0
 27 67  1  0  0  0  0
 28 29  1  0  0  0  0
 28 68  1  0  0  0  0
 28 69  1  0  0  0  0
 29 30  1  0  0  0  0
 29 38  1  0  0  0  0
 30 31  1  0  0  0  0
 30 70  1  0  0  0  0
 30 71  1  0  0  0  0
 31 32  1  0  0  0  0
 31 72  1  0  0  0  0
 31 73  1  0  0  0  0
 32 33  1  0  0  0  0
 32 37  1  0  0  0  0
 33 34  1  0  0  0  0
 33 74  1  0  0  0  0
 33 75  1  0  0  0  0
 34 35  1  0  0  0  0
 34 76  1  0  0  0  0
 34 77  1  0  0  0  0
 35 36  1  0  0  0  0
 35 78  1  0  0  0  0
 35 79  1  0  0  0  0
 36 80  1  0  0  0  0
 37 38  1  0  0  0  0
 37 81  1  0  0  0  0
 37 82  1  0  0  0  0
 38 83  1  0  0  0  0
 38 84  1  0  0  0  0
 39 85  1  0  0  0  0
 40 41  1  0  0  0  0
 41 42  1  0  0  0  0
 42 86  1  0  0  0  0
 43 87  1  0  0  0  0
 44 88  1  0  0  0  0
M  END
$$$$
