CHEMBL3596892
 OpenBabel04072215363D

 54 57  0  0  0  0  0  0  0  0999 V2000
    7.2466   -2.9498   -5.5581 C   0  0  0  0  0  0  0  0  0  0  0  0
    6.1044   -2.7253   -4.7069 N   0  0  0  0  0  0  0  0  0  0  0  0
    6.0929   -2.6343   -3.3462 C   0  0  0  0  0  0  0  0  0  0  0  0
    4.7888   -2.3609   -2.9847 C   0  0  0  0  0  0  0  0  0  0  0  0
    4.3205   -2.1521   -1.6279 C   0  0  0  0  0  0  0  0  0  0  0  0
    2.9729   -1.9181   -1.3677 C   0  0  0  0  0  0  0  0  0  0  0  0
    2.4905   -1.6950   -0.1268 N   0  0  0  0  0  0  0  0  0  0  0  0
    3.4229   -1.7198    0.8542 C   0  0  0  0  0  0  0  0  0  0  0  0
    4.7838   -1.9617    0.6351 C   0  0  0  0  0  0  0  0  0  0  0  0
    5.7687   -1.9861    1.7373 C   0  0  0  0  0  0  0  0  0  0  0  0
    5.3729   -2.2922    3.0471 C   0  0  0  0  0  0  0  0  0  0  0  0
    6.2748   -2.2668    4.1107 C   0  0  0  0  0  0  0  0  0  0  0  0
    7.6236   -1.9844    3.9081 C   0  0  0  0  0  0  0  0  0  0  0  0
    8.5646   -1.9957    4.9705 N   0  0  0  0  0  0  0  0  0  0  0  0
    8.3565   -2.6763    6.1648 C   0  0  0  0  0  0  0  0  0  0  0  0
    7.4049   -3.4233    6.3609 O   0  0  0  0  0  0  0  0  0  0  0  0
    9.3364   -2.4156    7.1047 N   0  0  0  0  0  0  0  0  0  0  0  0
    9.3016   -3.0547    8.3277 C   0  0  0  0  0  0  0  0  0  0  0  0
   10.0092   -2.8543    9.4868 C   0  0  0  0  0  0  0  0  0  0  0  0
    9.5122   -3.8401   10.3889 C   0  0  0  0  0  0  0  0  0  0  0  0
    9.9181   -4.1053   11.8238 C   0  0  0  0  0  0  0  0  0  0  0  0
    9.5955   -2.8766   12.6957 C   0  0  0  0  0  0  0  0  0  0  0  0
    9.1783   -5.3224   12.4274 C   0  0  0  0  0  0  0  0  0  0  0  0
   11.4297   -4.3941   11.8877 C   0  0  0  0  0  0  0  0  0  0  0  0
    8.5746   -4.5874    9.7976 N   0  0  0  0  0  0  0  0  0  0  0  0
    8.4520   -4.1010    8.5183 O   0  0  0  0  0  0  0  0  0  0  0  0
    8.0473   -1.6737    2.6134 C   0  0  0  0  0  0  0  0  0  0  0  0
    7.1304   -1.6865    1.5424 C   0  0  0  0  0  0  0  0  0  0  0  0
    5.2463   -2.1723   -0.6277 N   0  0  0  0  0  0  0  0  0  0  0  0
    4.0967   -2.3320   -4.2184 C   0  0  0  0  0  0  0  0  0  0  0  0
    4.8941   -2.5515   -5.2660 N   0  0  0  0  0  0  0  0  0  0  0  0
    8.1203   -3.1765   -4.9434 H   0  0  0  0  0  0  0  0  0  0  0  0
    7.4207   -2.0402   -6.1389 H   0  0  0  0  0  0  0  0  0  0  0  0
    7.0266   -3.7910   -6.2203 H   0  0  0  0  0  0  0  0  0  0  0  0
    6.9894   -2.7586   -2.7542 H   0  0  0  0  0  0  0  0  0  0  0  0
    2.2237   -1.8962   -2.1501 H   0  0  0  0  0  0  0  0  0  0  0  0
    3.0261   -1.5196    1.8441 H   0  0  0  0  0  0  0  0  0  0  0  0
    4.3493   -2.5737    3.2826 H   0  0  0  0  0  0  0  0  0  0  0  0
    5.8738   -2.4821    5.0976 H   0  0  0  0  0  0  0  0  0  0  0  0
    9.5153   -1.7436    4.7453 H   0  0  0  0  0  0  0  0  0  0  0  0
    9.9493   -1.6253    6.9882 H   0  0  0  0  0  0  0  0  0  0  0  0
   10.7663   -2.1088    9.6752 H   0  0  0  0  0  0  0  0  0  0  0  0
    8.5173   -2.6749   12.7107 H   0  0  0  0  0  0  0  0  0  0  0  0
   10.0910   -1.9739   12.3217 H   0  0  0  0  0  0  0  0  0  0  0  0
    9.9207   -3.0283   13.7311 H   0  0  0  0  0  0  0  0  0  0  0  0
    8.0933   -5.1623   12.4517 H   0  0  0  0  0  0  0  0  0  0  0  0
    9.5046   -5.5156   13.4558 H   0  0  0  0  0  0  0  0  0  0  0  0
    9.3649   -6.2340   11.8466 H   0  0  0  0  0  0  0  0  0  0  0  0
   12.0179   -3.5557   11.4979 H   0  0  0  0  0  0  0  0  0  0  0  0
   11.6857   -5.2790   11.2920 H   0  0  0  0  0  0  0  0  0  0  0  0
   11.7566   -4.5772   12.9166 H   0  0  0  0  0  0  0  0  0  0  0  0
    9.0878   -1.4411    2.4049 H   0  0  0  0  0  0  0  0  0  0  0  0
    7.4907   -1.4551    0.5405 H   0  0  0  0  0  0  0  0  0  0  0  0
    3.0460   -2.1529   -4.4056 H   0  0  0  0  0  0  0  0  0  0  0  0
  1  2  1  0  0  0  0
  1 32  1  0  0  0  0
  1 33  1  0  0  0  0
  1 34  1  0  0  0  0
  2  3  1  0  0  0  0
  2 31  1  0  0  0  0
  3  4  2  0  0  0  0
  3 35  1  0  0  0  0
  4  5  1  0  0  0  0
  4 30  1  0  0  0  0
  5  6  1  0  0  0  0
  5 29  2  0  0  0  0
  6  7  2  0  0  0  0
  6 36  1  0  0  0  0
  7  8  1  0  0  0  0
  8  9  2  0  0  0  0
  8 37  1  0  0  0  0
  9 10  1  0  0  0  0
  9 29  1  0  0  0  0
 10 11  1  0  0  0  0
 10 28  2  0  0  0  0
 11 12  2  0  0  0  0
 11 38  1  0  0  0  0
 12 13  1  0  0  0  0
 12 39  1  0  0  0  0
 13 14  1  0  0  0  0
 13 27  2  0  0  0  0
 14 15  1  0  0  0  0
 14 40  1  0  0  0  0
 15 16  2  0  0  0  0
 15 17  1  0  0  0  0
 17 18  1  0  0  0  0
 17 41  1  0  0  0  0
 18 19  2  0  0  0  0
 18 26  1  0  0  0  0
 19 20  1  0  0  0  0
 19 42  1  0  0  0  0
 20 21  1  0  0  0  0
 20 25  2  0  0  0  0
 21 22  1  0  0  0  0
 21 23  1  0  0  0  0
 21 24  1  0  0  0  0
 22 43  1  0  0  0  0
 22 44  1  0  0  0  0
 22 45  1  0  0  0  0
 23 46  1  0  0  0  0
 23 47  1  0  0  0  0
 23 48  1  0  0  0  0
 24 49  1  0  0  0  0
 24 50  1  0  0  0  0
 24 51  1  0  0  0  0
 25 26  1  0  0  0  0
 27 28  1  0  0  0  0
 27 52  1  0  0  0  0
 28 53  1  0  0  0  0
 30 31  2  0  0  0  0
 30 54  1  0  0  0  0
M  END
$$$$
