CHEMBL3895424
 OpenBabel04072215373D

 53 57  0  0  1  0  0  0  0  0999 V2000
    3.7043   -0.0425   -1.1664 C   0  0  0  0  0  0  0  0  0  0  0  0
    2.9058   -0.4411   -0.0480 O   0  0  0  0  0  0  0  0  0  0  0  0
    3.4520   -0.2169    1.1933 C   0  0  0  0  0  0  0  0  0  0  0  0
    4.5462    0.6272    1.3798 C   0  0  0  0  0  0  0  0  0  0  0  0
    5.0869    0.8640    2.6509 C   0  0  0  0  0  0  0  0  0  0  0  0
    6.1586    1.7463    2.8786 C   0  0  0  0  0  0  0  0  0  0  0  0
    6.5916    2.5637    1.8097 N   0  0  0  0  0  0  0  0  0  0  0  0
    7.8699    3.1076    1.5482 C   0  0  0  0  0  0  0  0  0  0  0  0
    9.0169    2.4031    1.9250 C   0  0  0  0  0  0  0  0  0  0  0  0
   10.2796    2.8156    1.4958 C   0  0  0  0  0  0  0  0  0  0  0  0
   10.4144    3.9558    0.7023 C   0  0  0  0  0  0  0  0  0  0  0  0
   12.1663    4.3556    0.0772 Br  0  0  0  0  0  0  0  0  0  0  0  0
    9.2908    4.7233    0.3675 C   0  0  0  0  0  0  0  0  0  0  0  0
    9.4648    6.1844   -0.5570 Cl  0  0  0  0  0  0  0  0  0  0  0  0
    8.0182    4.2881    0.7822 C   0  0  0  0  0  0  0  0  0  0  0  0
    6.5801    5.1788    0.3612 Cl  0  0  0  0  0  0  0  0  0  0  0  0
    6.7278    1.8631    4.0858 N   0  0  0  0  0  0  0  0  0  0  0  0
    6.1764    1.1456    5.0714 C   0  0  0  0  0  0  0  0  0  0  0  0
    5.1114    0.3320    4.9739 N   0  0  0  0  0  0  0  0  0  0  0  0
    4.5721    0.1888    3.7590 C   0  0  0  0  0  0  0  0  0  0  0  0
    3.4655   -0.6389    3.5749 C   0  0  0  0  0  0  0  0  0  0  0  0
    2.8786   -0.8492    2.3159 C   0  0  0  0  0  0  0  0  0  0  0  0
    1.7327   -1.5736    2.1218 O   0  0  0  0  0  0  0  0  0  0  0  0
    1.4398   -2.7325    2.9232 C   0  0  2  0  0  0  0  0  0  0  0  0
    0.6340   -2.4283    4.1841 C   0  0  0  0  0  0  0  0  0  0  0  0
    1.2444   -3.3140    5.2402 C   0  0  1  0  0  0  0  0  0  0  0  0
    0.4057   -4.4215    5.5985 O   0  0  0  0  0  0  0  0  0  0  0  0
    1.3141   -5.4951    5.8994 C   0  0  0  0  0  0  0  0  0  0  0  0
    2.3859   -5.4011    4.8269 C   0  0  2  0  0  0  0  0  0  0  0  0
    3.5930   -6.0257    5.2675 O   0  0  0  0  0  0  0  0  0  0  0  0
    4.6004   -6.0234    4.2626 C   0  0  0  0  0  0  0  0  0  0  0  0
    2.5118   -3.8905    4.6416 C   0  0  1  0  0  0  0  0  0  0  0  0
    2.5786   -3.5345    3.2565 O   0  0  0  0  0  0  0  0  0  0  0  0
    3.1677   -0.2832   -2.0884 H   0  0  0  0  0  0  0  0  0  0  0  0
    4.6573   -0.5863   -1.1770 H   0  0  0  0  0  0  0  0  0  0  0  0
    3.8778    1.0410   -1.1808 H   0  0  0  0  0  0  0  0  0  0  0  0
    5.0229    1.1148    0.5371 H   0  0  0  0  0  0  0  0  0  0  0  0
    5.8322    3.1629    1.4790 H   0  0  0  0  0  0  0  0  0  0  0  0
    8.9327    1.4949    2.5156 H   0  0  0  0  0  0  0  0  0  0  0  0
   11.1455    2.2170    1.7684 H   0  0  0  0  0  0  0  0  0  0  0  0
    6.6278    1.2344    6.0530 H   0  0  0  0  0  0  0  0  0  0  0  0
    3.0510   -1.1011    4.4638 H   0  0  0  0  0  0  0  0  0  0  0  0
    0.8100   -3.3617    2.2826 H   0  0  0  0  0  0  0  0  0  0  0  0
   -0.4317   -2.6356    4.0339 H   0  0  0  0  0  0  0  0  0  0  0  0
    0.7110   -1.3728    4.4616 H   0  0  0  0  0  0  0  0  0  0  0  0
    1.4528   -2.7579    6.1618 H   0  0  0  0  0  0  0  0  0  0  0  0
    0.7840   -6.4527    5.8856 H   0  0  0  0  0  0  0  0  0  0  0  0
    1.7242   -5.3537    6.9073 H   0  0  0  0  0  0  0  0  0  0  0  0
    2.0296   -5.8911    3.9109 H   0  0  0  0  0  0  0  0  0  0  0  0
    5.4696   -6.5604    4.6515 H   0  0  0  0  0  0  0  0  0  0  0  0
    4.9111   -5.0027    4.0225 H   0  0  0  0  0  0  0  0  0  0  0  0
    4.2481   -6.5337    3.3610 H   0  0  0  0  0  0  0  0  0  0  0  0
    3.4043   -3.4822    5.1280 H   0  0  0  0  0  0  0  0  0  0  0  0
  1  2  1  0  0  0  0
  1 34  1  0  0  0  0
  1 35  1  0  0  0  0
  1 36  1  0  0  0  0
  2  3  1  0  0  0  0
  3  4  1  0  0  0  0
  3 22  2  0  0  0  0
  4  5  2  0  0  0  0
  4 37  1  0  0  0  0
  5  6  1  0  0  0  0
  5 20  1  0  0  0  0
  6  7  1  0  0  0  0
  6 17  2  0  0  0  0
  7  8  1  0  0  0  0
  7 38  1  0  0  0  0
  8  9  1  0  0  0  0
  8 15  2  0  0  0  0
  9 10  2  0  0  0  0
  9 39  1  0  0  0  0
 10 11  1  0  0  0  0
 10 40  1  0  0  0  0
 11 12  1  0  0  0  0
 11 13  2  0  0  0  0
 13 14  1  0  0  0  0
 13 15  1  0  0  0  0
 15 16  1  0  0  0  0
 17 18  1  0  0  0  0
 18 19  2  0  0  0  0
 18 41  1  0  0  0  0
 19 20  1  0  0  0  0
 20 21  2  0  0  0  0
 21 22  1  0  0  0  0
 21 42  1  0  0  0  0
 22 23  1  0  0  0  0
 23 24  1  0  0  0  0
 24 25  1  0  0  0  0
 24 33  1  0  0  0  0
 24 43  1  6  0  0  0
 25 26  1  0  0  0  0
 25 44  1  0  0  0  0
 25 45  1  0  0  0  0
 26 27  1  0  0  0  0
 26 32  1  0  0  0  0
 26 46  1  1  0  0  0
 27 28  1  0  0  0  0
 28 29  1  0  0  0  0
 28 47  1  0  0  0  0
 28 48  1  0  0  0  0
 29 30  1  0  0  0  0
 29 32  1  0  0  0  0
 29 49  1  6  0  0  0
 30 31  1  0  0  0  0
 31 50  1  0  0  0  0
 31 51  1  0  0  0  0
 31 52  1  0  0  0  0
 32 33  1  0  0  0  0
 32 53  1  1  0  0  0
M  END
$$$$
