CHEMBL3656115
 OpenBabel04072215373D

 53 56  0  0  0  0  0  0  0  0999 V2000
    2.3764   -0.3305    1.5416 C   0  0  0  0  0  0  0  0  0  0  0  0
    0.8752   -0.2819    1.4974 C   0  0  0  0  0  0  0  0  0  0  0  0
    0.2326    0.8919    1.9054 C   0  0  0  0  0  0  0  0  0  0  0  0
   -1.1480    0.9731    1.8681 C   0  0  0  0  0  0  0  0  0  0  0  0
   -1.8962   -0.1170    1.4289 C   0  0  0  0  0  0  0  0  0  0  0  0
   -1.2999   -1.3174    1.0210 C   0  0  0  0  0  0  0  0  0  0  0  0
   -2.0651   -2.4493    0.5813 N   0  0  0  0  0  0  0  0  0  0  0  0
   -3.4618   -2.4648    0.4911 C   0  0  0  0  0  0  0  0  0  0  0  0
   -4.1783   -1.5350    0.7940 O   0  0  0  0  0  0  0  0  0  0  0  0
   -3.9929   -3.6672    0.0182 N   0  0  0  0  0  0  0  0  0  0  0  0
   -5.4156   -3.7603   -0.1012 C   0  0  0  0  0  0  0  0  0  0  0  0
   -6.1039   -2.8674   -0.9294 C   0  0  0  0  0  0  0  0  0  0  0  0
   -7.4987   -2.8408   -0.9689 C   0  0  0  0  0  0  0  0  0  0  0  0
   -8.2472   -3.7542   -0.2263 C   0  0  0  0  0  0  0  0  0  0  0  0
   -9.6295   -3.7673   -0.1738 O   0  0  0  0  0  0  0  0  0  0  0  0
  -10.3666   -3.3649   -1.2716 C   0  0  0  0  0  0  0  0  0  0  0  0
   -9.9106   -3.4915   -2.5791 C   0  0  0  0  0  0  0  0  0  0  0  0
  -10.7255   -3.0583   -3.6055 C   0  0  0  0  0  0  0  0  0  0  0  0
  -11.9673   -2.5627   -3.4238 N   0  0  0  0  0  0  0  0  0  0  0  0
  -12.4076   -2.4729   -2.1461 C   0  0  0  0  0  0  0  0  0  0  0  0
  -13.7474   -1.9033   -2.0190 C   0  0  0  0  0  0  0  0  0  0  0  0
  -14.5287   -1.6414   -0.9076 C   0  0  0  0  0  0  0  0  0  0  0  0
  -15.7689   -1.0695   -1.3280 C   0  0  0  0  0  0  0  0  0  0  0  0
  -16.8544   -0.6533   -0.4496 C   0  0  0  0  0  0  0  0  0  0  0  0
  -17.9577   -0.1237   -1.0508 N   0  0  0  0  0  0  0  0  0  0  0  0
  -16.8060   -0.7571    0.7735 O   0  0  0  0  0  0  0  0  0  0  0  0
  -15.6975   -0.9963   -2.7097 C   0  0  0  0  0  0  0  0  0  0  0  0
  -14.4713   -1.4701   -3.1075 N   0  0  0  0  0  0  0  0  0  0  0  0
  -11.6485   -2.8624   -1.0456 C   0  0  0  0  0  0  0  0  0  0  0  0
   -7.5672   -4.6739    0.5806 C   0  0  0  0  0  0  0  0  0  0  0  0
   -6.1559   -4.6894    0.6369 C   0  0  0  0  0  0  0  0  0  0  0  0
    0.1047   -1.3862    1.0559 C   0  0  0  0  0  0  0  0  0  0  0  0
    2.7903    0.6118    1.9227 H   0  0  0  0  0  0  0  0  0  0  0  0
    2.7847   -0.4827    0.5386 H   0  0  0  0  0  0  0  0  0  0  0  0
    2.7160   -1.1276    2.2088 H   0  0  0  0  0  0  0  0  0  0  0  0
    0.7996    1.7519    2.2526 H   0  0  0  0  0  0  0  0  0  0  0  0
   -1.6582    1.8817    2.1771 H   0  0  0  0  0  0  0  0  0  0  0  0
   -2.9674    0.0375    1.4235 H   0  0  0  0  0  0  0  0  0  0  0  0
   -1.5557   -3.2642    0.2845 H   0  0  0  0  0  0  0  0  0  0  0  0
   -3.4975   -4.5048    0.2864 H   0  0  0  0  0  0  0  0  0  0  0  0
   -5.5587   -2.1536   -1.5446 H   0  0  0  0  0  0  0  0  0  0  0  0
   -7.9715   -2.0782   -1.5845 H   0  0  0  0  0  0  0  0  0  0  0  0
   -8.9337   -3.8932   -2.8003 H   0  0  0  0  0  0  0  0  0  0  0  0
  -10.3814   -3.0899   -4.6339 H   0  0  0  0  0  0  0  0  0  0  0  0
  -14.2447   -1.8301    0.1195 H   0  0  0  0  0  0  0  0  0  0  0  0
  -18.0371   -0.0024   -2.0473 H   0  0  0  0  0  0  0  0  0  0  0  0
  -18.7099    0.1818   -0.4510 H   0  0  0  0  0  0  0  0  0  0  0  0
  -16.3968   -0.6370   -3.4506 H   0  0  0  0  0  0  0  0  0  0  0  0
  -14.1238   -1.5066   -4.0585 H   0  0  0  0  0  0  0  0  0  0  0  0
  -12.0448   -2.7772   -0.0401 H   0  0  0  0  0  0  0  0  0  0  0  0
   -8.1359   -5.3673    1.1957 H   0  0  0  0  0  0  0  0  0  0  0  0
   -5.6675   -5.3742    1.3232 H   0  0  0  0  0  0  0  0  0  0  0  0
    0.6210   -2.2895    0.7434 H   0  0  0  0  0  0  0  0  0  0  0  0
  1  2  1  0  0  0  0
  1 33  1  0  0  0  0
  1 34  1  0  0  0  0
  1 35  1  0  0  0  0
  2  3  1  0  0  0  0
  2 32  2  0  0  0  0
  3  4  2  0  0  0  0
  3 36  1  0  0  0  0
  4  5  1  0  0  0  0
  4 37  1  0  0  0  0
  5  6  2  0  0  0  0
  5 38  1  0  0  0  0
  6  7  1  0  0  0  0
  6 32  1  0  0  0  0
  7  8  1  0  0  0  0
  7 39  1  0  0  0  0
  8  9  2  0  0  0  0
  8 10  1  0  0  0  0
 10 11  1  0  0  0  0
 10 40  1  0  0  0  0
 11 12  1  0  0  0  0
 11 31  2  0  0  0  0
 12 13  2  0  0  0  0
 12 41  1  0  0  0  0
 13 14  1  0  0  0  0
 13 42  1  0  0  0  0
 14 15  1  0  0  0  0
 14 30  2  0  0  0  0
 15 16  1  0  0  0  0
 16 17  1  0  0  0  0
 16 29  2  0  0  0  0
 17 18  2  0  0  0  0
 17 43  1  0  0  0  0
 18 19  1  0  0  0  0
 18 44  1  0  0  0  0
 19 20  2  0  0  0  0
 20 21  1  0  0  0  0
 20 29  1  0  0  0  0
 21 22  2  0  0  0  0
 21 28  1  0  0  0  0
 22 23  1  0  0  0  0
 22 45  1  0  0  0  0
 23 24  1  0  0  0  0
 23 27  2  0  0  0  0
 24 25  1  0  0  0  0
 24 26  2  0  0  0  0
 25 46  1  0  0  0  0
 25 47  1  0  0  0  0
 27 28  1  0  0  0  0
 27 48  1  0  0  0  0
 28 49  1  0  0  0  0
 29 50  1  0  0  0  0
 30 31  1  0  0  0  0
 30 51  1  0  0  0  0
 31 52  1  0  0  0  0
 32 53  1  0  0  0  0
M  END
$$$$
