CHEMBL402004
 OpenBabel04072215373D

 53 57  0  0  0  0  0  0  0  0999 V2000
    4.9517    3.4660   -6.0528 O   0  0  0  0  0  0  0  0  0  0  0  0
    4.3528    3.4803   -4.9748 C   0  0  0  0  0  0  0  0  0  0  0  0
    3.0942    4.2562   -4.6955 C   0  0  0  0  0  0  0  0  0  0  0  0
    2.5621    5.1966   -5.7495 C   0  0  0  0  0  0  0  0  0  0  0  0
    1.1679    5.3423   -5.8549 C   0  0  0  0  0  0  0  0  0  0  0  0
    0.6115    6.2945   -6.7057 C   0  0  0  0  0  0  0  0  0  0  0  0
    1.4421    7.1160   -7.4617 C   0  0  0  0  0  0  0  0  0  0  0  0
    2.8266    6.9761   -7.3754 C   0  0  0  0  0  0  0  0  0  0  0  0
    3.3860    6.0266   -6.5177 C   0  0  0  0  0  0  0  0  0  0  0  0
    4.8671    2.6918   -3.9509 N   0  0  0  0  0  0  0  0  0  0  0  0
    4.4444    2.2603   -2.6909 C   0  0  0  0  0  0  0  0  0  0  0  0
    2.9987    2.5440   -1.9125 S   0  0  0  0  0  0  0  0  0  0  0  0
    5.3266    1.4041   -2.0733 N   0  0  0  0  0  0  0  0  0  0  0  0
    6.7275    1.4019   -2.1569 C   0  0  0  0  0  0  0  0  0  0  0  0
    7.3955    0.2223   -1.8319 C   0  0  0  0  0  0  0  0  0  0  0  0
    8.7867    0.1657   -1.9170 C   0  0  0  0  0  0  0  0  0  0  0  0
    9.5102    1.2804   -2.3567 C   0  0  0  0  0  0  0  0  0  0  0  0
   10.8722    1.2930   -2.5361 O   0  0  0  0  0  0  0  0  0  0  0  0
   11.5009    0.1445   -2.9615 C   0  0  0  0  0  0  0  0  0  0  0  0
   10.9418   -0.7475   -3.8777 C   0  0  0  0  0  0  0  0  0  0  0  0
   11.6288   -1.9039   -4.1871 C   0  0  0  0  0  0  0  0  0  0  0  0
   12.8465   -2.2265   -3.7212 N   0  0  0  0  0  0  0  0  0  0  0  0
   13.4334   -1.3053   -2.9113 C   0  0  0  0  0  0  0  0  0  0  0  0
   14.7479   -1.4143   -2.3777 C   0  0  0  0  0  0  0  0  0  0  0  0
   15.1208   -0.3212   -1.6205 C   0  0  0  0  0  0  0  0  0  0  0  0
   16.3981   -0.0812   -0.9878 C   0  0  0  0  0  0  0  0  0  0  0  0
   16.9861    1.1376   -0.6949 C   0  0  0  0  0  0  0  0  0  0  0  0
   18.2701    1.0023   -0.0889 C   0  0  0  0  0  0  0  0  0  0  0  0
   18.6244   -0.3165    0.0734 C   0  0  0  0  0  0  0  0  0  0  0  0
   17.4188   -1.3784   -0.5046 S   0  0  0  0  0  0  0  0  0  0  0  0
   13.8294    0.8012   -1.4984 S   0  0  0  0  0  0  0  0  0  0  0  0
   12.8034   -0.1283   -2.5161 C   0  0  0  0  0  0  0  0  0  0  0  0
    8.8387    2.4758   -2.5959 C   0  0  0  0  0  0  0  0  0  0  0  0
    9.5178    3.5814   -2.9331 F   0  0  0  0  0  0  0  0  0  0  0  0
    7.4553    2.5452   -2.4974 C   0  0  0  0  0  0  0  0  0  0  0  0
    3.2550    4.8577   -3.7934 H   0  0  0  0  0  0  0  0  0  0  0  0
    2.3174    3.5061   -4.5112 H   0  0  0  0  0  0  0  0  0  0  0  0
    0.5050    4.7234   -5.2532 H   0  0  0  0  0  0  0  0  0  0  0  0
   -0.4678    6.4034   -6.7631 H   0  0  0  0  0  0  0  0  0  0  0  0
    1.0109    7.8710   -8.1121 H   0  0  0  0  0  0  0  0  0  0  0  0
    3.4747    7.6171   -7.9671 H   0  0  0  0  0  0  0  0  0  0  0  0
    4.4694    5.9515   -6.4556 H   0  0  0  0  0  0  0  0  0  0  0  0
    5.6870    2.2102   -4.2967 H   0  0  0  0  0  0  0  0  0  0  0  0
    4.9038    0.7718   -1.3995 H   0  0  0  0  0  0  0  0  0  0  0  0
    6.8453   -0.6740   -1.5543 H   0  0  0  0  0  0  0  0  0  0  0  0
    9.2881   -0.7643   -1.6620 H   0  0  0  0  0  0  0  0  0  0  0  0
    9.9727   -0.5680   -4.3309 H   0  0  0  0  0  0  0  0  0  0  0  0
   11.1860   -2.6419   -4.8524 H   0  0  0  0  0  0  0  0  0  0  0  0
   15.3945   -2.2567   -2.5861 H   0  0  0  0  0  0  0  0  0  0  0  0
   16.5291    2.0944   -0.9187 H   0  0  0  0  0  0  0  0  0  0  0  0
   18.9001    1.8316    0.2085 H   0  0  0  0  0  0  0  0  0  0  0  0
   19.5356   -0.7108    0.5017 H   0  0  0  0  0  0  0  0  0  0  0  0
    6.9807    3.5085   -2.6566 H   0  0  0  0  0  0  0  0  0  0  0  0
  1  2  2  0  0  0  0
  2  3  1  0  0  0  0
  2 10  1  0  0  0  0
  3  4  1  0  0  0  0
  3 36  1  0  0  0  0
  3 37  1  0  0  0  0
  4  5  1  0  0  0  0
  4  9  2  0  0  0  0
  5  6  2  0  0  0  0
  5 38  1  0  0  0  0
  6  7  1  0  0  0  0
  6 39  1  0  0  0  0
  7  8  2  0  0  0  0
  7 40  1  0  0  0  0
  8  9  1  0  0  0  0
  8 41  1  0  0  0  0
  9 42  1  0  0  0  0
 10 11  1  0  0  0  0
 10 43  1  0  0  0  0
 11 12  2  0  0  0  0
 11 13  1  0  0  0  0
 13 14  1  0  0  0  0
 13 44  1  0  0  0  0
 14 15  1  0  0  0  0
 14 35  2  0  0  0  0
 15 16  2  0  0  0  0
 15 45  1  0  0  0  0
 16 17  1  0  0  0  0
 16 46  1  0  0  0  0
 17 18  1  0  0  0  0
 17 33  2  0  0  0  0
 18 19  1  0  0  0  0
 19 20  1  0  0  0  0
 19 32  2  0  0  0  0
 20 21  2  0  0  0  0
 20 47  1  0  0  0  0
 21 22  1  0  0  0  0
 21 48  1  0  0  0  0
 22 23  2  0  0  0  0
 23 24  1  0  0  0  0
 23 32  1  0  0  0  0
 24 25  2  0  0  0  0
 24 49  1  0  0  0  0
 25 26  1  0  0  0  0
 25 31  1  0  0  0  0
 26 27  2  0  0  0  0
 26 30  1  0  0  0  0
 27 28  1  0  0  0  0
 27 50  1  0  0  0  0
 28 29  2  0  0  0  0
 28 51  1  0  0  0  0
 29 30  1  0  0  0  0
 29 52  1  0  0  0  0
 31 32  1  0  0  0  0
 33 34  1  0  0  0  0
 33 35  1  0  0  0  0
 35 53  1  0  0  0  0
M  END
$$$$
