CHEMBL3943610
 OpenBabel04072215373D

 86 91  0  0  0  0  0  0  0  0999 V2000
    0.3331    3.6653    0.8220 C   0  0  0  0  0  0  0  0  0  0  0  0
    1.6356    4.1361    0.4633 O   0  0  0  0  0  0  0  0  0  0  0  0
    2.6498    3.2049    0.4372 C   0  0  0  0  0  0  0  0  0  0  0  0
    2.4929    1.8708    0.8118 C   0  0  0  0  0  0  0  0  0  0  0  0
    3.5694    0.9979    0.7112 C   0  0  0  0  0  0  0  0  0  0  0  0
    3.5517   -0.3389    1.0092 O   0  0  0  0  0  0  0  0  0  0  0  0
    2.3584   -0.8592    1.5804 C   0  0  0  0  0  0  0  0  0  0  0  0
    4.8013    1.4619    0.2353 C   0  0  0  0  0  0  0  0  0  0  0  0
    5.0106    2.7901   -0.1652 C   0  0  0  0  0  0  0  0  0  0  0  0
    6.1973    3.1968   -0.8322 N   0  0  0  0  0  0  0  0  0  0  0  0
    6.7773    2.1780   -1.8026 C   0  0  0  0  0  0  0  0  0  0  0  0
    6.1401    2.1887   -3.2285 C   0  0  0  0  0  0  0  0  0  0  0  0
    6.8051    1.2575   -4.1864 N   0  0  0  0  0  0  0  0  0  0  0  0
    6.3031    1.3897   -5.5769 C   0  0  0  0  0  0  0  0  0  0  0  0
    4.9638    0.6599   -5.8807 C   0  0  0  0  0  0  0  0  0  0  0  0
    4.9255   -0.7823   -5.5304 N   0  0  0  0  0  0  0  0  0  0  0  0
    5.7459   -1.6821   -6.3949 C   0  0  0  0  0  0  0  0  0  0  0  0
    5.7945   -1.4009   -7.9171 C   0  0  0  0  0  0  0  0  0  0  0  0
    4.5903   -1.9013   -8.7111 C   0  0  0  0  0  0  0  0  0  0  0  0
    4.3170   -3.3118   -8.4434 N   0  0  0  0  0  0  0  0  0  0  0  0
    3.9101   -4.1155   -9.5022 C   0  0  0  0  0  0  0  0  0  0  0  0
    3.6054   -5.5767   -9.2126 C   0  0  0  0  0  0  0  0  0  0  0  0
    3.7700   -3.6860  -10.6486 O   0  0  0  0  0  0  0  0  0  0  0  0
    4.1382   -3.6183   -7.0266 C   0  0  0  0  0  0  0  0  0  0  0  0
    5.3444   -3.1704   -6.1984 C   0  0  0  0  0  0  0  0  0  0  0  0
    5.3653   -0.8545   -4.1023 C   0  0  0  0  0  0  0  0  0  0  0  0
    6.7240   -0.1639   -3.7975 C   0  0  0  0  0  0  0  0  0  0  0  0
    7.2781    4.0393   -0.3756 C   0  0  0  0  0  0  0  0  0  0  0  0
    7.8916    4.7704   -1.3926 C   0  0  0  0  0  0  0  0  0  0  0  0
    9.2371    5.0791   -1.3032 C   0  0  0  0  0  0  0  0  0  0  0  0
    9.9546    4.8270   -0.1658 C   0  0  0  0  0  0  0  0  0  0  0  0
   11.2732    4.9804   -0.3125 N   0  0  0  0  0  0  0  0  0  0  0  0
   12.0104    4.9237    0.8013 C   0  0  0  0  0  0  0  0  0  0  0  0
   11.4387    4.8134    2.0501 C   0  0  0  0  0  0  0  0  0  0  0  0
   12.2860    5.2147    3.1644 C   0  0  0  0  0  0  0  0  0  0  0  0
   12.3704    6.4780    3.8096 C   0  0  0  0  0  0  0  0  0  0  0  0
   13.4453    6.5911    4.6005 N   0  0  0  0  0  0  0  0  0  0  0  0
   14.0596    5.4048    4.4597 N   0  0  0  0  0  0  0  0  0  0  0  0
   15.1265    5.0214    5.3538 C   0  0  0  0  0  0  0  0  0  0  0  0
   13.4941    4.6202    3.4911 C   0  0  0  0  0  0  0  0  0  0  0  0
   10.0964    4.5224    2.1970 N   0  0  0  0  0  0  0  0  0  0  0  0
    9.3192    4.4491    1.0393 C   0  0  0  0  0  0  0  0  0  0  0  0
    7.9535    3.9882    0.8813 C   0  0  0  0  0  0  0  0  0  0  0  0
    3.9105    3.6623   -0.0253 C   0  0  0  0  0  0  0  0  0  0  0  0
   -0.3767    4.4916    0.7210 H   0  0  0  0  0  0  0  0  0  0  0  0
    0.3072    3.3354    1.8676 H   0  0  0  0  0  0  0  0  0  0  0  0
   -0.0069    2.8630    0.1552 H   0  0  0  0  0  0  0  0  0  0  0  0
    1.5366    1.5099    1.1637 H   0  0  0  0  0  0  0  0  0  0  0  0
    2.5383   -1.9102    1.8252 H   0  0  0  0  0  0  0  0  0  0  0  0
    1.5303   -0.8189    0.8653 H   0  0  0  0  0  0  0  0  0  0  0  0
    2.1059   -0.3386    2.5098 H   0  0  0  0  0  0  0  0  0  0  0  0
    5.6039    0.7349    0.1833 H   0  0  0  0  0  0  0  0  0  0  0  0
    6.7355    1.1801   -1.3720 H   0  0  0  0  0  0  0  0  0  0  0  0
    7.8577    2.3364   -1.9425 H   0  0  0  0  0  0  0  0  0  0  0  0
    6.2575    3.2052   -3.6280 H   0  0  0  0  0  0  0  0  0  0  0  0
    5.0645    1.9955   -3.1693 H   0  0  0  0  0  0  0  0  0  0  0  0
    7.0718    0.9800   -6.2469 H   0  0  0  0  0  0  0  0  0  0  0  0
    6.2174    2.4475   -5.8535 H   0  0  0  0  0  0  0  0  0  0  0  0
    4.6701    0.8171   -6.9235 H   0  0  0  0  0  0  0  0  0  0  0  0
    4.1724    1.1601   -5.3048 H   0  0  0  0  0  0  0  0  0  0  0  0
    6.7884   -1.5928   -6.0703 H   0  0  0  0  0  0  0  0  0  0  0  0
    6.6825   -1.9182   -8.3085 H   0  0  0  0  0  0  0  0  0  0  0  0
    5.9719   -0.3431   -8.1340 H   0  0  0  0  0  0  0  0  0  0  0  0
    4.7924   -1.7525   -9.7776 H   0  0  0  0  0  0  0  0  0  0  0  0
    3.6879   -1.3302   -8.4667 H   0  0  0  0  0  0  0  0  0  0  0  0
    4.3045   -5.9943   -8.4871 H   0  0  0  0  0  0  0  0  0  0  0  0
    3.7150   -6.1587  -10.1379 H   0  0  0  0  0  0  0  0  0  0  0  0
    2.5847   -5.6880   -8.8423 H   0  0  0  0  0  0  0  0  0  0  0  0
    3.9751   -4.6863   -6.8715 H   0  0  0  0  0  0  0  0  0  0  0  0
    3.2263   -3.1085   -6.6958 H   0  0  0  0  0  0  0  0  0  0  0  0
    6.2065   -3.7893   -6.4807 H   0  0  0  0  0  0  0  0  0  0  0  0
    5.1475   -3.4061   -5.1480 H   0  0  0  0  0  0  0  0  0  0  0  0
    5.4129   -1.8898   -3.7529 H   0  0  0  0  0  0  0  0  0  0  0  0
    4.5897   -0.3844   -3.4830 H   0  0  0  0  0  0  0  0  0  0  0  0
    7.5268   -0.6922   -4.3271 H   0  0  0  0  0  0  0  0  0  0  0  0
    6.9762   -0.3096   -2.7443 H   0  0  0  0  0  0  0  0  0  0  0  0
    7.3803    4.9310   -2.3383 H   0  0  0  0  0  0  0  0  0  0  0  0
    9.7470    5.4696   -2.1772 H   0  0  0  0  0  0  0  0  0  0  0  0
   13.0774    5.0487    0.6561 H   0  0  0  0  0  0  0  0  0  0  0  0
   11.7221    7.3399    3.6989 H   0  0  0  0  0  0  0  0  0  0  0  0
   15.3222    5.8266    6.0670 H   0  0  0  0  0  0  0  0  0  0  0  0
   16.0260    4.7994    4.7751 H   0  0  0  0  0  0  0  0  0  0  0  0
   14.7897    4.1313    5.8918 H   0  0  0  0  0  0  0  0  0  0  0  0
   13.9822    3.7205    3.1440 H   0  0  0  0  0  0  0  0  0  0  0  0
    7.4630    3.5172    1.7320 H   0  0  0  0  0  0  0  0  0  0  0  0
    4.0003    4.6989   -0.3470 H   0  0  0  0  0  0  0  0  0  0  0  0
  1  2  1  0  0  0  0
  1 45  1  0  0  0  0
  1 46  1  0  0  0  0
  1 47  1  0  0  0  0
  2  3  1  0  0  0  0
  3  4  1  0  0  0  0
  3 44  2  0  0  0  0
  4  5  2  0  0  0  0
  4 48  1  0  0  0  0
  5  6  1  0  0  0  0
  5  8  1  0  0  0  0
  6  7  1  0  0  0  0
  7 49  1  0  0  0  0
  7 50  1  0  0  0  0
  7 51  1  0  0  0  0
  8  9  2  0  0  0  0
  8 52  1  0  0  0  0
  9 10  1  0  0  0  0
  9 44  1  0  0  0  0
 10 11  1  0  0  0  0
 10 28  1  0  0  0  0
 11 12  1  0  0  0  0
 11 53  1  0  0  0  0
 11 54  1  0  0  0  0
 12 13  1  0  0  0  0
 12 55  1  0  0  0  0
 12 56  1  0  0  0  0
 13 14  1  0  0  0  0
 13 27  1  0  0  0  0
 14 15  1  0  0  0  0
 14 57  1  0  0  0  0
 14 58  1  0  0  0  0
 15 16  1  0  0  0  0
 15 59  1  0  0  0  0
 15 60  1  0  0  0  0
 16 17  1  0  0  0  0
 16 26  1  0  0  0  0
 17 18  1  0  0  0  0
 17 25  1  0  0  0  0
 17 61  1  0  0  0  0
 18 19  1  0  0  0  0
 18 62  1  0  0  0  0
 18 63  1  0  0  0  0
 19 20  1  0  0  0  0
 19 64  1  0  0  0  0
 19 65  1  0  0  0  0
 20 21  1  0  0  0  0
 20 24  1  0  0  0  0
 21 22  1  0  0  0  0
 21 23  2  0  0  0  0
 22 66  1  0  0  0  0
 22 67  1  0  0  0  0
 22 68  1  0  0  0  0
 24 25  1  0  0  0  0
 24 69  1  0  0  0  0
 24 70  1  0  0  0  0
 25 71  1  0  0  0  0
 25 72  1  0  0  0  0
 26 27  1  0  0  0  0
 26 73  1  0  0  0  0
 26 74  1  0  0  0  0
 27 75  1  0  0  0  0
 27 76  1  0  0  0  0
 28 29  1  0  0  0  0
 28 43  2  0  0  0  0
 29 30  2  0  0  0  0
 29 77  1  0  0  0  0
 30 31  1  0  0  0  0
 30 78  1  0  0  0  0
 31 32  1  0  0  0  0
 31 42  2  0  0  0  0
 32 33  2  0  0  0  0
 33 34  1  0  0  0  0
 33 79  1  0  0  0  0
 34 35  1  0  0  0  0
 34 41  2  0  0  0  0
 35 36  1  0  0  0  0
 35 40  2  0  0  0  0
 36 37  2  0  0  0  0
 36 80  1  0  0  0  0
 37 38  1  0  0  0  0
 38 39  1  0  0  0  0
 38 40  1  0  0  0  0
 39 81  1  0  0  0  0
 39 82  1  0  0  0  0
 39 83  1  0  0  0  0
 40 84  1  0  0  0  0
 41 42  1  0  0  0  0
 42 43  1  0  0  0  0
 43 85  1  0  0  0  0
 44 86  1  0  0  0  0
M  END
$$$$
