CHEMBL3927733
 OpenBabel04072215373D

 57 60  0  0  0  0  0  0  0  0999 V2000
    1.9231   -0.5693   -3.3775 C   0  0  0  0  0  0  0  0  0  0  0  0
    2.9703   -0.2954   -2.4239 N   0  0  0  0  0  0  0  0  0  0  0  0
    3.9260    0.6526   -2.7024 C   0  0  0  0  0  0  0  0  0  0  0  0
    3.8760    1.3666   -3.7018 O   0  0  0  0  0  0  0  0  0  0  0  0
    5.0647    0.8040   -1.7504 C   0  0  0  0  0  0  0  0  0  0  0  0
    5.4489   -0.2313   -0.8938 C   0  0  0  0  0  0  0  0  0  0  0  0
    6.5598   -0.0656   -0.0714 C   0  0  0  0  0  0  0  0  0  0  0  0
    7.0052   -0.9959    0.8340 O   0  0  0  0  0  0  0  0  0  0  0  0
    6.3484   -2.2632    0.8475 C   0  0  0  0  0  0  0  0  0  0  0  0
    7.3035    1.1299   -0.1426 C   0  0  0  0  0  0  0  0  0  0  0  0
    6.9537    2.1826   -1.0139 C   0  0  0  0  0  0  0  0  0  0  0  0
    7.6978    3.3832   -1.0061 N   0  0  0  0  0  0  0  0  0  0  0  0
    6.9504    4.6775   -1.2314 C   0  0  0  0  0  0  0  0  0  0  0  0
    5.7810    5.0165   -0.2723 C   0  0  0  0  0  0  0  0  0  0  0  0
    6.1366    5.3060    1.1237 N   0  0  0  0  0  0  0  0  0  0  0  0
    9.0413    3.5849   -1.5133 C   0  0  0  0  0  0  0  0  0  0  0  0
    9.7967    4.5007   -0.7799 C   0  0  0  0  0  0  0  0  0  0  0  0
   10.8074    5.1894   -1.3885 C   0  0  0  0  0  0  0  0  0  0  0  0
   11.2161    4.9203   -2.6821 C   0  0  0  0  0  0  0  0  0  0  0  0
   12.0879    5.8049   -3.1800 N   0  0  0  0  0  0  0  0  0  0  0  0
   12.6379    5.5030   -4.3571 C   0  0  0  0  0  0  0  0  0  0  0  0
   12.3822    4.3123   -5.0039 C   0  0  0  0  0  0  0  0  0  0  0  0
   13.2990    3.9691   -6.0851 C   0  0  0  0  0  0  0  0  0  0  0  0
   14.4706    3.1639   -6.0625 C   0  0  0  0  0  0  0  0  0  0  0  0
   15.1852    3.2474   -7.1935 N   0  0  0  0  0  0  0  0  0  0  0  0
   14.4756    4.1081   -7.9423 N   0  0  0  0  0  0  0  0  0  0  0  0
   14.6884    4.1907   -9.3685 C   0  0  0  0  0  0  0  0  0  0  0  0
   13.4650    4.7126   -7.2444 C   0  0  0  0  0  0  0  0  0  0  0  0
   11.3932    3.4494   -4.5586 N   0  0  0  0  0  0  0  0  0  0  0  0
   10.7289    3.7913   -3.3774 C   0  0  0  0  0  0  0  0  0  0  0  0
    9.5675    3.1642   -2.7723 C   0  0  0  0  0  0  0  0  0  0  0  0
    5.8057    1.9991   -1.7934 C   0  0  0  0  0  0  0  0  0  0  0  0
    1.2380   -1.3054   -2.9524 H   0  0  0  0  0  0  0  0  0  0  0  0
    2.3760   -0.9685   -4.2908 H   0  0  0  0  0  0  0  0  0  0  0  0
    1.3864    0.3533   -3.6161 H   0  0  0  0  0  0  0  0  0  0  0  0
    2.9422   -0.7649   -1.5309 H   0  0  0  0  0  0  0  0  0  0  0  0
    4.8997   -1.1640   -0.9003 H   0  0  0  0  0  0  0  0  0  0  0  0
    6.8448   -2.8994    1.5873 H   0  0  0  0  0  0  0  0  0  0  0  0
    6.4306   -2.7626   -0.1245 H   0  0  0  0  0  0  0  0  0  0  0  0
    5.2989   -2.1670    1.1492 H   0  0  0  0  0  0  0  0  0  0  0  0
    8.1550    1.2518    0.5251 H   0  0  0  0  0  0  0  0  0  0  0  0
    6.5880    4.7100   -2.2663 H   0  0  0  0  0  0  0  0  0  0  0  0
    7.6264    5.5375   -1.1414 H   0  0  0  0  0  0  0  0  0  0  0  0
    4.9947    4.2590   -0.2957 H   0  0  0  0  0  0  0  0  0  0  0  0
    5.3331    5.9414   -0.6606 H   0  0  0  0  0  0  0  0  0  0  0  0
    6.3175    4.4262    1.6082 H   0  0  0  0  0  0  0  0  0  0  0  0
    5.3276    5.7178    1.5916 H   0  0  0  0  0  0  0  0  0  0  0  0
    9.4840    4.7846    0.2165 H   0  0  0  0  0  0  0  0  0  0  0  0
   11.2797    6.0126   -0.8695 H   0  0  0  0  0  0  0  0  0  0  0  0
   13.3367    6.2388   -4.7482 H   0  0  0  0  0  0  0  0  0  0  0  0
   14.8539    2.5455   -5.2607 H   0  0  0  0  0  0  0  0  0  0  0  0
   15.4413    3.4599   -9.6756 H   0  0  0  0  0  0  0  0  0  0  0  0
   15.0026    5.2018   -9.6353 H   0  0  0  0  0  0  0  0  0  0  0  0
   13.7349    3.9491   -9.8475 H   0  0  0  0  0  0  0  0  0  0  0  0
   12.9350    5.5615   -7.6539 H   0  0  0  0  0  0  0  0  0  0  0  0
    9.0262    2.4089   -3.3450 H   0  0  0  0  0  0  0  0  0  0  0  0
    5.4745    2.7826   -2.4696 H   0  0  0  0  0  0  0  0  0  0  0  0
  1  2  1  0  0  0  0
  1 33  1  0  0  0  0
  1 34  1  0  0  0  0
  1 35  1  0  0  0  0
  2  3  1  0  0  0  0
  2 36  1  0  0  0  0
  3  4  2  0  0  0  0
  3  5  1  0  0  0  0
  5  6  1  0  0  0  0
  5 32  2  0  0  0  0
  6  7  2  0  0  0  0
  6 37  1  0  0  0  0
  7  8  1  0  0  0  0
  7 10  1  0  0  0  0
  8  9  1  0  0  0  0
  9 38  1  0  0  0  0
  9 39  1  0  0  0  0
  9 40  1  0  0  0  0
 10 11  2  0  0  0  0
 10 41  1  0  0  0  0
 11 12  1  0  0  0  0
 11 32  1  0  0  0  0
 12 13  1  0  0  0  0
 12 16  1  0  0  0  0
 13 14  1  0  0  0  0
 13 42  1  0  0  0  0
 13 43  1  0  0  0  0
 14 15  1  0  0  0  0
 14 44  1  0  0  0  0
 14 45  1  0  0  0  0
 15 46  1  0  0  0  0
 15 47  1  0  0  0  0
 16 17  1  0  0  0  0
 16 31  2  0  0  0  0
 17 18  2  0  0  0  0
 17 48  1  0  0  0  0
 18 19  1  0  0  0  0
 18 49  1  0  0  0  0
 19 20  1  0  0  0  0
 19 30  2  0  0  0  0
 20 21  2  0  0  0  0
 21 22  1  0  0  0  0
 21 50  1  0  0  0  0
 22 23  1  0  0  0  0
 22 29  2  0  0  0  0
 23 24  1  0  0  0  0
 23 28  2  0  0  0  0
 24 25  2  0  0  0  0
 24 51  1  0  0  0  0
 25 26  1  0  0  0  0
 26 27  1  0  0  0  0
 26 28  1  0  0  0  0
 27 52  1  0  0  0  0
 27 53  1  0  0  0  0
 27 54  1  0  0  0  0
 28 55  1  0  0  0  0
 29 30  1  0  0  0  0
 30 31  1  0  0  0  0
 31 56  1  0  0  0  0
 32 57  1  0  0  0  0
M  END
$$$$
