CHEMBL3916567
 OpenBabel04072215373D

 56 59  0  0  1  0  0  0  0  0999 V2000
    3.1546    0.3888   -1.1827 C   0  0  0  0  0  0  0  0  0  0  0  0
    2.4341   -0.4652   -0.2828 O   0  0  0  0  0  0  0  0  0  0  0  0
    3.1829   -1.0202    0.7226 C   0  0  0  0  0  0  0  0  0  0  0  0
    4.2583   -0.3458    1.3094 C   0  0  0  0  0  0  0  0  0  0  0  0
    5.0831   -0.9891    2.2651 C   0  0  0  0  0  0  0  0  0  0  0  0
    6.2089   -0.4314    2.8809 C   0  0  0  0  0  0  0  0  0  0  0  0
    6.5671    0.9144    2.6026 N   0  0  0  0  0  0  0  0  0  0  0  0
    7.8586    1.4238    2.8497 C   0  0  0  0  0  0  0  0  0  0  0  0
    8.9879    0.7198    2.4019 C   0  0  0  0  0  0  0  0  0  0  0  0
   10.2732    1.1534    2.7156 C   0  0  0  0  0  0  0  0  0  0  0  0
   10.4468    2.3073    3.4787 C   0  0  0  0  0  0  0  0  0  0  0  0
   12.0610    2.7585    3.8879 Cl  0  0  0  0  0  0  0  0  0  0  0  0
    9.3298    3.0420    3.8935 C   0  0  0  0  0  0  0  0  0  0  0  0
    9.4707    4.4866    4.8321 Cl  0  0  0  0  0  0  0  0  0  0  0  0
    8.0405    2.6028    3.5706 C   0  0  0  0  0  0  0  0  0  0  0  0
    6.9859   -1.1333    3.7309 N   0  0  0  0  0  0  0  0  0  0  0  0
    6.6331   -2.3936    3.9812 C   0  0  0  0  0  0  0  0  0  0  0  0
    5.5734   -3.0158    3.4699 N   0  0  0  0  0  0  0  0  0  0  0  0
    4.8208   -2.3098    2.6265 C   0  0  0  0  0  0  0  0  0  0  0  0
    3.7194   -2.9353    2.0895 C   0  0  0  0  0  0  0  0  0  0  0  0
    2.8488   -2.2977    1.1929 C   0  0  0  0  0  0  0  0  0  0  0  0
    1.6833   -2.9008    0.7706 O   0  0  0  0  0  0  0  0  0  0  0  0
    1.2193   -3.9251    1.6670 C   0  0  0  0  0  0  0  0  0  0  0  0
   -0.2508   -4.2759    1.4629 C   0  0  3  0  0  0  0  0  0  0  0  0
   -1.1193   -3.0178    1.6165 C   0  0  0  0  0  0  0  0  0  0  0  0
   -2.5775   -3.2803    1.5226 N   0  0  0  0  0  0  0  0  0  0  0  0
   -2.9933   -3.7267    0.1604 C   0  0  0  0  0  0  0  0  0  0  0  0
   -2.6591   -2.7064   -0.9302 C   0  0  0  0  0  0  0  0  0  0  0  0
   -2.7912   -1.3933   -0.5817 N   0  0  0  0  0  0  0  0  0  0  0  0
   -2.3377   -3.0300   -2.0695 O   0  0  0  0  0  0  0  0  0  0  0  0
   -2.8927   -4.3464    2.5122 C   0  0  0  0  0  0  0  0  0  0  0  0
   -1.9873   -5.5921    2.4190 C   0  0  0  0  0  0  0  0  0  0  0  0
   -0.5988   -5.2495    2.4693 O   0  0  0  0  0  0  0  0  0  0  0  0
    2.8159    0.1824   -2.2024 H   0  0  0  0  0  0  0  0  0  0  0  0
    4.2414    0.2344   -1.1762 H   0  0  0  0  0  0  0  0  0  0  0  0
    2.9306    1.4351   -0.9495 H   0  0  0  0  0  0  0  0  0  0  0  0
    4.4867    0.6761    1.0202 H   0  0  0  0  0  0  0  0  0  0  0  0
    5.8229    1.5286    2.9184 H   0  0  0  0  0  0  0  0  0  0  0  0
    8.8606   -0.1932    1.8215 H   0  0  0  0  0  0  0  0  0  0  0  0
   11.1260    0.5704    2.3791 H   0  0  0  0  0  0  0  0  0  0  0  0
    7.1834    3.1676    3.9196 H   0  0  0  0  0  0  0  0  0  0  0  0
    7.2610   -2.9608    4.6588 H   0  0  0  0  0  0  0  0  0  0  0  0
    3.5550   -3.9604    2.4047 H   0  0  0  0  0  0  0  0  0  0  0  0
    1.3347   -3.6116    2.7133 H   0  0  0  0  0  0  0  0  0  0  0  0
    1.8091   -4.8374    1.5092 H   0  0  0  0  0  0  0  0  0  0  0  0
   -0.3733   -4.7219    0.4697 H   0  0  0  0  0  0  0  0  0  0  0  0
   -0.8144   -2.2490    0.9022 H   0  0  0  0  0  0  0  0  0  0  0  0
   -0.9441   -2.5804    2.6087 H   0  0  0  0  0  0  0  0  0  0  0  0
   -4.0808   -3.8626    0.1403 H   0  0  0  0  0  0  0  0  0  0  0  0
   -2.5305   -4.6764   -0.1259 H   0  0  0  0  0  0  0  0  0  0  0  0
   -2.8122   -1.1620    0.4051 H   0  0  0  0  0  0  0  0  0  0  0  0
   -2.4375   -0.7096   -1.2367 H   0  0  0  0  0  0  0  0  0  0  0  0
   -3.9458   -4.6420    2.4401 H   0  0  0  0  0  0  0  0  0  0  0  0
   -2.7684   -3.9081    3.5116 H   0  0  0  0  0  0  0  0  0  0  0  0
   -2.1769   -6.1695    1.5083 H   0  0  0  0  0  0  0  0  0  0  0  0
   -2.1891   -6.2546    3.2679 H   0  0  0  0  0  0  0  0  0  0  0  0
  1  2  1  0  0  0  0
  1 34  1  0  0  0  0
  1 35  1  0  0  0  0
  1 36  1  0  0  0  0
  2  3  1  0  0  0  0
  3  4  1  0  0  0  0
  3 21  2  0  0  0  0
  4  5  2  0  0  0  0
  4 37  1  0  0  0  0
  5  6  1  0  0  0  0
  5 19  1  0  0  0  0
  6  7  1  0  0  0  0
  6 16  2  0  0  0  0
  7  8  1  0  0  0  0
  7 38  1  0  0  0  0
  8  9  1  0  0  0  0
  8 15  2  0  0  0  0
  9 10  2  0  0  0  0
  9 39  1  0  0  0  0
 10 11  1  0  0  0  0
 10 40  1  0  0  0  0
 11 12  1  0  0  0  0
 11 13  2  0  0  0  0
 13 14  1  0  0  0  0
 13 15  1  0  0  0  0
 15 41  1  0  0  0  0
 16 17  1  0  0  0  0
 17 18  2  0  0  0  0
 17 42  1  0  0  0  0
 18 19  1  0  0  0  0
 19 20  2  0  0  0  0
 20 21  1  0  0  0  0
 20 43  1  0  0  0  0
 21 22  1  0  0  0  0
 22 23  1  0  0  0  0
 23 24  1  0  0  0  0
 23 44  1  0  0  0  0
 23 45  1  0  0  0  0
 24 25  1  0  0  0  0
 24 33  1  0  0  0  0
 24 46  1  0  0  0  0
 25 26  1  0  0  0  0
 25 47  1  0  0  0  0
 25 48  1  0  0  0  0
 26 27  1  0  0  0  0
 26 31  1  0  0  0  0
 27 28  1  0  0  0  0
 27 49  1  0  0  0  0
 27 50  1  0  0  0  0
 28 29  1  0  0  0  0
 28 30  2  0  0  0  0
 29 51  1  0  0  0  0
 29 52  1  0  0  0  0
 31 32  1  0  0  0  0
 31 53  1  0  0  0  0
 31 54  1  0  0  0  0
 32 33  1  0  0  0  0
 32 55  1  0  0  0  0
 32 56  1  0  0  0  0
M  END
$$$$
