CHEMBL3648073
 OpenBabel04072215373D

 43 44  0  0  1  0  0  0  0  0999 V2000
    2.1711   -0.3586   -0.2308 C   0  0  0  0  0  0  0  0  0  0  0  0
    3.5173    0.2795   -0.5673 C   0  0  2  0  0  0  0  0  0  0  0  0
    4.4240   -0.7726   -0.9163 O   0  0  0  0  0  0  0  0  0  0  0  0
    4.1279    1.1467    0.5658 C   0  0  1  0  0  0  0  0  0  0  0  0
    3.1922    2.3080    0.9100 C   0  0  0  0  0  0  0  0  0  0  0  0
    4.3287    0.2965    1.7070 O   0  0  0  0  0  0  0  0  0  0  0  0
    5.0437    0.8449    2.7580 C   0  0  0  0  0  0  0  0  0  0  0  0
    5.8657    1.8988    2.5275 N   0  0  0  0  0  0  0  0  0  0  0  0
    6.5442    2.3690    3.5861 C   0  0  0  0  0  0  0  0  0  0  0  0
    7.4801    3.3887    3.3853 N   0  0  0  0  0  0  0  0  0  0  0  0
    8.6452    3.6144    4.1451 C   0  0  0  0  0  0  0  0  0  0  0  0
    9.2690    2.5736    4.8558 C   0  0  0  0  0  0  0  0  0  0  0  0
   10.3273    2.8169    5.7332 C   0  0  0  0  0  0  0  0  0  0  0  0
   10.7786    4.1243    5.9040 C   0  0  0  0  0  0  0  0  0  0  0  0
   12.0093    4.4433    7.1579 S   0  0  3  0  0  0  0  0  0  0  0  0
   13.3535    5.1670    6.2567 C   0  0  0  0  0  0  0  0  0  0  0  0
   11.3894    5.5198    8.0706 N   0  0  0  0  0  0  0  0  0  0  0  0
   12.5040    3.1609    7.6251 O   0  0  0  0  0  0  0  0  0  0  0  0
   10.2145    5.1713    5.1697 C   0  0  0  0  0  0  0  0  0  0  0  0
    9.1569    4.9099    4.2854 C   0  0  0  0  0  0  0  0  0  0  0  0
    6.3778    1.8985    4.8354 N   0  0  0  0  0  0  0  0  0  0  0  0
    5.5617    0.8482    5.0171 C   0  0  0  0  0  0  0  0  0  0  0  0
    4.8851    0.2470    3.9927 C   0  0  0  0  0  0  0  0  0  0  0  0
    3.8289   -1.2780    4.3083 Br  0  0  0  0  0  0  0  0  0  0  0  0
    1.4052    0.3921   -0.0173 H   0  0  0  0  0  0  0  0  0  0  0  0
    2.2504   -1.0364    0.6255 H   0  0  0  0  0  0  0  0  0  0  0  0
    1.8210   -0.9642   -1.0748 H   0  0  0  0  0  0  0  0  0  0  0  0
    3.3964    0.8989   -1.4631 H   0  0  0  0  0  0  0  0  0  0  0  0
    4.5603   -1.3031   -0.1098 H   0  0  0  0  0  0  0  0  0  0  0  0
    5.0979    1.5135    0.2064 H   0  0  0  0  0  0  0  0  0  0  0  0
    2.3121    1.9580    1.4605 H   0  0  0  0  0  0  0  0  0  0  0  0
    2.8650    2.8346    0.0087 H   0  0  0  0  0  0  0  0  0  0  0  0
    3.6877    3.0370    1.5581 H   0  0  0  0  0  0  0  0  0  0  0  0
    7.4955    3.7115    2.4299 H   0  0  0  0  0  0  0  0  0  0  0  0
    8.9167    1.5503    4.7552 H   0  0  0  0  0  0  0  0  0  0  0  0
   10.7489    1.9931    6.2999 H   0  0  0  0  0  0  0  0  0  0  0  0
   13.0289    6.1002    5.7886 H   0  0  0  0  0  0  0  0  0  0  0  0
   13.6942    4.4537    5.5036 H   0  0  0  0  0  0  0  0  0  0  0  0
   14.1620    5.3623    6.9645 H   0  0  0  0  0  0  0  0  0  0  0  0
   11.5097    6.4707    7.7279 H   0  0  0  0  0  0  0  0  0  0  0  0
   10.5374    6.1975    5.3169 H   0  0  0  0  0  0  0  0  0  0  0  0
    8.6840    5.7405    3.7651 H   0  0  0  0  0  0  0  0  0  0  0  0
    5.4893    0.5036    6.0438 H   0  0  0  0  0  0  0  0  0  0  0  0
  1 25  1  0  0  0  0
  1 26  1  0  0  0  0
  1 27  1  0  0  0  0
  2  4  1  0  0  0  0
  2  3  1  0  0  0  0
  2  1  1  0  0  0  0
  2 28  1  6  0  0  0
  3 29  1  0  0  0  0
  4  5  1  0  0  0  0
  4  6  1  0  0  0  0
  4 30  1  6  0  0  0
  5 31  1  0  0  0  0
  5 32  1  0  0  0  0
  5 33  1  0  0  0  0
  6  7  1  0  0  0  0
  7  8  1  0  0  0  0
  7 23  2  0  0  0  0
  8  9  2  0  0  0  0
  9 10  1  0  0  0  0
  9 21  1  0  0  0  0
 10 11  1  0  0  0  0
 10 34  1  0  0  0  0
 11 12  1  0  0  0  0
 11 20  2  0  0  0  0
 12 13  2  0  0  0  0
 12 35  1  0  0  0  0
 13 14  1  0  0  0  0
 13 36  1  0  0  0  0
 14 15  1  0  0  0  0
 14 19  2  0  0  0  0
 15 16  1  0  0  0  0
 15 17  2  0  0  0  0
 15 18  2  0  0  0  0
 16 37  1  0  0  0  0
 16 38  1  0  0  0  0
 16 39  1  0  0  0  0
 17 40  1  0  0  0  0
 19 20  1  0  0  0  0
 19 41  1  0  0  0  0
 20 42  1  0  0  0  0
 21 22  2  0  0  0  0
 22 23  1  0  0  0  0
 22 43  1  0  0  0  0
 23 24  1  0  0  0  0
M  END
$$$$
