CHEMBL2204528
 OpenBabel04072215363D

 59 62  0  0  0  0  0  0  0  0999 V2000
    1.2282    2.4888    1.5832 C   0  0  0  0  0  0  0  0  0  0  0  0
    2.6452    2.2459    1.1372 C   0  0  0  0  0  0  0  0  0  0  0  0
    2.8996    2.0435   -0.0450 O   0  0  0  0  0  0  0  0  0  0  0  0
    3.5343    2.2526    2.1917 N   0  0  0  0  0  0  0  0  0  0  0  0
    4.8698    2.0437    1.9823 C   0  0  0  0  0  0  0  0  0  0  0  0
    5.5319    2.1272    0.8591 N   0  0  0  0  0  0  0  0  0  0  0  0
    6.8298    1.7256    1.0804 C   0  0  0  0  0  0  0  0  0  0  0  0
    7.8765    1.6319    0.1810 C   0  0  0  0  0  0  0  0  0  0  0  0
    9.0648    1.1531    0.5982 N   0  0  0  0  0  0  0  0  0  0  0  0
    9.2271    0.7571    1.8808 C   0  0  0  0  0  0  0  0  0  0  0  0
   10.4498    0.1811    2.2257 N   0  0  0  0  0  0  0  0  0  0  0  0
   11.7081    0.4497    1.6604 C   0  0  0  0  0  0  0  0  0  0  0  0
   11.9736    1.7196    1.1220 C   0  0  0  0  0  0  0  0  0  0  0  0
   13.1576    2.0256    0.4518 C   0  0  0  0  0  0  0  0  0  0  0  0
   13.4197    3.3177   -0.0654 N   0  0  0  0  0  0  0  0  0  0  0  0
   12.7608    4.4712    0.3424 C   0  0  0  0  0  0  0  0  0  0  0  0
   11.9373    4.5464    1.2454 O   0  0  0  0  0  0  0  0  0  0  0  0
   13.1206    5.7436   -0.3345 C   0  0  0  0  0  0  0  0  0  0  0  0
   13.6024    5.7967   -1.6427 C   0  0  0  0  0  0  0  0  0  0  0  0
   13.7917    7.0380   -2.2457 C   0  0  0  0  0  0  0  0  0  0  0  0
   13.5105    8.2184   -1.5484 C   0  0  0  0  0  0  0  0  0  0  0  0
   13.0645    8.1828   -0.2281 C   0  0  0  0  0  0  0  0  0  0  0  0
   12.7462    9.2550    0.5614 O   0  0  0  0  0  0  0  0  0  0  0  0
   13.3537   10.5555    0.3417 C   0  0  0  0  0  0  0  0  0  0  0  0
   12.8361   11.4797    1.4610 C   0  0  0  0  0  0  0  0  0  0  0  0
   14.8844   10.4527    0.4225 C   0  0  0  0  0  0  0  0  0  0  0  0
   12.9233   11.1857   -0.9224 C   0  0  0  0  0  0  0  0  0  0  0  0
   12.6129   11.7019   -1.9185 N   0  0  0  0  0  0  0  0  0  0  0  0
   12.8608    6.9382    0.3648 C   0  0  0  0  0  0  0  0  0  0  0  0
   14.0961    1.0129    0.2756 C   0  0  0  0  0  0  0  0  0  0  0  0
   13.8674   -0.2590    0.8200 C   0  0  0  0  0  0  0  0  0  0  0  0
   12.6811   -0.5505    1.5191 C   0  0  0  0  0  0  0  0  0  0  0  0
   12.4471   -1.9352    2.0532 C   0  0  0  0  0  0  0  0  0  0  0  0
    8.2797    0.8166    2.8306 N   0  0  0  0  0  0  0  0  0  0  0  0
    7.1223    1.3332    2.3778 C   0  0  0  0  0  0  0  0  0  0  0  0
    5.7566    1.5952    3.3737 S   0  0  0  0  0  0  0  0  0  0  0  0
    0.5515    2.3339    0.7371 H   0  0  0  0  0  0  0  0  0  0  0  0
    1.1244    3.5177    1.9362 H   0  0  0  0  0  0  0  0  0  0  0  0
    0.9551    1.7879    2.3766 H   0  0  0  0  0  0  0  0  0  0  0  0
    3.2058    2.2410    3.1452 H   0  0  0  0  0  0  0  0  0  0  0  0
    7.7903    1.9080   -0.8619 H   0  0  0  0  0  0  0  0  0  0  0  0
   10.4098   -0.3652    3.0693 H   0  0  0  0  0  0  0  0  0  0  0  0
   11.2044    2.4774    1.2277 H   0  0  0  0  0  0  0  0  0  0  0  0
   14.2238    3.4074   -0.6696 H   0  0  0  0  0  0  0  0  0  0  0  0
   13.7785    4.8989   -2.2272 H   0  0  0  0  0  0  0  0  0  0  0  0
   14.1262    7.0975   -3.2794 H   0  0  0  0  0  0  0  0  0  0  0  0
   13.6313    9.1423   -2.1012 H   0  0  0  0  0  0  0  0  0  0  0  0
   13.0404   11.0847    2.4607 H   0  0  0  0  0  0  0  0  0  0  0  0
   11.7462   11.6019    1.3873 H   0  0  0  0  0  0  0  0  0  0  0  0
   13.2769   12.4824    1.3823 H   0  0  0  0  0  0  0  0  0  0  0  0
   15.2021    9.8904    1.3075 H   0  0  0  0  0  0  0  0  0  0  0  0
   15.3566   11.4402    0.4382 H   0  0  0  0  0  0  0  0  0  0  0  0
   15.2980    9.9245   -0.4445 H   0  0  0  0  0  0  0  0  0  0  0  0
   12.4793    6.8907    1.3849 H   0  0  0  0  0  0  0  0  0  0  0  0
   15.0238    1.1964   -0.2584 H   0  0  0  0  0  0  0  0  0  0  0  0
   14.6215   -1.0312    0.6828 H   0  0  0  0  0  0  0  0  0  0  0  0
   13.2823   -2.6040    1.8225 H   0  0  0  0  0  0  0  0  0  0  0  0
   11.5448   -2.3656    1.6063 H   0  0  0  0  0  0  0  0  0  0  0  0
   12.3337   -1.9058    3.1418 H   0  0  0  0  0  0  0  0  0  0  0  0
  1  2  1  0  0  0  0
  1 37  1  0  0  0  0
  1 38  1  0  0  0  0
  1 39  1  0  0  0  0
  2  3  2  0  0  0  0
  2  4  1  0  0  0  0
  4  5  1  0  0  0  0
  4 40  1  0  0  0  0
  5  6  2  0  0  0  0
  5 36  1  0  0  0  0
  6  7  1  0  0  0  0
  7  8  1  0  0  0  0
  7 35  2  0  0  0  0
  8  9  2  0  0  0  0
  8 41  1  0  0  0  0
  9 10  1  0  0  0  0
 10 11  1  0  0  0  0
 10 34  2  0  0  0  0
 11 12  1  0  0  0  0
 11 42  1  0  0  0  0
 12 13  1  0  0  0  0
 12 32  2  0  0  0  0
 13 14  2  0  0  0  0
 13 43  1  0  0  0  0
 14 15  1  0  0  0  0
 14 30  1  0  0  0  0
 15 16  1  0  0  0  0
 15 44  1  0  0  0  0
 16 17  2  0  0  0  0
 16 18  1  0  0  0  0
 18 19  1  0  0  0  0
 18 29  2  0  0  0  0
 19 20  2  0  0  0  0
 19 45  1  0  0  0  0
 20 21  1  0  0  0  0
 20 46  1  0  0  0  0
 21 22  2  0  0  0  0
 21 47  1  0  0  0  0
 22 23  1  0  0  0  0
 22 29  1  0  0  0  0
 23 24  1  0  0  0  0
 24 25  1  0  0  0  0
 24 26  1  0  0  0  0
 24 27  1  0  0  0  0
 25 48  1  0  0  0  0
 25 49  1  0  0  0  0
 25 50  1  0  0  0  0
 26 51  1  0  0  0  0
 26 52  1  0  0  0  0
 26 53  1  0  0  0  0
 27 28  3  0  0  0  0
 29 54  1  0  0  0  0
 30 31  2  0  0  0  0
 30 55  1  0  0  0  0
 31 32  1  0  0  0  0
 31 56  1  0  0  0  0
 32 33  1  0  0  0  0
 33 57  1  0  0  0  0
 33 58  1  0  0  0  0
 33 59  1  0  0  0  0
 34 35  1  0  0  0  0
 35 36  1  0  0  0  0
M  END
$$$$
