CHEMBL1276890
 OpenBabel04072215363D

 55 59  0  0  0  0  0  0  0  0999 V2000
    0.8745   -0.0255    0.0554 C   0  0  0  0  0  0  0  0  0  0  0  0
    2.3659    0.0268    0.0550 C   0  0  0  0  0  0  0  0  0  0  0  0
    3.1807    1.1558    0.0839 C   0  0  0  0  0  0  0  0  0  0  0  0
    2.8372    2.5303    0.0990 C   0  0  0  0  0  0  0  0  0  0  0  0
    3.6239    3.6138    0.1079 C   0  0  0  0  0  0  0  0  0  0  0  0
    5.1210    3.7861    0.1211 C   0  0  0  0  0  0  0  0  0  0  0  0
    5.9754    2.9216    0.1295 O   0  0  0  0  0  0  0  0  0  0  0  0
    5.3288    5.1587    0.1286 N   0  0  0  0  0  0  0  0  0  0  0  0
    4.1231    5.8586    0.1202 C   0  0  0  0  0  0  0  0  0  0  0  0
    3.9467    7.2220    0.1249 C   0  0  0  0  0  0  0  0  0  0  0  0
    2.6307    7.7067    0.1063 C   0  0  0  0  0  0  0  0  0  0  0  0
    1.5513    6.8145    0.0911 C   0  0  0  0  0  0  0  0  0  0  0  0
    0.3014    7.2962    0.0736 F   0  0  0  0  0  0  0  0  0  0  0  0
    1.7437    5.4374    0.0895 C   0  0  0  0  0  0  0  0  0  0  0  0
    3.0460    4.9706    0.1087 C   0  0  0  0  0  0  0  0  0  0  0  0
    4.4860    0.7254    0.0859 N   0  0  0  0  0  0  0  0  0  0  0  0
    4.5150   -0.6386    0.0420 C   0  0  0  0  0  0  0  0  0  0  0  0
    3.2259   -1.1116    0.0072 C   0  0  0  0  0  0  0  0  0  0  0  0
    2.9110   -2.5288   -0.0763 C   0  0  0  0  0  0  0  0  0  0  0  0
    1.7522   -2.9348   -0.1161 O   0  0  0  0  0  0  0  0  0  0  0  0
    4.0166   -3.3839   -0.1187 N   0  0  0  0  0  0  0  0  0  0  0  0
    3.7502   -4.8168   -0.0857 C   0  0  0  0  0  0  0  0  0  0  0  0
    3.4807   -5.4371   -1.4720 C   0  0  0  0  0  0  0  0  0  0  0  0
    3.3108   -6.8839   -1.3491 N   0  0  0  0  0  0  0  0  0  0  0  0
    2.0768   -7.3114   -0.6898 C   0  0  0  0  0  0  0  0  0  0  0  0
    2.2601   -8.8116   -0.8065 C   0  0  0  0  0  0  0  0  0  0  0  0
    2.7303   -8.9787   -2.2463 C   0  0  0  0  0  0  0  0  0  0  0  0
    3.3593   -7.6287   -2.6066 C   0  0  0  0  0  0  0  0  0  0  0  0
    5.4134   -2.9564    0.0764 C   0  0  0  0  0  0  0  0  0  0  0  0
    5.7424   -1.4534    0.0069 C   0  0  0  0  0  0  0  0  0  0  0  0
    0.4215    0.9695    0.0604 H   0  0  0  0  0  0  0  0  0  0  0  0
    0.5146   -0.5540    0.9440 H   0  0  0  0  0  0  0  0  0  0  0  0
    0.5097   -0.5464   -0.8354 H   0  0  0  0  0  0  0  0  0  0  0  0
    1.7645    2.7031    0.0912 H   0  0  0  0  0  0  0  0  0  0  0  0
    6.2481    5.5746    0.1379 H   0  0  0  0  0  0  0  0  0  0  0  0
    4.7845    7.9146    0.1309 H   0  0  0  0  0  0  0  0  0  0  0  0
    2.4287    8.7739    0.1044 H   0  0  0  0  0  0  0  0  0  0  0  0
    0.8819    4.7751    0.0743 H   0  0  0  0  0  0  0  0  0  0  0  0
    5.3069    1.3250    0.1028 H   0  0  0  0  0  0  0  0  0  0  0  0
    2.8908   -4.9816    0.5741 H   0  0  0  0  0  0  0  0  0  0  0  0
    4.6053   -5.3176    0.3866 H   0  0  0  0  0  0  0  0  0  0  0  0
    4.3561   -5.2327   -2.1027 H   0  0  0  0  0  0  0  0  0  0  0  0
    2.6222   -4.9608   -1.9618 H   0  0  0  0  0  0  0  0  0  0  0  0
    1.1795   -6.9796   -1.2297 H   0  0  0  0  0  0  0  0  0  0  0  0
    2.0020   -7.0037    0.3558 H   0  0  0  0  0  0  0  0  0  0  0  0
    1.3548   -9.3804   -0.5815 H   0  0  0  0  0  0  0  0  0  0  0  0
    3.0493   -9.1443   -0.1174 H   0  0  0  0  0  0  0  0  0  0  0  0
    1.8730   -9.1838   -2.8978 H   0  0  0  0  0  0  0  0  0  0  0  0
    3.4383   -9.8082   -2.3375 H   0  0  0  0  0  0  0  0  0  0  0  0
    2.7794   -7.1489   -3.4048 H   0  0  0  0  0  0  0  0  0  0  0  0
    4.3907   -7.7540   -2.9503 H   0  0  0  0  0  0  0  0  0  0  0  0
    6.0232   -3.4861   -0.6658 H   0  0  0  0  0  0  0  0  0  0  0  0
    5.7174   -3.3332    1.0615 H   0  0  0  0  0  0  0  0  0  0  0  0
    6.3023   -1.2381   -0.9106 H   0  0  0  0  0  0  0  0  0  0  0  0
    6.3979   -1.1894    0.8458 H   0  0  0  0  0  0  0  0  0  0  0  0
  1  2  1  0  0  0  0
  1 31  1  0  0  0  0
  1 32  1  0  0  0  0
  1 33  1  0  0  0  0
  2  3  2  0  0  0  0
  2 18  1  0  0  0  0
  3  4  1  0  0  0  0
  3 16  1  0  0  0  0
  4  5  2  0  0  0  0
  4 34  1  0  0  0  0
  5  6  1  0  0  0  0
  5 15  1  0  0  0  0
  6  7  2  0  0  0  0
  6  8  1  0  0  0  0
  8  9  1  0  0  0  0
  8 35  1  0  0  0  0
  9 10  1  0  0  0  0
  9 15  2  0  0  0  0
 10 11  2  0  0  0  0
 10 36  1  0  0  0  0
 11 12  1  0  0  0  0
 11 37  1  0  0  0  0
 12 13  1  0  0  0  0
 12 14  2  0  0  0  0
 14 15  1  0  0  0  0
 14 38  1  0  0  0  0
 16 17  1  0  0  0  0
 16 39  1  0  0  0  0
 17 18  2  0  0  0  0
 17 30  1  0  0  0  0
 18 19  1  0  0  0  0
 19 20  2  0  0  0  0
 19 21  1  0  0  0  0
 21 22  1  0  0  0  0
 21 29  1  0  0  0  0
 22 23  1  0  0  0  0
 22 40  1  0  0  0  0
 22 41  1  0  0  0  0
 23 24  1  0  0  0  0
 23 42  1  0  0  0  0
 23 43  1  0  0  0  0
 24 25  1  0  0  0  0
 24 28  1  0  0  0  0
 25 26  1  0  0  0  0
 25 44  1  0  0  0  0
 25 45  1  0  0  0  0
 26 27  1  0  0  0  0
 26 46  1  0  0  0  0
 26 47  1  0  0  0  0
 27 28  1  0  0  0  0
 27 48  1  0  0  0  0
 27 49  1  0  0  0  0
 28 50  1  0  0  0  0
 28 51  1  0  0  0  0
 29 30  1  0  0  0  0
 29 52  1  0  0  0  0
 29 53  1  0  0  0  0
 30 54  1  0  0  0  0
 30 55  1  0  0  0  0
M  END
$$$$
