CHEMBL1097189
 OpenBabel04072215363D

 67 70  0  0  1  0  0  0  0  0999 V2000
   -0.9200   -0.1443    1.6970 Cl  0  0  0  0  0  0  0  0  0  0  0  0
    1.2607   -0.1436   -0.5705 N   0  0  0  0  0  0  0  0  0  0  0  0
    2.7020   -0.1082   -0.3459 C   0  0  3  0  0  0  0  0  0  0  0  0
    3.1548   -1.2676    0.5641 C   0  0  0  0  0  0  0  0  0  0  0  0
    4.6995   -1.3335    0.6296 C   0  0  0  0  0  0  0  0  0  0  0  0
    5.3028    0.0376    0.7766 C   0  0  0  0  0  0  0  0  0  0  0  0
    4.5589    1.2018    0.6550 C   0  0  0  0  0  0  0  0  0  0  0  0
    5.4273    2.2439    0.8636 C   0  0  0  0  0  0  0  0  0  0  0  0
    5.2148    3.6244    0.8695 C   0  0  0  0  0  0  0  0  0  0  0  0
    6.3210    4.4703    1.0822 C   0  0  0  0  0  0  0  0  0  0  0  0
    6.1275    5.8194    1.1066 O   0  0  0  0  0  0  0  0  0  0  0  0
    7.1508    6.7287    1.2986 C   0  0  0  0  0  0  0  0  0  0  0  0
    6.6424    8.1752    1.3059 C   0  0  0  0  0  0  0  0  0  0  0  0
    7.8170    9.1171    1.4632 C   0  0  0  0  0  0  0  0  0  0  0  0
    8.1316   10.0401    0.4508 C   0  0  0  0  0  0  0  0  0  0  0  0
    9.2414   10.8819    0.5787 C   0  0  0  0  0  0  0  0  0  0  0  0
   10.0514   10.8125    1.7230 C   0  0  0  0  0  0  0  0  0  0  0  0
   11.1332   11.6065    1.8533 O   0  0  0  0  0  0  0  0  0  0  0  0
    9.7365    9.9059    2.7392 C   0  0  0  0  0  0  0  0  0  0  0  0
    8.6266    9.0659    2.6145 C   0  0  0  0  0  0  0  0  0  0  0  0
    7.6108    3.8895    1.2643 C   0  0  0  0  0  0  0  0  0  0  0  0
    7.7939    2.4986    1.2474 C   0  0  0  0  0  0  0  0  0  0  0  0
    6.6746    1.6871    1.0580 C   0  0  0  0  0  0  0  0  0  0  0  0
    6.6097    0.3290    1.0142 N   0  0  0  0  0  0  0  0  0  0  0  0
    7.7020   -0.6429    1.1828 C   0  0  0  0  0  0  0  0  0  0  0  0
    8.3004   -0.5557    2.5941 C   0  0  0  0  0  0  0  0  0  0  0  0
    9.3923   -1.6090    2.8418 C   0  0  0  0  0  0  0  0  0  0  0  0
   10.0109   -1.4002    4.2058 C   0  0  0  0  0  0  0  0  0  0  0  0
    9.2248   -1.4922    5.3694 C   0  0  0  0  0  0  0  0  0  0  0  0
    9.7919   -1.2609    6.6261 C   0  0  0  0  0  0  0  0  0  0  0  0
   11.1475   -0.9433    6.7355 C   0  0  0  0  0  0  0  0  0  0  0  0
   11.9406   -0.8623    5.5883 C   0  0  0  0  0  0  0  0  0  0  0  0
   11.3776   -1.0893    4.3280 C   0  0  0  0  0  0  0  0  0  0  0  0
    3.1048    1.2395    0.3041 C   0  0  0  0  0  0  0  0  0  0  0  0
    0.4319   -0.1976    1.9472 H   0  0  0  0  0  0  0  0  0  0  0  0
    1.0197   -1.0240   -1.0808 H   0  0  0  0  0  0  0  0  0  0  0  0
    0.9918    0.6564   -1.1887 H   0  0  0  0  0  0  0  0  0  0  0  0
    3.2176   -0.2170   -1.3283 H   0  0  0  0  0  0  0  0  0  0  0  0
    2.7740   -2.2497    0.2075 H   0  0  0  0  0  0  0  0  0  0  0  0
    2.7400   -1.0881    1.5803 H   0  0  0  0  0  0  0  0  0  0  0  0
    5.1073   -1.7719   -0.3056 H   0  0  0  0  0  0  0  0  0  0  0  0
    4.9744   -1.9910    1.4841 H   0  0  0  0  0  0  0  0  0  0  0  0
    4.2241    4.0327    0.7151 H   0  0  0  0  0  0  0  0  0  0  0  0
    7.8903    6.6207    0.4744 H   0  0  0  0  0  0  0  0  0  0  0  0
    7.6404    6.5162    2.2708 H   0  0  0  0  0  0  0  0  0  0  0  0
    5.9215    8.3269    2.1378 H   0  0  0  0  0  0  0  0  0  0  0  0
    6.1134    8.3708    0.3474 H   0  0  0  0  0  0  0  0  0  0  0  0
    7.5259   10.1017   -0.4450 H   0  0  0  0  0  0  0  0  0  0  0  0
    9.4759   11.5812   -0.2121 H   0  0  0  0  0  0  0  0  0  0  0  0
   11.3941   12.2367    1.1667 H   0  0  0  0  0  0  0  0  0  0  0  0
   10.3575    9.8457    3.6249 H   0  0  0  0  0  0  0  0  0  0  0  0
    8.4079    8.3685    3.4127 H   0  0  0  0  0  0  0  0  0  0  0  0
    8.4858    4.5062    1.4163 H   0  0  0  0  0  0  0  0  0  0  0  0
    8.7858    2.0944    1.3725 H   0  0  0  0  0  0  0  0  0  0  0  0
    8.4848   -0.4628    0.4142 H   0  0  0  0  0  0  0  0  0  0  0  0
    7.3180   -1.6745    1.0382 H   0  0  0  0  0  0  0  0  0  0  0  0
    7.4815   -0.6891    3.3324 H   0  0  0  0  0  0  0  0  0  0  0  0
    8.7491    0.4413    2.7542 H   0  0  0  0  0  0  0  0  0  0  0  0
   10.1716   -1.5118    2.0539 H   0  0  0  0  0  0  0  0  0  0  0  0
    8.9621   -2.6321    2.7752 H   0  0  0  0  0  0  0  0  0  0  0  0
    8.1718   -1.7334    5.3056 H   0  0  0  0  0  0  0  0  0  0  0  0
    9.1778   -1.3228    7.5152 H   0  0  0  0  0  0  0  0  0  0  0  0
   11.5830   -0.7596    7.7094 H   0  0  0  0  0  0  0  0  0  0  0  0
   12.9913   -0.6171    5.6756 H   0  0  0  0  0  0  0  0  0  0  0  0
   12.0072   -1.0138    3.4500 H   0  0  0  0  0  0  0  0  0  0  0  0
    2.9142    2.0450   -0.4367 H   0  0  0  0  0  0  0  0  0  0  0  0
    2.5227    1.4560    1.2269 H   0  0  0  0  0  0  0  0  0  0  0  0
  1 35  1  0  0  0  0
  2  3  1  0  0  0  0
  2 36  1  0  0  0  0
  2 37  1  0  0  0  0
  3  4  1  0  0  0  0
  3 34  1  0  0  0  0
  3 38  1  0  0  0  0
  4  5  1  0  0  0  0
  4 39  1  0  0  0  0
  4 40  1  0  0  0  0
  5  6  1  0  0  0  0
  5 41  1  0  0  0  0
  5 42  1  0  0  0  0
  6  7  2  0  0  0  0
  6 24  1  0  0  0  0
  7  8  1  0  0  0  0
  7 34  1  0  0  0  0
  8  9  1  0  0  0  0
  8 23  2  0  0  0  0
  9 10  2  0  0  0  0
  9 43  1  0  0  0  0
 10 11  1  0  0  0  0
 10 21  1  0  0  0  0
 11 12  1  0  0  0  0
 12 13  1  0  0  0  0
 12 44  1  0  0  0  0
 12 45  1  0  0  0  0
 13 14  1  0  0  0  0
 13 46  1  0  0  0  0
 13 47  1  0  0  0  0
 14 15  1  0  0  0  0
 14 20  2  0  0  0  0
 15 16  2  0  0  0  0
 15 48  1  0  0  0  0
 16 17  1  0  0  0  0
 16 49  1  0  0  0  0
 17 18  1  0  0  0  0
 17 19  2  0  0  0  0
 18 50  1  0  0  0  0
 19 20  1  0  0  0  0
 19 51  1  0  0  0  0
 20 52  1  0  0  0  0
 21 22  2  0  0  0  0
 21 53  1  0  0  0  0
 22 23  1  0  0  0  0
 22 54  1  0  0  0  0
 23 24  1  0  0  0  0
 24 25  1  0  0  0  0
 25 26  1  0  0  0  0
 25 55  1  0  0  0  0
 25 56  1  0  0  0  0
 26 27  1  0  0  0  0
 26 57  1  0  0  0  0
 26 58  1  0  0  0  0
 27 28  1  0  0  0  0
 27 59  1  0  0  0  0
 27 60  1  0  0  0  0
 28 29  1  0  0  0  0
 28 33  2  0  0  0  0
 29 30  2  0  0  0  0
 29 61  1  0  0  0  0
 30 31  1  0  0  0  0
 30 62  1  0  0  0  0
 31 32  2  0  0  0  0
 31 63  1  0  0  0  0
 32 33  1  0  0  0  0
 32 64  1  0  0  0  0
 33 65  1  0  0  0  0
 34 66  1  0  0  0  0
 34 67  1  0  0  0  0
M  END
$$$$
