CHEMBL3921861
 OpenBabel04072215373D

 62 67  0  0  1  0  0  0  0  0999 V2000
   -3.7908   -1.9116    4.0186 C   0  0  0  0  0  0  0  0  0  0  0  0
   -2.5568   -1.6043    3.3696 O   0  0  0  0  0  0  0  0  0  0  0  0
   -1.4284   -2.1918    3.8880 C   0  0  0  0  0  0  0  0  0  0  0  0
   -1.4654   -3.1347    4.9155 C   0  0  0  0  0  0  0  0  0  0  0  0
   -0.2864   -3.6974    5.4319 C   0  0  0  0  0  0  0  0  0  0  0  0
   -0.2450   -4.6723    6.4364 C   0  0  0  0  0  0  0  0  0  0  0  0
   -1.4653   -5.2139    6.9390 N   0  0  0  0  0  0  0  0  0  0  0  0
   -1.5358   -5.9294    8.1541 C   0  0  0  0  0  0  0  0  0  0  0  0
   -0.9651   -5.3872    9.3130 C   0  0  0  0  0  0  0  0  0  0  0  0
   -0.8698   -6.1354   10.4832 C   0  0  0  0  0  0  0  0  0  0  0  0
   -1.3649   -7.4387   10.5136 C   0  0  0  0  0  0  0  0  0  0  0  0
   -1.0742   -8.4414   12.0990 Br  0  0  0  0  0  0  0  0  0  0  0  0
   -2.0112   -7.9634    9.3878 C   0  0  0  0  0  0  0  0  0  0  0  0
   -2.6793   -9.5583    9.3608 Cl  0  0  0  0  0  0  0  0  0  0  0  0
   -2.1091   -7.2032    8.2145 C   0  0  0  0  0  0  0  0  0  0  0  0
    0.9176   -5.1339    6.9339 N   0  0  0  0  0  0  0  0  0  0  0  0
    2.0387   -4.6335    6.4101 C   0  0  0  0  0  0  0  0  0  0  0  0
    2.1167   -3.7233    5.4357 N   0  0  0  0  0  0  0  0  0  0  0  0
    0.9592   -3.2624    4.9524 C   0  0  0  0  0  0  0  0  0  0  0  0
    0.9869   -2.3257    3.9293 C   0  0  0  0  0  0  0  0  0  0  0  0
   -0.1836   -1.8051    3.3599 C   0  0  0  0  0  0  0  0  0  0  0  0
   -0.1880   -0.9862    2.2552 O   0  0  0  0  0  0  0  0  0  0  0  0
    0.9489   -0.1321    2.0344 C   0  0  1  0  0  0  0  0  0  0  0  0
    2.0430   -0.8017    1.2035 C   0  0  0  0  0  0  0  0  0  0  0  0
    1.7148   -0.6422   -0.1860 O   0  0  0  0  0  0  0  0  0  0  0  0
    0.8765    0.5208   -0.3049 C   0  0  1  0  0  0  0  0  0  0  0  0
    0.5108    0.9861    1.1029 C   0  0  2  0  0  0  0  0  0  0  0  0
    1.2459    2.2013    1.3283 O   0  0  0  0  0  0  0  0  0  0  0  0
    1.3430    2.8224    0.0377 C   0  0  0  0  0  0  0  0  0  0  0  0
    1.6740    1.6850   -0.9332 C   0  0  2  0  0  0  0  0  0  0  0  0
    1.3532    1.9808   -2.3500 N   0  0  0  0  0  0  0  0  0  0  0  0
    1.6347    0.8350   -3.2517 C   0  0  0  0  0  0  0  0  0  0  0  0
    3.1319    0.5815   -3.5031 C   0  0  0  0  0  0  0  0  0  0  0  0
    3.7815    1.7519   -4.0159 O   0  0  0  0  0  0  0  0  0  0  0  0
    3.5956    2.8723   -3.1446 C   0  0  0  0  0  0  0  0  0  0  0  0
    2.1033    3.1450   -2.8820 C   0  0  0  0  0  0  0  0  0  0  0  0
   -4.5794   -1.2938    3.5804 H   0  0  0  0  0  0  0  0  0  0  0  0
   -3.7531   -1.6788    5.0903 H   0  0  0  0  0  0  0  0  0  0  0  0
   -4.0607   -2.9617    3.8575 H   0  0  0  0  0  0  0  0  0  0  0  0
   -2.4073   -3.4485    5.3535 H   0  0  0  0  0  0  0  0  0  0  0  0
   -1.9561   -5.6757    6.1783 H   0  0  0  0  0  0  0  0  0  0  0  0
   -0.5468   -4.3824    9.2882 H   0  0  0  0  0  0  0  0  0  0  0  0
   -0.3746   -5.6997   11.3471 H   0  0  0  0  0  0  0  0  0  0  0  0
   -2.5874   -7.6324    7.3387 H   0  0  0  0  0  0  0  0  0  0  0  0
    2.9748   -5.0087    6.8107 H   0  0  0  0  0  0  0  0  0  0  0  0
    1.9686   -2.0358    3.5723 H   0  0  0  0  0  0  0  0  0  0  0  0
    1.3261    0.2561    2.9877 H   0  0  0  0  0  0  0  0  0  0  0  0
    2.1619   -1.8706    1.3913 H   0  0  0  0  0  0  0  0  0  0  0  0
    3.0070   -0.3053    1.3711 H   0  0  0  0  0  0  0  0  0  0  0  0
   -0.0137    0.2357   -0.8743 H   0  0  0  0  0  0  0  0  0  0  0  0
   -0.5568    1.2216    1.1818 H   0  0  0  0  0  0  0  0  0  0  0  0
    2.1182    3.5934    0.0674 H   0  0  0  0  0  0  0  0  0  0  0  0
    0.3806    3.2966   -0.1926 H   0  0  0  0  0  0  0  0  0  0  0  0
    2.7438    1.4599   -0.8316 H   0  0  0  0  0  0  0  0  0  0  0  0
    1.1650    1.0660   -4.2178 H   0  0  0  0  0  0  0  0  0  0  0  0
    1.1494   -0.0815   -2.9014 H   0  0  0  0  0  0  0  0  0  0  0  0
    3.2464   -0.2054   -4.2559 H   0  0  0  0  0  0  0  0  0  0  0  0
    3.6479    0.2456   -2.5973 H   0  0  0  0  0  0  0  0  0  0  0  0
    4.0422    3.7424   -3.6375 H   0  0  0  0  0  0  0  0  0  0  0  0
    4.1491    2.7052   -2.2140 H   0  0  0  0  0  0  0  0  0  0  0  0
    1.6352    3.4209   -3.8364 H   0  0  0  0  0  0  0  0  0  0  0  0
    1.9883    4.0218   -2.2364 H   0  0  0  0  0  0  0  0  0  0  0  0
  1  2  1  0  0  0  0
  1 37  1  0  0  0  0
  1 38  1  0  0  0  0
  1 39  1  0  0  0  0
  2  3  1  0  0  0  0
  3  4  1  0  0  0  0
  3 21  2  0  0  0  0
  4  5  2  0  0  0  0
  4 40  1  0  0  0  0
  5  6  1  0  0  0  0
  5 19  1  0  0  0  0
  6  7  1  0  0  0  0
  6 16  2  0  0  0  0
  7  8  1  0  0  0  0
  7 41  1  0  0  0  0
  8  9  1  0  0  0  0
  8 15  2  0  0  0  0
  9 10  2  0  0  0  0
  9 42  1  0  0  0  0
 10 11  1  0  0  0  0
 10 43  1  0  0  0  0
 11 12  1  0  0  0  0
 11 13  2  0  0  0  0
 13 14  1  0  0  0  0
 13 15  1  0  0  0  0
 15 44  1  0  0  0  0
 16 17  1  0  0  0  0
 17 18  2  0  0  0  0
 17 45  1  0  0  0  0
 18 19  1  0  0  0  0
 19 20  2  0  0  0  0
 20 21  1  0  0  0  0
 20 46  1  0  0  0  0
 21 22  1  0  0  0  0
 23 24  1  0  0  0  0
 23 27  1  0  0  0  0
 23 22  1  0  0  0  0
 23 47  1  1  0  0  0
 24 25  1  0  0  0  0
 24 48  1  0  0  0  0
 24 49  1  0  0  0  0
 25 26  1  0  0  0  0
 26 27  1  0  0  0  0
 26 30  1  0  0  0  0
 26 50  1  6  0  0  0
 27 28  1  0  0  0  0
 27 51  1  1  0  0  0
 28 29  1  0  0  0  0
 29 30  1  0  0  0  0
 29 52  1  0  0  0  0
 29 53  1  0  0  0  0
 30 31  1  0  0  0  0
 30 54  1  1  0  0  0
 31 32  1  0  0  0  0
 31 36  1  0  0  0  0
 32 33  1  0  0  0  0
 32 55  1  0  0  0  0
 32 56  1  0  0  0  0
 33 34  1  0  0  0  0
 33 57  1  0  0  0  0
 33 58  1  0  0  0  0
 34 35  1  0  0  0  0
 35 36  1  0  0  0  0
 35 59  1  0  0  0  0
 35 60  1  0  0  0  0
 36 61  1  0  0  0  0
 36 62  1  0  0  0  0
M  END
$$$$
