CHEMBL2071203
 OpenBabel04072215363D

 48 51  0  0  1  0  0  0  0  0999 V2000
   -1.1166    1.8951   -1.1729 C   0  0  0  0  0  0  0  0  0  0  0  0
   -0.2001    0.7937   -1.3273 N   0  0  0  0  0  0  0  0  0  0  0  0
    0.9734    0.5892   -0.6615 C   0  0  0  0  0  0  0  0  0  0  0  0
    1.4026   -0.6543   -1.0404 C   0  0  0  0  0  0  0  0  0  0  0  0
    2.4805   -1.3075   -0.5553 N   0  0  0  0  0  0  0  0  0  0  0  0
    2.6454   -2.6986   -0.4678 C   0  0  0  0  0  0  0  0  0  0  0  0
    3.3376   -3.0847    0.6076 N   0  0  0  0  0  0  0  0  0  0  0  0
    3.2574   -4.3827    0.9225 C   0  0  0  0  0  0  0  0  0  0  0  0
    2.5319   -5.3023    0.1917 C   0  0  0  0  0  0  0  0  0  0  0  0
    2.3888   -6.6883    0.7121 C   0  0  0  0  0  0  0  0  0  0  0  0
    3.0859   -6.8927    1.8732 F   0  0  0  0  0  0  0  0  0  0  0  0
    1.0993   -7.0048    1.0208 F   0  0  0  0  0  0  0  0  0  0  0  0
    2.8299   -7.6535   -0.1376 F   0  0  0  0  0  0  0  0  0  0  0  0
    1.9530   -4.8532   -0.9846 C   0  0  0  0  0  0  0  0  0  0  0  0
    1.2170   -5.7372   -1.7539 N   0  0  0  0  0  0  0  0  0  0  0  0
    0.9781   -5.8053   -3.2009 C   0  0  2  0  0  0  0  0  0  0  0  0
    2.0216   -5.2006   -4.1679 C   0  0  1  0  0  0  0  0  0  0  0  0
    1.8904   -5.9577   -5.5178 C   0  0  0  0  0  0  0  0  0  0  0  0
    0.5638   -5.4245   -6.0963 C   0  0  0  0  0  0  0  0  0  0  0  0
    0.0791   -4.4512   -4.9996 C   0  0  2  0  0  0  0  0  0  0  0  0
    1.4168   -3.8571   -4.5702 C   0  0  0  0  0  0  0  0  0  0  0  0
   -0.3639   -5.2834   -3.7669 C   0  0  2  0  0  0  0  0  0  0  0  0
   -1.3102   -4.6808   -2.7490 C   0  0  0  0  0  0  0  0  0  0  0  0
   -1.9298   -3.5094   -3.0509 N   0  0  0  0  0  0  0  0  0  0  0  0
   -1.6234   -5.2911   -1.7262 O   0  0  0  0  0  0  0  0  0  0  0  0
    2.0140   -3.5520   -1.3109 N   0  0  0  0  0  0  0  0  0  0  0  0
    0.4400   -1.0977   -1.9569 C   0  0  0  0  0  0  0  0  0  0  0  0
   -0.5371   -0.2117   -2.1570 N   0  0  0  0  0  0  0  0  0  0  0  0
   -0.6689    2.6487   -0.5225 H   0  0  0  0  0  0  0  0  0  0  0  0
   -2.0368    1.5064   -0.7273 H   0  0  0  0  0  0  0  0  0  0  0  0
   -1.3201    2.3170   -2.1597 H   0  0  0  0  0  0  0  0  0  0  0  0
    1.3572    1.3119    0.0529 H   0  0  0  0  0  0  0  0  0  0  0  0
    2.9811   -0.9222    0.2387 H   0  0  0  0  0  0  0  0  0  0  0  0
    3.7800   -4.6626    1.8360 H   0  0  0  0  0  0  0  0  0  0  0  0
    0.3719   -6.0210   -1.2429 H   0  0  0  0  0  0  0  0  0  0  0  0
    0.9793   -6.8892   -3.3733 H   0  0  0  0  0  0  0  0  0  0  0  0
    3.0449   -5.1625   -3.7909 H   0  0  0  0  0  0  0  0  0  0  0  0
    1.8682   -7.0452   -5.3938 H   0  0  0  0  0  0  0  0  0  0  0  0
    2.7183   -5.7117   -6.1917 H   0  0  0  0  0  0  0  0  0  0  0  0
   -0.1543   -6.2235   -6.3069 H   0  0  0  0  0  0  0  0  0  0  0  0
    0.7523   -4.8881   -7.0344 H   0  0  0  0  0  0  0  0  0  0  0  0
   -0.6547   -3.7351   -5.3749 H   0  0  0  0  0  0  0  0  0  0  0  0
    1.3459   -3.1501   -3.7566 H   0  0  0  0  0  0  0  0  0  0  0  0
    1.9493   -3.3768   -5.4013 H   0  0  0  0  0  0  0  0  0  0  0  0
   -0.9356   -6.1435   -4.1488 H   0  0  0  0  0  0  0  0  0  0  0  0
   -2.5168   -3.1353   -2.3138 H   0  0  0  0  0  0  0  0  0  0  0  0
   -1.4764   -2.8026   -3.6157 H   0  0  0  0  0  0  0  0  0  0  0  0
    0.3915   -2.0399   -2.4661 H   0  0  0  0  0  0  0  0  0  0  0  0
  1  2  1  0  0  0  0
  1 29  1  0  0  0  0
  1 30  1  0  0  0  0
  1 31  1  0  0  0  0
  2  3  1  0  0  0  0
  2 28  1  0  0  0  0
  3  4  2  0  0  0  0
  3 32  1  0  0  0  0
  4  5  1  0  0  0  0
  4 27  1  0  0  0  0
  5  6  1  0  0  0  0
  5 33  1  0  0  0  0
  6  7  1  0  0  0  0
  6 26  2  0  0  0  0
  7  8  2  0  0  0  0
  8  9  1  0  0  0  0
  8 34  1  0  0  0  0
  9 10  1  0  0  0  0
  9 14  2  0  0  0  0
 10 11  1  0  0  0  0
 10 12  1  0  0  0  0
 10 13  1  0  0  0  0
 14 15  1  0  0  0  0
 14 26  1  0  0  0  0
 15 16  1  0  0  0  0
 15 35  1  0  0  0  0
 16 17  1  0  0  0  0
 16 22  1  0  0  0  0
 16 36  1  6  0  0  0
 17 18  1  0  0  0  0
 17 21  1  0  0  0  0
 17 37  1  1  0  0  0
 18 19  1  0  0  0  0
 18 38  1  0  0  0  0
 18 39  1  0  0  0  0
 19 20  1  0  0  0  0
 19 40  1  0  0  0  0
 19 41  1  0  0  0  0
 20 21  1  0  0  0  0
 20 22  1  0  0  0  0
 20 42  1  6  0  0  0
 21 43  1  0  0  0  0
 21 44  1  0  0  0  0
 22 23  1  0  0  0  0
 22 45  1  6  0  0  0
 23 24  1  0  0  0  0
 23 25  2  0  0  0  0
 24 46  1  0  0  0  0
 24 47  1  0  0  0  0
 27 28  2  0  0  0  0
 27 48  1  0  0  0  0
M  END
$$$$
