CHEMBL411050
 OpenBabel04072215383D

 69 73  0  0  0  0  0  0  0  0999 V2000
    2.5684    0.2987    0.0628 C   0  0  0  0  0  0  0  0  0  0  0  0
    1.0730    0.1417    0.0393 C   0  0  0  0  0  0  0  0  0  0  0  0
    0.3126    1.2971    0.2729 C   0  0  0  0  0  0  0  0  0  0  0  0
   -1.0814    1.2825    0.1894 C   0  0  0  0  0  0  0  0  0  0  0  0
   -1.7688    0.1155   -0.1270 C   0  0  0  0  0  0  0  0  0  0  0  0
   -3.1795    0.0642   -0.2825 N   0  0  0  0  0  0  0  0  0  0  0  0
   -4.0145    1.1638   -0.4317 C   0  0  0  0  0  0  0  0  0  0  0  0
   -3.6236    2.3236   -0.5236 O   0  0  0  0  0  0  0  0  0  0  0  0
   -5.4412    0.9044   -0.5293 C   0  0  0  0  0  0  0  0  0  0  0  0
   -6.4108    1.8928   -0.8448 C   0  0  0  0  0  0  0  0  0  0  0  0
   -7.6521    1.4114   -0.8576 N   0  0  0  0  0  0  0  0  0  0  0  0
   -7.5226    0.0772   -0.5322 O   0  0  0  0  0  0  0  0  0  0  0  0
   -6.2081   -0.2260   -0.3269 C   0  0  0  0  0  0  0  0  0  0  0  0
   -5.9618   -1.6263    0.0660 C   0  0  0  0  0  0  0  0  0  0  0  0
   -1.0280   -1.0590   -0.3038 C   0  0  0  0  0  0  0  0  0  0  0  0
    0.3891   -1.0601   -0.2277 C   0  0  0  0  0  0  0  0  0  0  0  0
    1.0502   -2.3720   -0.5236 C   0  0  0  0  0  0  0  0  0  0  0  0
    0.5205   -3.1020   -1.3562 O   0  0  0  0  0  0  0  0  0  0  0  0
    2.1905   -2.6815    0.1961 N   0  0  0  0  0  0  0  0  0  0  0  0
    2.9562   -3.8642    0.0764 C   0  0  0  0  0  0  0  0  0  0  0  0
    2.6734   -4.9305   -0.7429 C   0  0  0  0  0  0  0  0  0  0  0  0
    3.4217   -6.0537   -0.7911 N   0  0  0  0  0  0  0  0  0  0  0  0
    4.4987   -6.1378    0.0076 C   0  0  0  0  0  0  0  0  0  0  0  0
    5.2596   -7.3066    0.0101 N   0  0  0  0  0  0  0  0  0  0  0  0
    5.4476   -8.1789   -1.0725 C   0  0  0  0  0  0  0  0  0  0  0  0
    5.3613   -7.7413   -2.3933 C   0  0  0  0  0  0  0  0  0  0  0  0
    5.4639   -8.6378   -3.4551 C   0  0  0  0  0  0  0  0  0  0  0  0
    5.6510  -10.0097   -3.2500 C   0  0  0  0  0  0  0  0  0  0  0  0
    5.7248  -10.8485   -4.3461 N   0  0  0  0  0  0  0  0  0  0  0  0
    6.3629  -12.1681   -4.2860 C   0  0  0  0  0  0  0  0  0  0  0  0
    6.9149  -12.5140   -5.6936 C   0  0  0  0  0  0  0  0  0  0  0  0
    5.8790  -12.4664   -6.7555 N   0  0  0  0  0  0  0  0  0  0  0  0
    6.4761  -12.7151   -8.0655 C   0  0  0  0  0  0  0  0  0  0  0  0
    5.2184  -11.1395   -6.7377 C   0  0  0  0  0  0  0  0  0  0  0  0
    4.6433  -10.7810   -5.3499 C   0  0  0  0  0  0  0  0  0  0  0  0
    5.8011  -10.4358   -1.9251 C   0  0  0  0  0  0  0  0  0  0  0  0
    5.7095   -9.5343   -0.8498 C   0  0  0  0  0  0  0  0  0  0  0  0
    4.8728   -5.1501    0.8342 N   0  0  0  0  0  0  0  0  0  0  0  0
    4.0986   -4.0380    0.8373 C   0  0  0  0  0  0  0  0  0  0  0  0
    2.8559    1.3571    0.0237 H   0  0  0  0  0  0  0  0  0  0  0  0
    3.0281   -0.1834   -0.8027 H   0  0  0  0  0  0  0  0  0  0  0  0
    2.9857   -0.1005    0.9922 H   0  0  0  0  0  0  0  0  0  0  0  0
    0.7985    2.2478    0.4920 H   0  0  0  0  0  0  0  0  0  0  0  0
   -1.5953    2.2206    0.3740 H   0  0  0  0  0  0  0  0  0  0  0  0
   -3.5785   -0.8511   -0.4263 H   0  0  0  0  0  0  0  0  0  0  0  0
   -6.2502    2.9417   -1.0607 H   0  0  0  0  0  0  0  0  0  0  0  0
   -6.9028   -2.1733    0.1898 H   0  0  0  0  0  0  0  0  0  0  0  0
   -5.4236   -1.6708    1.0170 H   0  0  0  0  0  0  0  0  0  0  0  0
   -5.3766   -2.1447   -0.6988 H   0  0  0  0  0  0  0  0  0  0  0  0
   -1.5371   -1.9909   -0.5451 H   0  0  0  0  0  0  0  0  0  0  0  0
    2.4798   -2.0403    0.9198 H   0  0  0  0  0  0  0  0  0  0  0  0
    1.8166   -4.9597   -1.4063 H   0  0  0  0  0  0  0  0  0  0  0  0
    6.0368   -7.2272    0.6455 H   0  0  0  0  0  0  0  0  0  0  0  0
    5.2074   -6.6904   -2.6214 H   0  0  0  0  0  0  0  0  0  0  0  0
    5.4135   -8.2387   -4.4641 H   0  0  0  0  0  0  0  0  0  0  0  0
    5.6407  -12.9284   -3.9622 H   0  0  0  0  0  0  0  0  0  0  0  0
    7.2040  -12.1732   -3.5832 H   0  0  0  0  0  0  0  0  0  0  0  0
    7.3574  -13.5158   -5.6566 H   0  0  0  0  0  0  0  0  0  0  0  0
    7.7217  -11.8054   -5.9291 H   0  0  0  0  0  0  0  0  0  0  0  0
    6.9404  -13.7066   -8.0919 H   0  0  0  0  0  0  0  0  0  0  0  0
    7.2375  -11.9704   -8.3249 H   0  0  0  0  0  0  0  0  0  0  0  0
    5.7063  -12.7053   -8.8451 H   0  0  0  0  0  0  0  0  0  0  0  0
    4.3997  -11.1262   -7.4669 H   0  0  0  0  0  0  0  0  0  0  0  0
    5.9326  -10.3570   -7.0302 H   0  0  0  0  0  0  0  0  0  0  0  0
    3.8458  -11.4860   -5.0797 H   0  0  0  0  0  0  0  0  0  0  0  0
    4.1790   -9.7912   -5.4162 H   0  0  0  0  0  0  0  0  0  0  0  0
    5.9479  -11.4875   -1.6976 H   0  0  0  0  0  0  0  0  0  0  0  0
    5.7877   -9.9140    0.1655 H   0  0  0  0  0  0  0  0  0  0  0  0
    4.4562   -3.2590    1.5042 H   0  0  0  0  0  0  0  0  0  0  0  0
  1  2  1  0  0  0  0
  1 40  1  0  0  0  0
  1 41  1  0  0  0  0
  1 42  1  0  0  0  0
  2  3  1  0  0  0  0
  2 16  2  0  0  0  0
  3  4  2  0  0  0  0
  3 43  1  0  0  0  0
  4  5  1  0  0  0  0
  4 44  1  0  0  0  0
  5  6  1  0  0  0  0
  5 15  2  0  0  0  0
  6  7  1  0  0  0  0
  6 45  1  0  0  0  0
  7  8  2  0  0  0  0
  7  9  1  0  0  0  0
  9 10  1  0  0  0  0
  9 13  2  0  0  0  0
 10 11  2  0  0  0  0
 10 46  1  0  0  0  0
 11 12  1  0  0  0  0
 12 13  1  0  0  0  0
 13 14  1  0  0  0  0
 14 47  1  0  0  0  0
 14 48  1  0  0  0  0
 14 49  1  0  0  0  0
 15 16  1  0  0  0  0
 15 50  1  0  0  0  0
 16 17  1  0  0  0  0
 17 18  2  0  0  0  0
 17 19  1  0  0  0  0
 19 20  1  0  0  0  0
 19 51  1  0  0  0  0
 20 21  1  0  0  0  0
 20 39  2  0  0  0  0
 21 22  2  0  0  0  0
 21 52  1  0  0  0  0
 22 23  1  0  0  0  0
 23 24  1  0  0  0  0
 23 38  2  0  0  0  0
 24 25  1  0  0  0  0
 24 53  1  0  0  0  0
 25 26  1  0  0  0  0
 25 37  2  0  0  0  0
 26 27  2  0  0  0  0
 26 54  1  0  0  0  0
 27 28  1  0  0  0  0
 27 55  1  0  0  0  0
 28 29  1  0  0  0  0
 28 36  2  0  0  0  0
 29 30  1  0  0  0  0
 29 35  1  0  0  0  0
 30 31  1  0  0  0  0
 30 56  1  0  0  0  0
 30 57  1  0  0  0  0
 31 32  1  0  0  0  0
 31 58  1  0  0  0  0
 31 59  1  0  0  0  0
 32 33  1  0  0  0  0
 32 34  1  0  0  0  0
 33 60  1  0  0  0  0
 33 61  1  0  0  0  0
 33 62  1  0  0  0  0
 34 35  1  0  0  0  0
 34 63  1  0  0  0  0
 34 64  1  0  0  0  0
 35 65  1  0  0  0  0
 35 66  1  0  0  0  0
 36 37  1  0  0  0  0
 36 67  1  0  0  0  0
 37 68  1  0  0  0  0
 38 39  1  0  0  0  0
 39 69  1  0  0  0  0
M  END
$$$$
