CHEMBL3946852
 OpenBabel04072215373D

 54 57  0  0  0  0  0  0  0  0999 V2000
    3.8110   -2.2919    9.4496 C   0  0  0  0  0  0  0  0  0  0  0  0
    3.9953   -0.8850    9.3476 O   0  0  0  0  0  0  0  0  0  0  0  0
    4.0944   -0.3529    8.0873 C   0  0  0  0  0  0  0  0  0  0  0  0
    3.5564   -0.9901    6.9612 C   0  0  0  0  0  0  0  0  0  0  0  0
    3.5657   -0.3871    5.6962 C   0  0  0  0  0  0  0  0  0  0  0  0
    3.0209   -1.0290    4.5648 N   0  0  0  0  0  0  0  0  0  0  0  0
    1.8779   -1.8381    4.5823 C   0  0  0  0  0  0  0  0  0  0  0  0
    1.8267   -2.8529    3.7071 N   0  0  0  0  0  0  0  0  0  0  0  0
    0.7187   -3.6247    3.7378 C   0  0  0  0  0  0  0  0  0  0  0  0
   -0.3365   -3.4258    4.6026 C   0  0  0  0  0  0  0  0  0  0  0  0
   -0.1990   -2.3435    5.4542 C   0  0  0  0  0  0  0  0  0  0  0  0
    0.8963   -1.5614    5.4563 N   0  0  0  0  0  0  0  0  0  0  0  0
   -1.2712   -1.9986    6.4581 C   0  0  0  0  0  0  0  0  0  0  0  0
   -2.6069   -2.5802    6.0143 C   0  0  0  0  0  0  0  0  0  0  0  0
   -2.4345   -4.0053    5.7216 N   0  0  0  0  0  0  0  0  0  0  0  0
   -2.9107   -5.0759    6.4850 C   0  0  0  0  0  0  0  0  0  0  0  0
   -2.8136   -6.2367    6.0882 O   0  0  0  0  0  0  0  0  0  0  0  0
   -3.5715   -4.8395    7.8114 C   0  0  0  0  0  0  0  0  0  0  0  0
   -4.5283   -5.7472    8.2564 C   0  0  0  0  0  0  0  0  0  0  0  0
   -5.1574   -5.5016    9.4741 C   0  0  0  0  0  0  0  0  0  0  0  0
   -4.8032   -4.3793   10.2131 C   0  0  0  0  0  0  0  0  0  0  0  0
   -3.8147   -3.5495    9.7134 C   0  0  0  0  0  0  0  0  0  0  0  0
   -3.1827   -3.7587    8.5388 N   0  0  0  0  0  0  0  0  0  0  0  0
   -1.5740   -4.2762    4.5750 C   0  0  0  0  0  0  0  0  0  0  0  0
    4.1878    0.8525    5.5480 C   0  0  0  0  0  0  0  0  0  0  0  0
    4.6999    1.5264    6.6632 C   0  0  0  0  0  0  0  0  0  0  0  0
    5.2826    2.7703    6.5740 O   0  0  0  0  0  0  0  0  0  0  0  0
    4.7087    3.6428    5.6061 C   0  0  0  0  0  0  0  0  0  0  0  0
    4.6786    0.9180    7.9370 C   0  0  0  0  0  0  0  0  0  0  0  0
    5.1901    1.6845    8.9597 O   0  0  0  0  0  0  0  0  0  0  0  0
    5.8438    0.9904   10.0142 C   0  0  0  0  0  0  0  0  0  0  0  0
    3.8277   -2.5534   10.5120 H   0  0  0  0  0  0  0  0  0  0  0  0
    4.6293   -2.8286    8.9577 H   0  0  0  0  0  0  0  0  0  0  0  0
    2.8380   -2.6051    9.0586 H   0  0  0  0  0  0  0  0  0  0  0  0
    3.0764   -1.9585    7.0535 H   0  0  0  0  0  0  0  0  0  0  0  0
    3.7102   -1.4921    3.9857 H   0  0  0  0  0  0  0  0  0  0  0  0
    0.7082   -4.4341    3.0122 H   0  0  0  0  0  0  0  0  0  0  0  0
   -1.3535   -0.9112    6.5598 H   0  0  0  0  0  0  0  0  0  0  0  0
   -0.9721   -2.4095    7.4294 H   0  0  0  0  0  0  0  0  0  0  0  0
   -2.9408   -2.1001    5.0853 H   0  0  0  0  0  0  0  0  0  0  0  0
   -3.3983   -2.3882    6.7389 H   0  0  0  0  0  0  0  0  0  0  0  0
   -4.7847   -6.6186    7.6623 H   0  0  0  0  0  0  0  0  0  0  0  0
   -5.9191   -6.1850    9.8422 H   0  0  0  0  0  0  0  0  0  0  0  0
   -5.2870   -4.1547   11.1570 H   0  0  0  0  0  0  0  0  0  0  0  0
   -3.5001   -2.6629   10.2565 H   0  0  0  0  0  0  0  0  0  0  0  0
   -2.1537   -4.0313    3.6769 H   0  0  0  0  0  0  0  0  0  0  0  0
   -1.2987   -5.3349    4.5275 H   0  0  0  0  0  0  0  0  0  0  0  0
    4.2285    1.2978    4.5596 H   0  0  0  0  0  0  0  0  0  0  0  0
    5.0247    4.6629    5.8454 H   0  0  0  0  0  0  0  0  0  0  0  0
    3.6131    3.6197    5.6307 H   0  0  0  0  0  0  0  0  0  0  0  0
    5.0821    3.4064    4.6049 H   0  0  0  0  0  0  0  0  0  0  0  0
    6.5110    1.6994   10.5145 H   0  0  0  0  0  0  0  0  0  0  0  0
    6.4587    0.1609    9.6481 H   0  0  0  0  0  0  0  0  0  0  0  0
    5.1214    0.6548   10.7639 H   0  0  0  0  0  0  0  0  0  0  0  0
  1  2  1  0  0  0  0
  1 32  1  0  0  0  0
  1 33  1  0  0  0  0
  1 34  1  0  0  0  0
  2  3  1  0  0  0  0
  3  4  1  0  0  0  0
  3 29  2  0  0  0  0
  4  5  2  0  0  0  0
  4 35  1  0  0  0  0
  5  6  1  0  0  0  0
  5 25  1  0  0  0  0
  6  7  1  0  0  0  0
  6 36  1  0  0  0  0
  7  8  1  0  0  0  0
  7 12  2  0  0  0  0
  8  9  2  0  0  0  0
  9 10  1  0  0  0  0
  9 37  1  0  0  0  0
 10 11  2  0  0  0  0
 10 24  1  0  0  0  0
 11 12  1  0  0  0  0
 11 13  1  0  0  0  0
 13 14  1  0  0  0  0
 13 38  1  0  0  0  0
 13 39  1  0  0  0  0
 14 15  1  0  0  0  0
 14 40  1  0  0  0  0
 14 41  1  0  0  0  0
 15 16  1  0  0  0  0
 15 24  1  0  0  0  0
 16 17  2  0  0  0  0
 16 18  1  0  0  0  0
 18 19  1  0  0  0  0
 18 23  2  0  0  0  0
 19 20  2  0  0  0  0
 19 42  1  0  0  0  0
 20 21  1  0  0  0  0
 20 43  1  0  0  0  0
 21 22  2  0  0  0  0
 21 44  1  0  0  0  0
 22 23  1  0  0  0  0
 22 45  1  0  0  0  0
 24 46  1  0  0  0  0
 24 47  1  0  0  0  0
 25 26  2  0  0  0  0
 25 48  1  0  0  0  0
 26 27  1  0  0  0  0
 26 29  1  0  0  0  0
 27 28  1  0  0  0  0
 28 49  1  0  0  0  0
 28 50  1  0  0  0  0
 28 51  1  0  0  0  0
 29 30  1  0  0  0  0
 30 31  1  0  0  0  0
 31 52  1  0  0  0  0
 31 53  1  0  0  0  0
 31 54  1  0  0  0  0
M  END
$$$$
