CHEMBL3746776
 OpenBabel04072215373D

 58 63  0  0  1  0  0  0  0  0999 V2000
    0.6757    0.6051   -0.7766 C   0  0  0  0  0  0  0  0  0  0  0  0
    2.1904    0.5820   -0.9592 C   0  0  1  0  0  0  0  0  0  0  0  0
    2.8472    1.6080   -0.0190 C   0  0  0  0  0  0  0  0  0  0  0  0
    4.3348    1.4458    0.0434 C   0  0  0  0  0  0  0  0  0  0  0  0
    4.9669    0.3061   -0.4278 C   0  0  0  0  0  0  0  0  0  0  0  0
    6.3095    0.1558   -0.4034 N   0  0  0  0  0  0  0  0  0  0  0  0
    7.0088    1.1493    0.1618 C   0  0  0  0  0  0  0  0  0  0  0  0
    6.4977    2.2549    0.7100 N   0  0  0  0  0  0  0  0  0  0  0  0
    5.1606    2.3882    0.6174 C   0  0  0  0  0  0  0  0  0  0  0  0
    4.5429    3.5031    1.1753 O   0  0  0  0  0  0  0  0  0  0  0  0
    5.2034    4.7103    1.1429 C   0  0  0  0  0  0  0  0  0  0  0  0
    6.1212    5.0572    0.1537 C   0  0  0  0  0  0  0  0  0  0  0  0
    6.7887    6.2768    0.1891 C   0  0  0  0  0  0  0  0  0  0  0  0
    6.4610    7.1805    1.2084 C   0  0  0  0  0  0  0  0  0  0  0  0
    5.5292    6.8690    2.2023 C   0  0  0  0  0  0  0  0  0  0  0  0
    5.5093    7.9581    3.1139 C   0  0  0  0  0  0  0  0  0  0  0  0
    6.4624    8.8608    2.6998 C   0  0  0  0  0  0  0  0  0  0  0  0
    7.0055    8.4258    1.5034 N   0  0  0  0  0  0  0  0  0  0  0  0
    8.0433    9.0562    0.7992 C   0  0  0  0  0  0  0  0  0  0  0  0
    9.0136    9.4694    1.4211 O   0  0  0  0  0  0  0  0  0  0  0  0
    7.7300    9.1989   -0.5362 N   0  0  0  0  0  0  0  0  0  0  0  0
    8.6357    9.8580   -1.3384 C   0  0  0  0  0  0  0  0  0  0  0  0
    9.9921    9.5122   -1.5353 C   0  0  0  0  0  0  0  0  0  0  0  0
   10.5197   10.5396   -2.2817 C   0  0  0  0  0  0  0  0  0  0  0  0
   11.9721   10.7298   -2.7518 C   0  0  0  0  0  0  0  0  0  0  0  0
   12.3061   12.0212   -3.4572 C   0  0  0  0  0  0  0  0  0  0  0  0
   12.7220    9.4750   -3.1859 C   0  0  0  0  0  0  0  0  0  0  0  0
   13.0723   10.1188   -1.8905 C   0  0  0  0  0  0  0  0  0  0  0  0
    9.4759   11.3975   -2.4988 N   0  0  0  0  0  0  0  0  0  0  0  0
    8.2914   10.9367   -2.0425 N   0  0  0  0  0  0  0  0  0  0  0  0
    4.8729    5.6186    2.1543 C   0  0  0  0  0  0  0  0  0  0  0  0
    4.1487   -0.8192   -1.0290 C   0  0  0  0  0  0  0  0  0  0  0  0
    2.7100   -0.7704   -0.6972 N   0  0  0  0  0  0  0  0  0  0  0  0
    0.2806    1.6006   -1.0093 H   0  0  0  0  0  0  0  0  0  0  0  0
    0.3891    0.3639    0.2529 H   0  0  0  0  0  0  0  0  0  0  0  0
    0.1869   -0.1116   -1.4446 H   0  0  0  0  0  0  0  0  0  0  0  0
    2.4062    0.8468   -2.0035 H   0  0  0  0  0  0  0  0  0  0  0  0
    2.4518    1.4983    0.9991 H   0  0  0  0  0  0  0  0  0  0  0  0
    2.5963    2.6163   -0.3713 H   0  0  0  0  0  0  0  0  0  0  0  0
    8.0889    1.0511    0.1710 H   0  0  0  0  0  0  0  0  0  0  0  0
    6.3730    4.3655   -0.6462 H   0  0  0  0  0  0  0  0  0  0  0  0
    7.5694    6.4853   -0.5355 H   0  0  0  0  0  0  0  0  0  0  0  0
    4.9078    8.0439    4.0106 H   0  0  0  0  0  0  0  0  0  0  0  0
    6.7946    9.7969    3.1304 H   0  0  0  0  0  0  0  0  0  0  0  0
    6.7611    9.4070   -0.7534 H   0  0  0  0  0  0  0  0  0  0  0  0
   10.5040    8.6414   -1.1537 H   0  0  0  0  0  0  0  0  0  0  0  0
   11.6290   12.1918   -4.2995 H   0  0  0  0  0  0  0  0  0  0  0  0
   13.3289   12.0181   -3.8504 H   0  0  0  0  0  0  0  0  0  0  0  0
   12.2217   12.8643   -2.7629 H   0  0  0  0  0  0  0  0  0  0  0  0
   13.4333    9.5544   -4.0012 H   0  0  0  0  0  0  0  0  0  0  0  0
   12.2177    8.5162   -3.1562 H   0  0  0  0  0  0  0  0  0  0  0  0
   14.0256   10.6337   -1.8245 H   0  0  0  0  0  0  0  0  0  0  0  0
   12.8128    9.6013   -0.9740 H   0  0  0  0  0  0  0  0  0  0  0  0
    9.4994   12.3035   -2.9537 H   0  0  0  0  0  0  0  0  0  0  0  0
    4.1478    5.3466    2.9255 H   0  0  0  0  0  0  0  0  0  0  0  0
    4.5498   -1.7752   -0.6730 H   0  0  0  0  0  0  0  0  0  0  0  0
    4.2721   -0.8012   -2.1181 H   0  0  0  0  0  0  0  0  0  0  0  0
    2.6076   -0.9848    0.2958 H   0  0  0  0  0  0  0  0  0  0  0  0
  1  2  1  0  0  0  0
  1 34  1  0  0  0  0
  1 35  1  0  0  0  0
  1 36  1  0  0  0  0
  2  3  1  0  0  0  0
  2 33  1  0  0  0  0
  2 37  1  6  0  0  0
  3  4  1  0  0  0  0
  3 38  1  0  0  0  0
  3 39  1  0  0  0  0
  4  5  1  0  0  0  0
  4  9  2  0  0  0  0
  5  6  2  0  0  0  0
  5 32  1  0  0  0  0
  6  7  1  0  0  0  0
  7  8  2  0  0  0  0
  7 40  1  0  0  0  0
  8  9  1  0  0  0  0
  9 10  1  0  0  0  0
 10 11  1  0  0  0  0
 11 12  1  0  0  0  0
 11 31  2  0  0  0  0
 12 13  2  0  0  0  0
 12 41  1  0  0  0  0
 13 14  1  0  0  0  0
 13 42  1  0  0  0  0
 14 15  2  0  0  0  0
 14 18  1  0  0  0  0
 15 16  1  0  0  0  0
 15 31  1  0  0  0  0
 16 17  2  0  0  0  0
 16 43  1  0  0  0  0
 17 18  1  0  0  0  0
 17 44  1  0  0  0  0
 18 19  1  0  0  0  0
 19 20  2  0  0  0  0
 19 21  1  0  0  0  0
 21 22  1  0  0  0  0
 21 45  1  0  0  0  0
 22 23  1  0  0  0  0
 22 30  2  0  0  0  0
 23 24  2  0  0  0  0
 23 46  1  0  0  0  0
 24 25  1  0  0  0  0
 24 29  1  0  0  0  0
 25 26  1  0  0  0  0
 25 27  1  0  0  0  0
 25 28  1  0  0  0  0
 26 47  1  0  0  0  0
 26 48  1  0  0  0  0
 26 49  1  0  0  0  0
 27 28  1  0  0  0  0
 27 50  1  0  0  0  0
 27 51  1  0  0  0  0
 28 52  1  0  0  0  0
 28 53  1  0  0  0  0
 29 30  1  0  0  0  0
 29 54  1  0  0  0  0
 31 55  1  0  0  0  0
 32 33  1  0  0  0  0
 32 56  1  0  0  0  0
 32 57  1  0  0  0  0
 33 58  1  0  0  0  0
M  END
$$$$
