CHEMBL3633758
 OpenBabel04072215373D

 44 46  0  0  0  0  0  0  0  0999 V2000
    2.4639    0.2488   -1.5238 C   0  0  0  0  0  0  0  0  0  0  0  0
    2.5694   -0.1593   -0.1629 O   0  0  0  0  0  0  0  0  0  0  0  0
    3.1247    0.6952    0.7469 C   0  0  0  0  0  0  0  0  0  0  0  0
    4.1499    1.5804    0.4013 C   0  0  0  0  0  0  0  0  0  0  0  0
    4.7276    2.4440    1.3129 C   0  0  0  0  0  0  0  0  0  0  0  0
    5.6859    3.2542    0.8606 N   0  0  0  0  0  0  0  0  0  0  0  0
    6.2319    4.0870    1.7473 C   0  0  0  0  0  0  0  0  0  0  0  0
    5.9119    4.1646    3.0344 N   0  0  0  0  0  0  0  0  0  0  0  0
    4.9527    3.3312    3.4878 C   0  0  0  0  0  0  0  0  0  0  0  0
    4.6357    3.3697    4.8735 N   0  0  0  0  0  0  0  0  0  0  0  0
    5.0797    4.4016    5.7350 C   0  0  0  0  0  0  0  0  0  0  0  0
    4.9113    5.7482    5.3751 C   0  0  0  0  0  0  0  0  0  0  0  0
    5.4144    6.7764    6.1704 C   0  0  0  0  0  0  0  0  0  0  0  0
    6.0844    6.4693    7.3506 C   0  0  0  0  0  0  0  0  0  0  0  0
    6.2255    5.1366    7.7349 C   0  0  0  0  0  0  0  0  0  0  0  0
    7.0571    4.7599    9.1951 Cl  0  0  0  0  0  0  0  0  0  0  0  0
    5.7193    4.1038    6.9420 C   0  0  0  0  0  0  0  0  0  0  0  0
    4.2903    2.4241    2.6401 C   0  0  0  0  0  0  0  0  0  0  0  0
    3.2573    1.5260    3.0153 C   0  0  0  0  0  0  0  0  0  0  0  0
    2.7043    0.6381    2.0871 C   0  0  0  0  0  0  0  0  0  0  0  0
    1.7510   -0.2141    2.6043 O   0  0  0  0  0  0  0  0  0  0  0  0
    1.8800   -1.5624    2.1352 C   0  0  0  0  0  0  0  0  0  0  0  0
    1.0860   -2.5318    3.0060 C   0  0  0  0  0  0  0  0  0  0  0  0
    1.2456   -3.9240    2.4373 C   0  0  0  0  0  0  0  0  0  0  0  0
    1.9984   -4.2064    1.5061 O   0  0  0  0  0  0  0  0  0  0  0  0
    0.4921   -4.8945    3.0508 N   0  0  0  0  0  0  0  0  0  0  0  0
    0.5659   -6.1629    2.4207 O   0  0  0  0  0  0  0  0  0  0  0  0
    2.4956   -0.6548   -2.1403 H   0  0  0  0  0  0  0  0  0  0  0  0
    3.2598    0.9015   -1.8851 H   0  0  0  0  0  0  0  0  0  0  0  0
    1.4988    0.7385   -1.6825 H   0  0  0  0  0  0  0  0  0  0  0  0
    4.5631    1.6028   -0.6010 H   0  0  0  0  0  0  0  0  0  0  0  0
    7.0046    4.7558    1.3864 H   0  0  0  0  0  0  0  0  0  0  0  0
    4.7844    2.4465    5.2681 H   0  0  0  0  0  0  0  0  0  0  0  0
    4.4034    5.9986    4.4458 H   0  0  0  0  0  0  0  0  0  0  0  0
    5.2985    7.8096    5.8543 H   0  0  0  0  0  0  0  0  0  0  0  0
    6.4970    7.2688    7.9593 H   0  0  0  0  0  0  0  0  0  0  0  0
    5.8611    3.0733    7.2527 H   0  0  0  0  0  0  0  0  0  0  0  0
    2.8886    1.5128    4.0387 H   0  0  0  0  0  0  0  0  0  0  0  0
    2.9369   -1.8605    2.1347 H   0  0  0  0  0  0  0  0  0  0  0  0
    1.4697   -1.6380    1.1245 H   0  0  0  0  0  0  0  0  0  0  0  0
    0.0262   -2.2525    3.0164 H   0  0  0  0  0  0  0  0  0  0  0  0
    1.4449   -2.5127    4.0410 H   0  0  0  0  0  0  0  0  0  0  0  0
   -0.3729   -4.6921    3.5400 H   0  0  0  0  0  0  0  0  0  0  0  0
    1.2141   -6.0061    1.6949 H   0  0  0  0  0  0  0  0  0  0  0  0
  1  2  1  0  0  0  0
  1 28  1  0  0  0  0
  1 29  1  0  0  0  0
  1 30  1  0  0  0  0
  2  3  1  0  0  0  0
  3  4  1  0  0  0  0
  3 20  2  0  0  0  0
  4  5  2  0  0  0  0
  4 31  1  0  0  0  0
  5  6  1  0  0  0  0
  5 18  1  0  0  0  0
  6  7  2  0  0  0  0
  7  8  1  0  0  0  0
  7 32  1  0  0  0  0
  8  9  2  0  0  0  0
  9 10  1  0  0  0  0
  9 18  1  0  0  0  0
 10 11  1  0  0  0  0
 10 33  1  0  0  0  0
 11 12  1  0  0  0  0
 11 17  2  0  0  0  0
 12 13  2  0  0  0  0
 12 34  1  0  0  0  0
 13 14  1  0  0  0  0
 13 35  1  0  0  0  0
 14 15  2  0  0  0  0
 14 36  1  0  0  0  0
 15 16  1  0  0  0  0
 15 17  1  0  0  0  0
 17 37  1  0  0  0  0
 18 19  2  0  0  0  0
 19 20  1  0  0  0  0
 19 38  1  0  0  0  0
 20 21  1  0  0  0  0
 21 22  1  0  0  0  0
 22 23  1  0  0  0  0
 22 39  1  0  0  0  0
 22 40  1  0  0  0  0
 23 24  1  0  0  0  0
 23 41  1  0  0  0  0
 23 42  1  0  0  0  0
 24 25  2  0  0  0  0
 24 26  1  0  0  0  0
 26 27  1  0  0  0  0
 26 43  1  0  0  0  0
 27 44  1  0  0  0  0
M  END
$$$$
