CHEMBL2002346
 OpenBabel04072215363D

 38 41  0  0  0  0  0  0  0  0999 V2000
    1.2107   -1.5324    1.0742 C   0  0  0  0  0  0  0  0  0  0  0  0
    0.5955   -0.3334    0.7181 C   0  0  0  0  0  0  0  0  0  0  0  0
   -0.7962   -0.2582    0.6353 C   0  0  0  0  0  0  0  0  0  0  0  0
   -1.5903   -1.3848    0.9024 C   0  0  0  0  0  0  0  0  0  0  0  0
   -3.1006   -1.3028    0.8774 C   0  0  0  0  0  0  0  0  0  0  0  0
   -3.5653   -0.7933   -0.4078 N   0  0  0  0  0  0  0  0  0  0  0  0
   -4.9662   -0.7908   -0.5375 C   0  0  0  0  0  0  0  0  0  0  0  0
   -5.5281    0.0231   -1.5023 C   0  0  0  0  0  0  0  0  0  0  0  0
   -6.9063    0.0182   -1.6033 C   0  0  0  0  0  0  0  0  0  0  0  0
   -7.6173    0.8806   -2.5427 C   0  0  0  0  0  0  0  0  0  0  0  0
   -7.0681    1.3636   -3.7218 C   0  0  0  0  0  0  0  0  0  0  0  0
   -8.0253    2.0983   -4.3742 N   0  0  0  0  0  0  0  0  0  0  0  0
   -9.1814    2.1063   -3.6484 C   0  0  0  0  0  0  0  0  0  0  0  0
  -10.3086    2.7322   -4.0328 N   0  0  0  0  0  0  0  0  0  0  0  0
  -11.3159    2.5942   -3.1405 C   0  0  0  0  0  0  0  0  0  0  0  0
  -11.2430    1.9065   -1.9368 C   0  0  0  0  0  0  0  0  0  0  0  0
  -10.0465    1.2776   -1.5895 C   0  0  0  0  0  0  0  0  0  0  0  0
   -8.9660    1.3694   -2.4879 C   0  0  0  0  0  0  0  0  0  0  0  0
   -7.6834   -0.7789   -0.8457 N   0  0  0  0  0  0  0  0  0  0  0  0
   -7.0397   -1.5583    0.0265 C   0  0  0  0  0  0  0  0  0  0  0  0
   -5.7175   -1.5932    0.2305 N   0  0  0  0  0  0  0  0  0  0  0  0
   -0.9592   -2.5860    1.2502 C   0  0  0  0  0  0  0  0  0  0  0  0
    0.4343   -2.6591    1.3344 C   0  0  0  0  0  0  0  0  0  0  0  0
    2.2933   -1.5910    1.1475 H   0  0  0  0  0  0  0  0  0  0  0  0
    1.2031    0.5460    0.5151 H   0  0  0  0  0  0  0  0  0  0  0  0
   -1.2645    0.6879    0.3670 H   0  0  0  0  0  0  0  0  0  0  0  0
   -3.4147   -0.6263    1.6831 H   0  0  0  0  0  0  0  0  0  0  0  0
   -3.5126   -2.2964    1.0866 H   0  0  0  0  0  0  0  0  0  0  0  0
   -3.1702   -1.3212   -1.1831 H   0  0  0  0  0  0  0  0  0  0  0  0
   -4.9060    0.6751   -2.0988 H   0  0  0  0  0  0  0  0  0  0  0  0
   -6.0914    1.2363   -4.1681 H   0  0  0  0  0  0  0  0  0  0  0  0
   -7.9259    2.5643   -5.2635 H   0  0  0  0  0  0  0  0  0  0  0  0
  -12.2440    3.0802   -3.4330 H   0  0  0  0  0  0  0  0  0  0  0  0
  -12.1043    1.8558   -1.2798 H   0  0  0  0  0  0  0  0  0  0  0  0
   -9.9536    0.7302   -0.6573 H   0  0  0  0  0  0  0  0  0  0  0  0
   -7.6454   -2.2306    0.6249 H   0  0  0  0  0  0  0  0  0  0  0  0
   -1.5462   -3.4727    1.4740 H   0  0  0  0  0  0  0  0  0  0  0  0
    0.9100   -3.5916    1.6181 H   0  0  0  0  0  0  0  0  0  0  0  0
  1  2  1  0  0  0  0
  1 23  2  0  0  0  0
  1 24  1  0  0  0  0
  2  3  2  0  0  0  0
  2 25  1  0  0  0  0
  3  4  1  0  0  0  0
  3 26  1  0  0  0  0
  4  5  1  0  0  0  0
  4 22  2  0  0  0  0
  5  6  1  0  0  0  0
  5 27  1  0  0  0  0
  5 28  1  0  0  0  0
  6  7  1  0  0  0  0
  6 29  1  0  0  0  0
  7  8  1  0  0  0  0
  7 21  2  0  0  0  0
  8  9  2  0  0  0  0
  8 30  1  0  0  0  0
  9 10  1  0  0  0  0
  9 19  1  0  0  0  0
 10 11  2  0  0  0  0
 10 18  1  0  0  0  0
 11 12  1  0  0  0  0
 11 31  1  0  0  0  0
 12 13  1  0  0  0  0
 12 32  1  0  0  0  0
 13 14  1  0  0  0  0
 13 18  2  0  0  0  0
 14 15  2  0  0  0  0
 15 16  1  0  0  0  0
 15 33  1  0  0  0  0
 16 17  2  0  0  0  0
 16 34  1  0  0  0  0
 17 18  1  0  0  0  0
 17 35  1  0  0  0  0
 19 20  2  0  0  0  0
 20 21  1  0  0  0  0
 20 36  1  0  0  0  0
 22 23  1  0  0  0  0
 22 37  1  0  0  0  0
 23 38  1  0  0  0  0
M  END
$$$$
