CHEMBL189691
 OpenBabel04072215363D

 86 89  0  0  0  0  0  0  0  0999 V2000
    1.7094   -5.2164    1.5336 C   0  0  0  0  0  0  0  0  0  0  0  0
    3.0341   -4.7393    1.3514 O   0  0  0  0  0  0  0  0  0  0  0  0
    3.2569   -3.4246    1.6634 C   0  0  0  0  0  0  0  0  0  0  0  0
    2.2863   -2.4872    2.0170 C   0  0  0  0  0  0  0  0  0  0  0  0
    2.6716   -1.1916    2.3553 C   0  0  0  0  0  0  0  0  0  0  0  0
    1.8247   -0.2085    2.7853 O   0  0  0  0  0  0  0  0  0  0  0  0
    0.6611   -0.6554    3.4795 C   0  0  0  0  0  0  0  0  0  0  0  0
    4.0180   -0.8291    2.2747 C   0  0  0  0  0  0  0  0  0  0  0  0
    5.0273   -1.7639    1.9527 C   0  0  0  0  0  0  0  0  0  0  0  0
    6.4616   -1.4223    2.0897 C   0  0  0  0  0  0  0  0  0  0  0  0
    6.8241   -0.5749    3.1516 C   0  0  0  0  0  0  0  0  0  0  0  0
    8.1554   -0.2395    3.3971 C   0  0  0  0  0  0  0  0  0  0  0  0
    8.5176    0.6366    4.4109 C   0  0  0  0  0  0  0  0  0  0  0  0
    9.7852    0.9963    4.6734 N   0  0  0  0  0  0  0  0  0  0  0  0
   10.7487    0.4866    3.8849 C   0  0  0  0  0  0  0  0  0  0  0  0
   12.0615    0.8229    4.1441 N   0  0  0  0  0  0  0  0  0  0  0  0
   12.4153    1.4279    5.4127 C   0  0  0  0  0  0  0  0  0  0  0  0
   13.8614    1.9233    5.3978 C   0  0  0  0  0  0  0  0  0  0  0  0
   14.0549    3.1092    4.4475 C   0  0  0  0  0  0  0  0  0  0  0  0
   15.5092    3.5773    4.4435 C   0  0  0  0  0  0  0  0  0  0  0  0
   15.7230    4.7362    3.4581 C   0  0  0  0  0  0  0  0  0  0  0  0
   17.1110    5.2212    3.4376 N   0  0  0  0  0  0  0  0  0  0  0  0
   18.0749    4.1797    3.0364 C   0  0  0  0  0  0  0  0  0  0  0  0
   19.5221    4.7172    2.9986 C   0  0  0  0  0  0  0  0  0  0  0  0
   19.7237    5.8824    2.1178 N   0  0  0  0  0  0  0  0  0  0  0  0
   19.6808    5.4966    0.7094 C   0  0  0  0  0  0  0  0  0  0  0  0
   18.7038    6.9032    2.4390 C   0  0  0  0  0  0  0  0  0  0  0  0
   17.2462    6.3823    2.5299 C   0  0  0  0  0  0  0  0  0  0  0  0
   10.4527   -0.4186    2.8646 C   0  0  0  0  0  0  0  0  0  0  0  0
    9.1451   -0.8113    2.6010 C   0  0  0  0  0  0  0  0  0  0  0  0
    8.8403   -1.7052    1.6244 N   0  0  0  0  0  0  0  0  0  0  0  0
    7.5299   -1.9555    1.3398 C   0  0  0  0  0  0  0  0  0  0  0  0
    7.3141   -2.8839    0.2783 N   0  0  0  0  0  0  0  0  0  0  0  0
    7.0744   -2.3799   -0.9872 C   0  0  0  0  0  0  0  0  0  0  0  0
    7.0149   -1.1803   -1.2510 O   0  0  0  0  0  0  0  0  0  0  0  0
    6.9515   -3.3848   -1.9380 N   0  0  0  0  0  0  0  0  0  0  0  0
    6.8286   -3.1209   -3.3991 C   0  0  0  0  0  0  0  0  0  0  0  0
    8.1199   -2.4678   -3.9242 C   0  0  0  0  0  0  0  0  0  0  0  0
    6.6272   -4.4427   -4.1760 C   0  0  0  0  0  0  0  0  0  0  0  0
    5.6264   -2.2185   -3.7238 C   0  0  0  0  0  0  0  0  0  0  0  0
    4.6033   -3.0642    1.6424 C   0  0  0  0  0  0  0  0  0  0  0  0
    1.7218   -6.2962    1.3688 H   0  0  0  0  0  0  0  0  0  0  0  0
    1.0360   -4.7668    0.7982 H   0  0  0  0  0  0  0  0  0  0  0  0
    1.3573   -5.0405    2.5559 H   0  0  0  0  0  0  0  0  0  0  0  0
    1.2399   -2.7536    2.0380 H   0  0  0  0  0  0  0  0  0  0  0  0
    0.3162    0.1606    4.1225 H   0  0  0  0  0  0  0  0  0  0  0  0
    0.8664   -1.5155    4.1278 H   0  0  0  0  0  0  0  0  0  0  0  0
   -0.1356   -0.8877    2.7668 H   0  0  0  0  0  0  0  0  0  0  0  0
    4.2760    0.1997    2.5236 H   0  0  0  0  0  0  0  0  0  0  0  0
    6.0672   -0.1777    3.8234 H   0  0  0  0  0  0  0  0  0  0  0  0
    7.7764    1.0951    5.0638 H   0  0  0  0  0  0  0  0  0  0  0  0
   12.7610    0.6751    3.4328 H   0  0  0  0  0  0  0  0  0  0  0  0
   12.3175    0.6645    6.1936 H   0  0  0  0  0  0  0  0  0  0  0  0
   11.7557    2.2641    5.6779 H   0  0  0  0  0  0  0  0  0  0  0  0
   14.5324    1.1025    5.1149 H   0  0  0  0  0  0  0  0  0  0  0  0
   14.1405    2.2273    6.4145 H   0  0  0  0  0  0  0  0  0  0  0  0
   13.3984    3.9349    4.7446 H   0  0  0  0  0  0  0  0  0  0  0  0
   13.7736    2.8186    3.4289 H   0  0  0  0  0  0  0  0  0  0  0  0
   16.1304    2.7186    4.1678 H   0  0  0  0  0  0  0  0  0  0  0  0
   15.8066    3.8869    5.4530 H   0  0  0  0  0  0  0  0  0  0  0  0
   15.0669    5.5623    3.7655 H   0  0  0  0  0  0  0  0  0  0  0  0
   15.4045    4.4307    2.4538 H   0  0  0  0  0  0  0  0  0  0  0  0
   17.8019    3.7590    2.0599 H   0  0  0  0  0  0  0  0  0  0  0  0
   18.0719    3.3563    3.7568 H   0  0  0  0  0  0  0  0  0  0  0  0
   20.2055    3.9057    2.7195 H   0  0  0  0  0  0  0  0  0  0  0  0
   19.8116    5.0055    4.0184 H   0  0  0  0  0  0  0  0  0  0  0  0
   20.4374    4.7312    0.5009 H   0  0  0  0  0  0  0  0  0  0  0  0
   19.9253    6.3551    0.0748 H   0  0  0  0  0  0  0  0  0  0  0  0
   18.7089    5.1052    0.3929 H   0  0  0  0  0  0  0  0  0  0  0  0
   18.7563    7.7258    1.7155 H   0  0  0  0  0  0  0  0  0  0  0  0
   18.9713    7.3469    3.4082 H   0  0  0  0  0  0  0  0  0  0  0  0
   16.8930    6.1233    1.5230 H   0  0  0  0  0  0  0  0  0  0  0  0
   16.6149    7.2038    2.8902 H   0  0  0  0  0  0  0  0  0  0  0  0
   11.2524   -0.8327    2.2607 H   0  0  0  0  0  0  0  0  0  0  0  0
    8.0885   -3.5303    0.2199 H   0  0  0  0  0  0  0  0  0  0  0  0
    6.5252   -4.2290   -1.5895 H   0  0  0  0  0  0  0  0  0  0  0  0
    8.9865   -3.1177   -3.7539 H   0  0  0  0  0  0  0  0  0  0  0  0
    8.3246   -1.5147   -3.4286 H   0  0  0  0  0  0  0  0  0  0  0  0
    8.0555   -2.2703   -5.0005 H   0  0  0  0  0  0  0  0  0  0  0  0
    7.4731   -5.1277   -4.0523 H   0  0  0  0  0  0  0  0  0  0  0  0
    6.5207   -4.2497   -5.2526 H   0  0  0  0  0  0  0  0  0  0  0  0
    5.7216   -4.9683   -3.8519 H   0  0  0  0  0  0  0  0  0  0  0  0
    5.7402   -1.2138   -3.3096 H   0  0  0  0  0  0  0  0  0  0  0  0
    4.6962   -2.6418   -3.3302 H   0  0  0  0  0  0  0  0  0  0  0  0
    5.5092   -2.1004   -4.8081 H   0  0  0  0  0  0  0  0  0  0  0  0
    5.3302   -3.8421    1.4241 H   0  0  0  0  0  0  0  0  0  0  0  0
  1  2  1  0  0  0  0
  1 42  1  0  0  0  0
  1 43  1  0  0  0  0
  1 44  1  0  0  0  0
  2  3  1  0  0  0  0
  3  4  1  0  0  0  0
  3 41  2  0  0  0  0
  4  5  2  0  0  0  0
  4 45  1  0  0  0  0
  5  6  1  0  0  0  0
  5  8  1  0  0  0  0
  6  7  1  0  0  0  0
  7 46  1  0  0  0  0
  7 47  1  0  0  0  0
  7 48  1  0  0  0  0
  8  9  2  0  0  0  0
  8 49  1  0  0  0  0
  9 10  1  0  0  0  0
  9 41  1  0  0  0  0
 10 11  1  0  0  0  0
 10 32  2  0  0  0  0
 11 12  2  0  0  0  0
 11 50  1  0  0  0  0
 12 13  1  0  0  0  0
 12 30  1  0  0  0  0
 13 14  2  0  0  0  0
 13 51  1  0  0  0  0
 14 15  1  0  0  0  0
 15 16  1  0  0  0  0
 15 29  2  0  0  0  0
 16 17  1  0  0  0  0
 16 52  1  0  0  0  0
 17 18  1  0  0  0  0
 17 53  1  0  0  0  0
 17 54  1  0  0  0  0
 18 19  1  0  0  0  0
 18 55  1  0  0  0  0
 18 56  1  0  0  0  0
 19 20  1  0  0  0  0
 19 57  1  0  0  0  0
 19 58  1  0  0  0  0
 20 21  1  0  0  0  0
 20 59  1  0  0  0  0
 20 60  1  0  0  0  0
 21 22  1  0  0  0  0
 21 61  1  0  0  0  0
 21 62  1  0  0  0  0
 22 23  1  0  0  0  0
 22 28  1  0  0  0  0
 23 24  1  0  0  0  0
 23 63  1  0  0  0  0
 23 64  1  0  0  0  0
 24 25  1  0  0  0  0
 24 65  1  0  0  0  0
 24 66  1  0  0  0  0
 25 26  1  0  0  0  0
 25 27  1  0  0  0  0
 26 67  1  0  0  0  0
 26 68  1  0  0  0  0
 26 69  1  0  0  0  0
 27 28  1  0  0  0  0
 27 70  1  0  0  0  0
 27 71  1  0  0  0  0
 28 72  1  0  0  0  0
 28 73  1  0  0  0  0
 29 30  1  0  0  0  0
 29 74  1  0  0  0  0
 30 31  2  0  0  0  0
 31 32  1  0  0  0  0
 32 33  1  0  0  0  0
 33 34  1  0  0  0  0
 33 75  1  0  0  0  0
 34 35  2  0  0  0  0
 34 36  1  0  0  0  0
 36 37  1  0  0  0  0
 36 76  1  0  0  0  0
 37 38  1  0  0  0  0
 37 39  1  0  0  0  0
 37 40  1  0  0  0  0
 38 77  1  0  0  0  0
 38 78  1  0  0  0  0
 38 79  1  0  0  0  0
 39 80  1  0  0  0  0
 39 81  1  0  0  0  0
 39 82  1  0  0  0  0
 40 83  1  0  0  0  0
 40 84  1  0  0  0  0
 40 85  1  0  0  0  0
 41 86  1  0  0  0  0
M  END
$$$$
