CHEMBL3918687
 OpenBabel04072215373D

 46 49  0  0  0  0  0  0  0  0999 V2000
    3.4728    5.1341    1.8780 C   0  0  0  0  0  0  0  0  0  0  0  0
    2.1336    5.7498    1.5948 C   0  0  0  0  0  0  0  0  0  0  0  0
    1.9458    7.1213    1.7890 C   0  0  0  0  0  0  0  0  0  0  0  0
    0.7126    7.6982    1.5092 C   0  0  0  0  0  0  0  0  0  0  0  0
   -0.3427    6.9154    1.0543 C   0  0  0  0  0  0  0  0  0  0  0  0
   -1.4575    7.5772    0.7223 F   0  0  0  0  0  0  0  0  0  0  0  0
   -0.2136    5.5295    0.8975 C   0  0  0  0  0  0  0  0  0  0  0  0
   -1.2551    4.6438    0.5101 N   0  0  0  0  0  0  0  0  0  0  0  0
   -2.6156    4.9220    0.4616 C   0  0  0  0  0  0  0  0  0  0  0  0
   -3.1507    5.9914    0.7200 O   0  0  0  0  0  0  0  0  0  0  0  0
   -3.3534    3.7817    0.1639 N   0  0  0  0  0  0  0  0  0  0  0  0
   -4.7460    3.8619    0.0732 C   0  0  0  0  0  0  0  0  0  0  0  0
   -5.5643    2.9650    0.7165 C   0  0  0  0  0  0  0  0  0  0  0  0
   -7.2141    3.3370    0.5104 S   0  0  0  0  0  0  0  0  0  0  0  0
   -6.8747    4.6220   -0.5948 C   0  0  0  0  0  0  0  0  0  0  0  0
   -7.9664    5.2598   -1.3112 C   0  0  0  0  0  0  0  0  0  0  0  0
   -9.1476    4.6245   -1.6750 C   0  0  0  0  0  0  0  0  0  0  0  0
   -9.9432    5.5070   -2.4320 C   0  0  0  0  0  0  0  0  0  0  0  0
  -11.2163    5.3950   -3.0259 C   0  0  0  0  0  0  0  0  0  0  0  0
  -11.7651    6.4932   -3.6918 C   0  0  0  0  0  0  0  0  0  0  0  0
  -11.0569    7.6858   -3.7802 C   0  0  0  0  0  0  0  0  0  0  0  0
   -9.7808    7.8060   -3.2206 C   0  0  0  0  0  0  0  0  0  0  0  0
   -9.2283    6.6949   -2.5531 C   0  0  0  0  0  0  0  0  0  0  0  0
   -8.0093    6.5476   -1.8716 N   0  0  0  0  0  0  0  0  0  0  0  0
   -7.0530    7.5863   -1.7931 C   0  0  0  0  0  0  0  0  0  0  0  0
   -6.5329    7.7465   -0.5453 N   0  0  0  0  0  0  0  0  0  0  0  0
   -6.8309    8.3140   -2.7452 O   0  0  0  0  0  0  0  0  0  0  0  0
   -5.5063    4.8248   -0.6747 C   0  0  0  0  0  0  0  0  0  0  0  0
    1.0516    4.9627    1.1492 C   0  0  0  0  0  0  0  0  0  0  0  0
    4.2035    5.8889    2.1924 H   0  0  0  0  0  0  0  0  0  0  0  0
    3.8673    4.6504    0.9765 H   0  0  0  0  0  0  0  0  0  0  0  0
    3.3906    4.3965    2.6818 H   0  0  0  0  0  0  0  0  0  0  0  0
    2.7580    7.7535    2.1385 H   0  0  0  0  0  0  0  0  0  0  0  0
    0.5614    8.7676    1.6271 H   0  0  0  0  0  0  0  0  0  0  0  0
   -0.9878    3.7003    0.2987 H   0  0  0  0  0  0  0  0  0  0  0  0
   -2.9959    2.9312    0.5744 H   0  0  0  0  0  0  0  0  0  0  0  0
   -5.2831    2.1437    1.3598 H   0  0  0  0  0  0  0  0  0  0  0  0
   -9.4115    3.6020   -1.4354 H   0  0  0  0  0  0  0  0  0  0  0  0
  -11.7763    4.4667   -2.9542 H   0  0  0  0  0  0  0  0  0  0  0  0
  -12.7536    6.4148   -4.1369 H   0  0  0  0  0  0  0  0  0  0  0  0
  -11.4986    8.5391   -4.2901 H   0  0  0  0  0  0  0  0  0  0  0  0
   -9.2406    8.7463   -3.2974 H   0  0  0  0  0  0  0  0  0  0  0  0
   -6.8596    7.2472    0.2701 H   0  0  0  0  0  0  0  0  0  0  0  0
   -5.8939    8.5163   -0.3996 H   0  0  0  0  0  0  0  0  0  0  0  0
   -5.0442    5.5877   -1.2903 H   0  0  0  0  0  0  0  0  0  0  0  0
    1.2100    3.8924    1.0220 H   0  0  0  0  0  0  0  0  0  0  0  0
  1  2  1  0  0  0  0
  1 30  1  0  0  0  0
  1 31  1  0  0  0  0
  1 32  1  0  0  0  0
  2  3  1  0  0  0  0
  2 29  2  0  0  0  0
  3  4  2  0  0  0  0
  3 33  1  0  0  0  0
  4  5  1  0  0  0  0
  4 34  1  0  0  0  0
  5  6  1  0  0  0  0
  5  7  2  0  0  0  0
  7  8  1  0  0  0  0
  7 29  1  0  0  0  0
  8  9  1  0  0  0  0
  8 35  1  0  0  0  0
  9 10  2  0  0  0  0
  9 11  1  0  0  0  0
 11 12  1  0  0  0  0
 11 36  1  0  0  0  0
 12 13  2  0  0  0  0
 12 28  1  0  0  0  0
 13 14  1  0  0  0  0
 13 37  1  0  0  0  0
 14 15  1  0  0  0  0
 15 16  1  0  0  0  0
 15 28  2  0  0  0  0
 16 17  2  0  0  0  0
 16 24  1  0  0  0  0
 17 18  1  0  0  0  0
 17 38  1  0  0  0  0
 18 19  1  0  0  0  0
 18 23  2  0  0  0  0
 19 20  2  0  0  0  0
 19 39  1  0  0  0  0
 20 21  1  0  0  0  0
 20 40  1  0  0  0  0
 21 22  2  0  0  0  0
 21 41  1  0  0  0  0
 22 23  1  0  0  0  0
 22 42  1  0  0  0  0
 23 24  1  0  0  0  0
 24 25  1  0  0  0  0
 25 26  1  0  0  0  0
 25 27  2  0  0  0  0
 26 43  1  0  0  0  0
 26 44  1  0  0  0  0
 28 45  1  0  0  0  0
 29 46  1  0  0  0  0
M  END
$$$$
