CHEMBL4584949
 OpenBabel04072215383D

 63 68  0  0  0  0  0  0  0  0999 V2000
    6.1629    3.5928    2.1674 C   0  0  0  0  0  0  0  0  0  0  0  0
    5.6496    2.2947    1.7269 N   0  0  0  0  0  0  0  0  0  0  0  0
    4.3589    2.1366    1.2607 C   0  0  0  0  0  0  0  0  0  0  0  0
    3.8162    0.9997    0.8028 C   0  0  0  0  0  0  0  0  0  0  0  0
    2.3988    0.9610    0.4246 C   0  0  0  0  0  0  0  0  0  0  0  0
    1.9960    1.2659   -0.8828 C   0  0  0  0  0  0  0  0  0  0  0  0
    0.6382    1.2780   -1.2134 C   0  0  0  0  0  0  0  0  0  0  0  0
   -0.3102    0.9873   -0.2388 C   0  0  0  0  0  0  0  0  0  0  0  0
   -1.6113    1.0089   -0.5562 F   0  0  0  0  0  0  0  0  0  0  0  0
    0.0713    0.6792    1.0614 C   0  0  0  0  0  0  0  0  0  0  0  0
    1.4272    0.6664    1.3947 C   0  0  0  0  0  0  0  0  0  0  0  0
    4.6929   -0.2040    0.7505 C   0  0  0  0  0  0  0  0  0  0  0  0
    4.2749   -1.2761    0.3173 O   0  0  0  0  0  0  0  0  0  0  0  0
    6.0764   -0.0755    1.2875 C   0  0  0  0  0  0  0  0  0  0  0  0
    6.9370   -1.1832    1.3330 C   0  0  0  0  0  0  0  0  0  0  0  0
    6.6565   -2.3633    0.6142 N   0  0  0  0  0  0  0  0  0  0  0  0
    7.3111   -3.6065    0.7065 C   0  0  0  0  0  0  0  0  0  0  0  0
    7.3002   -4.4568   -0.4050 C   0  0  0  0  0  0  0  0  0  0  0  0
    7.9135   -5.7137   -0.3536 C   0  0  0  0  0  0  0  0  0  0  0  0
    8.5874   -6.1238    0.8029 C   0  0  0  0  0  0  0  0  0  0  0  0
    9.2141   -7.3460    0.9516 O   0  0  0  0  0  0  0  0  0  0  0  0
    9.7865   -7.9428   -0.1509 C   0  0  0  0  0  0  0  0  0  0  0  0
   10.4388   -7.2159   -1.1401 C   0  0  0  0  0  0  0  0  0  0  0  0
   10.8805   -7.9026   -2.2438 C   0  0  0  0  0  0  0  0  0  0  0  0
   10.7650   -9.2348   -2.3779 N   0  0  0  0  0  0  0  0  0  0  0  0
   10.2053   -9.9513   -1.3868 C   0  0  0  0  0  0  0  0  0  0  0  0
   10.1028  -11.3488   -1.5261 N   0  0  0  0  0  0  0  0  0  0  0  0
   10.4487  -12.0195   -2.6884 C   0  0  0  0  0  0  0  0  0  0  0  0
   10.8462  -11.5329   -3.7333 O   0  0  0  0  0  0  0  0  0  0  0  0
   10.2964  -13.5053   -2.6856 C   0  0  0  0  0  0  0  0  0  0  0  0
    8.9195  -14.1164   -2.5728 C   0  0  0  0  0  0  0  0  0  0  0  0
    9.9575  -14.3947   -1.5227 C   0  0  0  0  0  0  0  0  0  0  0  0
    9.7161   -9.3377   -0.2389 C   0  0  0  0  0  0  0  0  0  0  0  0
    8.5909   -5.2787    1.9097 C   0  0  0  0  0  0  0  0  0  0  0  0
    9.2033   -5.6519    3.0437 F   0  0  0  0  0  0  0  0  0  0  0  0
    7.9615   -4.0378    1.8671 C   0  0  0  0  0  0  0  0  0  0  0  0
    8.1517   -1.0926    1.9281 N   0  0  0  0  0  0  0  0  0  0  0  0
    8.5329    0.0781    2.4573 C   0  0  0  0  0  0  0  0  0  0  0  0
    7.7690    1.2241    2.3931 C   0  0  0  0  0  0  0  0  0  0  0  0
    6.5009    1.1675    1.8061 C   0  0  0  0  0  0  0  0  0  0  0  0
    5.4135    4.3838    2.0540 H   0  0  0  0  0  0  0  0  0  0  0  0
    7.0332    3.8872    1.5693 H   0  0  0  0  0  0  0  0  0  0  0  0
    6.4401    3.5655    3.2269 H   0  0  0  0  0  0  0  0  0  0  0  0
    3.7612    3.0450    1.3118 H   0  0  0  0  0  0  0  0  0  0  0  0
    2.7334    1.4940   -1.6489 H   0  0  0  0  0  0  0  0  0  0  0  0
    0.3145    1.5127   -2.2226 H   0  0  0  0  0  0  0  0  0  0  0  0
   -0.6860    0.4524    1.8051 H   0  0  0  0  0  0  0  0  0  0  0  0
    1.7209    0.4261    2.4143 H   0  0  0  0  0  0  0  0  0  0  0  0
    5.6559   -2.4595    0.4110 H   0  0  0  0  0  0  0  0  0  0  0  0
    6.8310   -4.1307   -1.3315 H   0  0  0  0  0  0  0  0  0  0  0  0
    7.8649   -6.3464   -1.2352 H   0  0  0  0  0  0  0  0  0  0  0  0
   10.5661   -6.1415   -1.0847 H   0  0  0  0  0  0  0  0  0  0  0  0
   11.3353   -7.3914   -3.0865 H   0  0  0  0  0  0  0  0  0  0  0  0
    9.7145  -11.8702   -0.7581 H   0  0  0  0  0  0  0  0  0  0  0  0
   10.9502  -13.9576   -3.4316 H   0  0  0  0  0  0  0  0  0  0  0  0
    8.6707  -14.8978   -3.2830 H   0  0  0  0  0  0  0  0  0  0  0  0
    8.0847  -13.4759   -2.3140 H   0  0  0  0  0  0  0  0  0  0  0  0
   10.4102  -15.3828   -1.5166 H   0  0  0  0  0  0  0  0  0  0  0  0
    9.8146  -13.9843   -0.5342 H   0  0  0  0  0  0  0  0  0  0  0  0
    9.2639   -9.9055    0.5662 H   0  0  0  0  0  0  0  0  0  0  0  0
    7.9820   -3.4208    2.7592 H   0  0  0  0  0  0  0  0  0  0  0  0
    9.5059    0.0703    2.9389 H   0  0  0  0  0  0  0  0  0  0  0  0
    8.1799    2.1309    2.8182 H   0  0  0  0  0  0  0  0  0  0  0  0
  1  2  1  0  0  0  0
  1 41  1  0  0  0  0
  1 42  1  0  0  0  0
  1 43  1  0  0  0  0
  2  3  1  0  0  0  0
  2 40  1  0  0  0  0
  3  4  2  0  0  0  0
  3 44  1  0  0  0  0
  4  5  1  0  0  0  0
  4 12  1  0  0  0  0
  5  6  1  0  0  0  0
  5 11  2  0  0  0  0
  6  7  2  0  0  0  0
  6 45  1  0  0  0  0
  7  8  1  0  0  0  0
  7 46  1  0  0  0  0
  8  9  1  0  0  0  0
  8 10  2  0  0  0  0
 10 11  1  0  0  0  0
 10 47  1  0  0  0  0
 11 48  1  0  0  0  0
 12 13  2  0  0  0  0
 12 14  1  0  0  0  0
 14 15  1  0  0  0  0
 14 40  2  0  0  0  0
 15 16  1  0  0  0  0
 15 37  2  0  0  0  0
 16 17  1  0  0  0  0
 16 49  1  0  0  0  0
 17 18  1  0  0  0  0
 17 36  2  0  0  0  0
 18 19  2  0  0  0  0
 18 50  1  0  0  0  0
 19 20  1  0  0  0  0
 19 51  1  0  0  0  0
 20 21  1  0  0  0  0
 20 34  2  0  0  0  0
 21 22  1  0  0  0  0
 22 23  1  0  0  0  0
 22 33  2  0  0  0  0
 23 24  2  0  0  0  0
 23 52  1  0  0  0  0
 24 25  1  0  0  0  0
 24 53  1  0  0  0  0
 25 26  2  0  0  0  0
 26 27  1  0  0  0  0
 26 33  1  0  0  0  0
 27 28  1  0  0  0  0
 27 54  1  0  0  0  0
 28 29  2  0  0  0  0
 28 30  1  0  0  0  0
 30 31  1  0  0  0  0
 30 32  1  0  0  0  0
 30 55  1  0  0  0  0
 31 32  1  0  0  0  0
 31 56  1  0  0  0  0
 31 57  1  0  0  0  0
 32 58  1  0  0  0  0
 32 59  1  0  0  0  0
 33 60  1  0  0  0  0
 34 35  1  0  0  0  0
 34 36  1  0  0  0  0
 36 61  1  0  0  0  0
 37 38  1  0  0  0  0
 38 39  2  0  0  0  0
 38 62  1  0  0  0  0
 39 40  1  0  0  0  0
 39 63  1  0  0  0  0
M  END
$$$$
