CHEMBL3287315
 OpenBabel04072215363D

 67 71  0  0  0  0  0  0  0  0999 V2000
   17.6630   -6.1631   -1.6931 C   0  0  0  0  0  0  0  0  0  0  0  0
   16.2305   -5.8678   -0.6837 S   0  0  0  0  0  0  0  0  0  0  0  0
   15.0896   -5.8161   -1.5785 O   0  0  0  0  0  0  0  0  0  0  0  0
   16.2998   -6.8181    0.4102 O   0  0  0  0  0  0  0  0  0  0  0  0
   16.5692   -4.2244   -0.0624 C   0  0  0  0  0  0  0  0  0  0  0  0
   15.4714   -3.7958    0.8709 C   0  0  0  0  0  0  0  0  0  0  0  0
   15.5552   -4.1243    2.2300 C   0  0  0  0  0  0  0  0  0  0  0  0
   14.5689   -3.7056    3.1086 C   0  0  0  0  0  0  0  0  0  0  0  0
   13.4888   -2.9671    2.6327 C   0  0  0  0  0  0  0  0  0  0  0  0
   13.3497   -2.6363    1.2758 C   0  0  0  0  0  0  0  0  0  0  0  0
   12.2971   -1.8331    0.7946 N   0  0  0  0  0  0  0  0  0  0  0  0
   11.3323   -1.1350    1.5225 C   0  0  0  0  0  0  0  0  0  0  0  0
   10.1757   -0.8166    0.9294 N   0  0  0  0  0  0  0  0  0  0  0  0
    9.2520   -0.1924    1.6975 C   0  0  0  0  0  0  0  0  0  0  0  0
    9.4494    0.1667    3.0114 C   0  0  0  0  0  0  0  0  0  0  0  0
   10.6905   -0.1299    3.4977 C   0  0  0  0  0  0  0  0  0  0  0  0
   11.0346    0.2791    4.7823 O   0  0  0  0  0  0  0  0  0  0  0  0
   12.3877    0.4323    5.0274 C   0  0  0  0  0  0  0  0  0  0  0  0
   13.2402    1.0653    4.1182 C   0  0  0  0  0  0  0  0  0  0  0  0
   14.6111    1.1416    4.3636 C   0  0  0  0  0  0  0  0  0  0  0  0
   15.1510    0.6369    5.5454 C   0  0  0  0  0  0  0  0  0  0  0  0
   16.5299    0.6737    5.8253 N   0  0  0  0  0  0  0  0  0  0  0  0
   17.4966    1.3593    5.1134 C   0  0  0  0  0  0  0  0  0  0  0  0
   17.3376    2.1315    4.1788 O   0  0  0  0  0  0  0  0  0  0  0  0
   18.8946    1.0919    5.5788 C   0  0  0  0  0  0  0  0  0  0  0  0
   19.5122   -0.0997    4.9258 C   0  0  0  0  0  0  0  0  0  0  0  0
   19.1672   -1.2036    5.3331 O   0  0  0  0  0  0  0  0  0  0  0  0
   20.4331    0.1377    3.9198 N   0  0  0  0  0  0  0  0  0  0  0  0
   21.0039   -0.9253    3.1897 C   0  0  0  0  0  0  0  0  0  0  0  0
   20.2202   -1.9995    2.7501 C   0  0  0  0  0  0  0  0  0  0  0  0
   20.8090   -3.0944    2.1183 C   0  0  0  0  0  0  0  0  0  0  0  0
   22.1889   -3.1277    1.9388 C   0  0  0  0  0  0  0  0  0  0  0  0
   22.9697   -2.0427    2.3420 C   0  0  0  0  0  0  0  0  0  0  0  0
   22.3748   -0.9237    2.9352 C   0  0  0  0  0  0  0  0  0  0  0  0
   19.2222    1.2857    7.0647 C   0  0  0  0  0  0  0  0  0  0  0  0
   19.7091    2.2848    6.0654 C   0  0  0  0  0  0  0  0  0  0  0  0
   14.2941    0.0466    6.4835 C   0  0  0  0  0  0  0  0  0  0  0  0
   12.9223   -0.0433    6.2220 C   0  0  0  0  0  0  0  0  0  0  0  0
   12.1272   -0.6065    7.1442 F   0  0  0  0  0  0  0  0  0  0  0  0
   11.6053   -0.7926    2.7812 N   0  0  0  0  0  0  0  0  0  0  0  0
   14.3656   -3.0549    0.4042 C   0  0  0  0  0  0  0  0  0  0  0  0
   17.5670   -7.1528   -2.1438 H   0  0  0  0  0  0  0  0  0  0  0  0
   18.5550   -6.1253   -1.0640 H   0  0  0  0  0  0  0  0  0  0  0  0
   17.7083   -5.3995   -2.4718 H   0  0  0  0  0  0  0  0  0  0  0  0
   16.6534   -3.5454   -0.9153 H   0  0  0  0  0  0  0  0  0  0  0  0
   17.5315   -4.2497    0.4604 H   0  0  0  0  0  0  0  0  0  0  0  0
   16.3856   -4.7110    2.6167 H   0  0  0  0  0  0  0  0  0  0  0  0
   14.6280   -3.9480    4.1659 H   0  0  0  0  0  0  0  0  0  0  0  0
   12.7405   -2.6761    3.3628 H   0  0  0  0  0  0  0  0  0  0  0  0
   11.9973   -1.9905   -0.1552 H   0  0  0  0  0  0  0  0  0  0  0  0
    8.3107    0.0210    1.1981 H   0  0  0  0  0  0  0  0  0  0  0  0
    8.6966    0.6655    3.6021 H   0  0  0  0  0  0  0  0  0  0  0  0
   12.8630    1.4529    3.1758 H   0  0  0  0  0  0  0  0  0  0  0  0
   15.2331    1.5633    3.5806 H   0  0  0  0  0  0  0  0  0  0  0  0
   16.8515    0.1112    6.6051 H   0  0  0  0  0  0  0  0  0  0  0  0
   20.8846    1.0425    3.8881 H   0  0  0  0  0  0  0  0  0  0  0  0
   19.1417   -1.9911    2.8941 H   0  0  0  0  0  0  0  0  0  0  0  0
   20.1925   -3.9284    1.7952 H   0  0  0  0  0  0  0  0  0  0  0  0
   22.6571   -4.0027    1.4953 H   0  0  0  0  0  0  0  0  0  0  0  0
   24.0493   -2.0829    2.2199 H   0  0  0  0  0  0  0  0  0  0  0  0
   23.0052   -0.1060    3.2703 H   0  0  0  0  0  0  0  0  0  0  0  0
   19.9553    0.6256    7.5183 H   0  0  0  0  0  0  0  0  0  0  0  0
   18.4265    1.5794    7.7402 H   0  0  0  0  0  0  0  0  0  0  0  0
   20.7734    2.3294    5.8781 H   0  0  0  0  0  0  0  0  0  0  0  0
   19.2260    3.2590    6.0662 H   0  0  0  0  0  0  0  0  0  0  0  0
   14.6686   -0.3420    7.4247 H   0  0  0  0  0  0  0  0  0  0  0  0
   14.3027   -2.7948   -0.6507 H   0  0  0  0  0  0  0  0  0  0  0  0
  1  2  1  0  0  0  0
  1 42  1  0  0  0  0
  1 43  1  0  0  0  0
  1 44  1  0  0  0  0
  2  3  2  0  0  0  0
  2  4  2  0  0  0  0
  2  5  1  0  0  0  0
  5  6  1  0  0  0  0
  5 45  1  0  0  0  0
  5 46  1  0  0  0  0
  6  7  1  0  0  0  0
  6 41  2  0  0  0  0
  7  8  2  0  0  0  0
  7 47  1  0  0  0  0
  8  9  1  0  0  0  0
  8 48  1  0  0  0  0
  9 10  2  0  0  0  0
  9 49  1  0  0  0  0
 10 11  1  0  0  0  0
 10 41  1  0  0  0  0
 11 12  1  0  0  0  0
 11 50  1  0  0  0  0
 12 13  1  0  0  0  0
 12 40  2  0  0  0  0
 13 14  2  0  0  0  0
 14 15  1  0  0  0  0
 14 51  1  0  0  0  0
 15 16  2  0  0  0  0
 15 52  1  0  0  0  0
 16 17  1  0  0  0  0
 16 40  1  0  0  0  0
 17 18  1  0  0  0  0
 18 19  1  0  0  0  0
 18 38  2  0  0  0  0
 19 20  2  0  0  0  0
 19 53  1  0  0  0  0
 20 21  1  0  0  0  0
 20 54  1  0  0  0  0
 21 22  1  0  0  0  0
 21 37  2  0  0  0  0
 22 23  1  0  0  0  0
 22 55  1  0  0  0  0
 23 24  2  0  0  0  0
 23 25  1  0  0  0  0
 25 26  1  0  0  0  0
 25 35  1  0  0  0  0
 25 36  1  0  0  0  0
 26 27  2  0  0  0  0
 26 28  1  0  0  0  0
 28 29  1  0  0  0  0
 28 56  1  0  0  0  0
 29 30  1  0  0  0  0
 29 34  2  0  0  0  0
 30 31  2  0  0  0  0
 30 57  1  0  0  0  0
 31 32  1  0  0  0  0
 31 58  1  0  0  0  0
 32 33  2  0  0  0  0
 32 59  1  0  0  0  0
 33 34  1  0  0  0  0
 33 60  1  0  0  0  0
 34 61  1  0  0  0  0
 35 36  1  0  0  0  0
 35 62  1  0  0  0  0
 35 63  1  0  0  0  0
 36 64  1  0  0  0  0
 36 65  1  0  0  0  0
 37 38  1  0  0  0  0
 37 66  1  0  0  0  0
 38 39  1  0  0  0  0
 41 67  1  0  0  0  0
M  END
$$$$
