CHEMBL2063327
 OpenBabel04072215363D

 76 80  0  0  0  0  0  0  0  0999 V2000
    0.8877    0.3677   -0.2450 O   0  0  0  0  0  0  0  0  0  0  0  0
    1.4614    1.1544   -0.9612 C   0  0  0  0  0  0  0  0  0  0  0  0
    2.2846    2.1598   -0.4716 N   0  0  0  0  0  0  0  0  0  0  0  0
    2.4512    2.2917    0.9613 C   0  0  0  0  0  0  0  0  0  0  0  0
    3.3634    3.4225    1.3789 C   0  0  0  0  0  0  0  0  0  0  0  0
    2.8316    4.7019    1.5868 C   0  0  0  0  0  0  0  0  0  0  0  0
    3.6459    5.7491    2.0261 C   0  0  0  0  0  0  0  0  0  0  0  0
    5.0133    5.5434    2.2541 C   0  0  0  0  0  0  0  0  0  0  0  0
    5.8451    6.6380    2.7441 C   0  0  0  0  0  0  0  0  0  0  0  0
    5.4193    7.7013    3.5772 C   0  0  0  0  0  0  0  0  0  0  0  0
    6.5178    8.4990    3.7859 C   0  0  0  0  0  0  0  0  0  0  0  0
    6.6128    9.6594    4.5538 N   0  0  0  0  0  0  0  0  0  0  0  0
    5.4773   10.1938    5.2619 C   0  0  0  0  0  0  0  0  0  0  0  0
    4.3828    9.6504    5.2157 O   0  0  0  0  0  0  0  0  0  0  0  0
    5.6486   11.4181    6.0671 C   0  0  0  0  0  0  0  0  0  0  0  0
    6.5883   12.3997    5.7508 C   0  0  0  0  0  0  0  0  0  0  0  0
    6.5992   13.6000    6.4767 C   0  0  0  0  0  0  0  0  0  0  0  0
    5.6821   13.8122    7.5127 C   0  0  0  0  0  0  0  0  0  0  0  0
    5.5991   14.9360    8.2869 O   0  0  0  0  0  0  0  0  0  0  0  0
    5.9795   16.1583    7.6565 C   0  0  0  0  0  0  0  0  0  0  0  0
    5.1804   17.2945    8.2784 C   0  0  0  0  0  0  0  0  0  0  0  0
    5.5581   18.6306    7.6292 C   0  0  0  0  0  0  0  0  0  0  0  0
    4.8007   19.7575    8.1930 N   0  0  0  0  0  0  0  0  0  0  0  0
    3.3475   19.6082    8.0109 C   0  0  0  0  0  0  0  0  0  0  0  0
    3.0734   20.1741    6.6356 C   0  0  0  0  0  0  0  0  0  0  0  0
    3.9683   21.3945    6.6134 C   0  0  0  0  0  0  0  0  0  0  0  0
    5.1444   21.0279    7.5174 C   0  0  0  0  0  0  0  0  0  0  0  0
    4.7576   12.8199    7.8307 C   0  0  0  0  0  0  0  0  0  0  0  0
    4.7367   11.6276    7.1118 C   0  0  0  0  0  0  0  0  0  0  0  0
    7.5200    7.8979    3.0676 N   0  0  0  0  0  0  0  0  0  0  0  0
    7.1504    6.7581    2.4594 N   0  0  0  0  0  0  0  0  0  0  0  0
    5.5504    4.2695    2.0496 C   0  0  0  0  0  0  0  0  0  0  0  0
    4.7315    3.2170    1.6191 C   0  0  0  0  0  0  0  0  0  0  0  0
    1.4081    1.1581   -2.3327 O   0  0  0  0  0  0  0  0  0  0  0  0
    1.0808   -0.0941   -3.0015 C   0  0  0  0  0  0  0  0  0  0  0  0
   -0.2083   -0.0206   -3.7886 C   0  0  0  0  0  0  0  0  0  0  0  0
   -0.2091   -0.1741   -5.1846 C   0  0  0  0  0  0  0  0  0  0  0  0
   -1.4091   -0.1576   -5.8998 C   0  0  0  0  0  0  0  0  0  0  0  0
   -2.6198    0.0023   -5.2295 C   0  0  0  0  0  0  0  0  0  0  0  0
   -2.6312    0.1508   -3.8442 C   0  0  0  0  0  0  0  0  0  0  0  0
   -1.4324    0.1444   -3.1285 C   0  0  0  0  0  0  0  0  0  0  0  0
    2.5954    2.9120   -1.0690 H   0  0  0  0  0  0  0  0  0  0  0  0
    2.8347    1.3453    1.3632 H   0  0  0  0  0  0  0  0  0  0  0  0
    1.4545    2.4437    1.3943 H   0  0  0  0  0  0  0  0  0  0  0  0
    1.7709    4.8855    1.4328 H   0  0  0  0  0  0  0  0  0  0  0  0
    3.1952    6.7254    2.1908 H   0  0  0  0  0  0  0  0  0  0  0  0
    4.4178    7.8185    3.9653 H   0  0  0  0  0  0  0  0  0  0  0  0
    7.5172   10.0992    4.6566 H   0  0  0  0  0  0  0  0  0  0  0  0
    7.2736   12.2908    4.9163 H   0  0  0  0  0  0  0  0  0  0  0  0
    7.3134   14.3673    6.1923 H   0  0  0  0  0  0  0  0  0  0  0  0
    5.7614   16.1183    6.5829 H   0  0  0  0  0  0  0  0  0  0  0  0
    7.0466   16.3399    7.8172 H   0  0  0  0  0  0  0  0  0  0  0  0
    5.3561   17.3344    9.3606 H   0  0  0  0  0  0  0  0  0  0  0  0
    4.1173   17.0618    8.1597 H   0  0  0  0  0  0  0  0  0  0  0  0
    5.4339   18.5701    6.5402 H   0  0  0  0  0  0  0  0  0  0  0  0
    6.6296   18.7907    7.8124 H   0  0  0  0  0  0  0  0  0  0  0  0
    2.8367   20.2015    8.7777 H   0  0  0  0  0  0  0  0  0  0  0  0
    2.9710   18.5908    8.1146 H   0  0  0  0  0  0  0  0  0  0  0  0
    2.0195   20.4199    6.4849 H   0  0  0  0  0  0  0  0  0  0  0  0
    3.3737   19.4678    5.8520 H   0  0  0  0  0  0  0  0  0  0  0  0
    3.4297   22.2529    7.0331 H   0  0  0  0  0  0  0  0  0  0  0  0
    4.2822   21.6515    5.5976 H   0  0  0  0  0  0  0  0  0  0  0  0
    5.2856   21.8115    8.2707 H   0  0  0  0  0  0  0  0  0  0  0  0
    6.0769   20.9724    6.9429 H   0  0  0  0  0  0  0  0  0  0  0  0
    4.0252   12.9908    8.6167 H   0  0  0  0  0  0  0  0  0  0  0  0
    3.9870   10.8756    7.3569 H   0  0  0  0  0  0  0  0  0  0  0  0
    8.4804    8.1982    2.9461 H   0  0  0  0  0  0  0  0  0  0  0  0
    6.6039    4.0850    2.2516 H   0  0  0  0  0  0  0  0  0  0  0  0
    5.1743    2.2286    1.5041 H   0  0  0  0  0  0  0  0  0  0  0  0
    1.0198   -0.9491   -2.3070 H   0  0  0  0  0  0  0  0  0  0  0  0
    1.9116   -0.2908   -3.6985 H   0  0  0  0  0  0  0  0  0  0  0  0
    0.7230   -0.3154   -5.7267 H   0  0  0  0  0  0  0  0  0  0  0  0
   -1.3995   -0.2748   -6.9804 H   0  0  0  0  0  0  0  0  0  0  0  0
   -3.5536    0.0094   -5.7853 H   0  0  0  0  0  0  0  0  0  0  0  0
   -3.5754    0.2696   -3.3186 H   0  0  0  0  0  0  0  0  0  0  0  0
   -1.4613    0.2600   -2.0460 H   0  0  0  0  0  0  0  0  0  0  0  0
  1  2  2  0  0  0  0
  2  3  1  0  0  0  0
  2 34  1  0  0  0  0
  3  4  1  0  0  0  0
  3 42  1  0  0  0  0
  4  5  1  0  0  0  0
  4 43  1  0  0  0  0
  4 44  1  0  0  0  0
  5  6  1  0  0  0  0
  5 33  2  0  0  0  0
  6  7  2  0  0  0  0
  6 45  1  0  0  0  0
  7  8  1  0  0  0  0
  7 46  1  0  0  0  0
  8  9  1  0  0  0  0
  8 32  2  0  0  0  0
  9 10  1  0  0  0  0
  9 31  2  0  0  0  0
 10 11  2  0  0  0  0
 10 47  1  0  0  0  0
 11 12  1  0  0  0  0
 11 30  1  0  0  0  0
 12 13  1  0  0  0  0
 12 48  1  0  0  0  0
 13 14  2  0  0  0  0
 13 15  1  0  0  0  0
 15 16  1  0  0  0  0
 15 29  2  0  0  0  0
 16 17  2  0  0  0  0
 16 49  1  0  0  0  0
 17 18  1  0  0  0  0
 17 50  1  0  0  0  0
 18 19  1  0  0  0  0
 18 28  2  0  0  0  0
 19 20  1  0  0  0  0
 20 21  1  0  0  0  0
 20 51  1  0  0  0  0
 20 52  1  0  0  0  0
 21 22  1  0  0  0  0
 21 53  1  0  0  0  0
 21 54  1  0  0  0  0
 22 23  1  0  0  0  0
 22 55  1  0  0  0  0
 22 56  1  0  0  0  0
 23 24  1  0  0  0  0
 23 27  1  0  0  0  0
 24 25  1  0  0  0  0
 24 57  1  0  0  0  0
 24 58  1  0  0  0  0
 25 26  1  0  0  0  0
 25 59  1  0  0  0  0
 25 60  1  0  0  0  0
 26 27  1  0  0  0  0
 26 61  1  0  0  0  0
 26 62  1  0  0  0  0
 27 63  1  0  0  0  0
 27 64  1  0  0  0  0
 28 29  1  0  0  0  0
 28 65  1  0  0  0  0
 29 66  1  0  0  0  0
 30 31  1  0  0  0  0
 30 67  1  0  0  0  0
 32 33  1  0  0  0  0
 32 68  1  0  0  0  0
 33 69  1  0  0  0  0
 34 35  1  0  0  0  0
 35 36  1  0  0  0  0
 35 70  1  0  0  0  0
 35 71  1  0  0  0  0
 36 37  1  0  0  0  0
 36 41  2  0  0  0  0
 37 38  2  0  0  0  0
 37 72  1  0  0  0  0
 38 39  1  0  0  0  0
 38 73  1  0  0  0  0
 39 40  2  0  0  0  0
 39 74  1  0  0  0  0
 40 41  1  0  0  0  0
 40 75  1  0  0  0  0
 41 76  1  0  0  0  0
M  END
$$$$
