CHEMBL195917
 OpenBabel04072215363D

 46 49  0  0  0  0  0  0  0  0999 V2000
    0.3750   -0.6250   -0.1540 C   0  0  0  0  0  0  0  0  0  0  0  0
    1.6133   -1.1806    0.2768 O   0  0  0  0  0  0  0  0  0  0  0  0
    2.4240   -1.6869   -0.7010 C   0  0  0  0  0  0  0  0  0  0  0  0
    2.1233   -1.7417   -2.0579 C   0  0  0  0  0  0  0  0  0  0  0  0
    3.0269   -2.3115   -2.9619 C   0  0  0  0  0  0  0  0  0  0  0  0
    4.2676   -2.8068   -2.5460 C   0  0  0  0  0  0  0  0  0  0  0  0
    5.1486   -3.5007   -3.3990 N   0  0  0  0  0  0  0  0  0  0  0  0
    5.0586   -3.7656   -4.7878 C   0  0  0  0  0  0  0  0  0  0  0  0
    4.3453   -2.9505   -5.5859 N   0  0  0  0  0  0  0  0  0  0  0  0
    4.0999   -3.2694   -6.8950 N   0  0  0  0  0  0  0  0  0  0  0  0
    4.5735   -4.4168   -7.4307 C   0  0  0  0  0  0  0  0  0  0  0  0
    4.0724   -4.6656   -8.8092 C   0  0  0  0  0  0  0  0  0  0  0  0
    3.8996   -3.5995   -9.7143 C   0  0  0  0  0  0  0  0  0  0  0  0
    3.3658   -3.8007  -10.9945 C   0  0  0  0  0  0  0  0  0  0  0  0
    3.0140   -5.0843  -11.4166 C   0  0  0  0  0  0  0  0  0  0  0  0
    2.4154   -5.2543  -12.7624 C   0  0  0  0  0  0  0  0  0  0  0  0
    2.5554   -6.4745  -13.3686 N   0  0  0  0  0  0  0  0  0  0  0  0
    1.8307   -4.3394  -13.3293 O   0  0  0  0  0  0  0  0  0  0  0  0
    3.1667   -6.1580  -10.5382 C   0  0  0  0  0  0  0  0  0  0  0  0
    3.6595   -5.9399   -9.2448 C   0  0  0  0  0  0  0  0  0  0  0  0
    5.4040   -5.2752   -6.6723 C   0  0  0  0  0  0  0  0  0  0  0  0
    6.0068   -6.4605   -7.1739 C   0  0  0  0  0  0  0  0  0  0  0  0
    6.7453   -7.3240   -6.3658 C   0  0  0  0  0  0  0  0  0  0  0  0
    6.9532   -7.0060   -5.0363 C   0  0  0  0  0  0  0  0  0  0  0  0
    6.4187   -5.8268   -4.5217 C   0  0  0  0  0  0  0  0  0  0  0  0
    5.6409   -4.9422   -5.3121 C   0  0  0  0  0  0  0  0  0  0  0  0
    4.5540   -2.7538   -1.1746 C   0  0  0  0  0  0  0  0  0  0  0  0
    3.6438   -2.2006   -0.2629 C   0  0  0  0  0  0  0  0  0  0  0  0
   -0.1501   -0.2479    0.7285 H   0  0  0  0  0  0  0  0  0  0  0  0
   -0.2605   -1.3871   -0.6182 H   0  0  0  0  0  0  0  0  0  0  0  0
    0.5366    0.2205   -0.8316 H   0  0  0  0  0  0  0  0  0  0  0  0
    1.1860   -1.3708   -2.4573 H   0  0  0  0  0  0  0  0  0  0  0  0
    2.7227   -2.3596   -4.0022 H   0  0  0  0  0  0  0  0  0  0  0  0
    6.1063   -3.5205   -3.0673 H   0  0  0  0  0  0  0  0  0  0  0  0
    4.1517   -2.5823   -9.4126 H   0  0  0  0  0  0  0  0  0  0  0  0
    3.2133   -2.9473  -11.6531 H   0  0  0  0  0  0  0  0  0  0  0  0
    3.2184   -7.1676  -13.0552 H   0  0  0  0  0  0  0  0  0  0  0  0
    2.2080   -6.5460  -14.3164 H   0  0  0  0  0  0  0  0  0  0  0  0
    2.8575   -7.1610  -10.8181 H   0  0  0  0  0  0  0  0  0  0  0  0
    3.6797   -6.7892   -8.5645 H   0  0  0  0  0  0  0  0  0  0  0  0
    5.9095   -6.7352   -8.2207 H   0  0  0  0  0  0  0  0  0  0  0  0
    7.1529   -8.2424   -6.7799 H   0  0  0  0  0  0  0  0  0  0  0  0
    7.5299   -7.6704   -4.3977 H   0  0  0  0  0  0  0  0  0  0  0  0
    6.6072   -5.6136   -3.4715 H   0  0  0  0  0  0  0  0  0  0  0  0
    5.4794   -3.1717   -0.7883 H   0  0  0  0  0  0  0  0  0  0  0  0
    3.8819   -2.1870    0.7980 H   0  0  0  0  0  0  0  0  0  0  0  0
  1  2  1  0  0  0  0
  1 29  1  0  0  0  0
  1 30  1  0  0  0  0
  1 31  1  0  0  0  0
  2  3  1  0  0  0  0
  3  4  1  0  0  0  0
  3 28  2  0  0  0  0
  4  5  2  0  0  0  0
  4 32  1  0  0  0  0
  5  6  1  0  0  0  0
  5 33  1  0  0  0  0
  6  7  1  0  0  0  0
  6 27  2  0  0  0  0
  7  8  1  0  0  0  0
  7 34  1  0  0  0  0
  8  9  1  0  0  0  0
  8 26  2  0  0  0  0
  9 10  2  0  0  0  0
 10 11  1  0  0  0  0
 11 12  1  0  0  0  0
 11 21  2  0  0  0  0
 12 13  1  0  0  0  0
 12 20  2  0  0  0  0
 13 14  2  0  0  0  0
 13 35  1  0  0  0  0
 14 15  1  0  0  0  0
 14 36  1  0  0  0  0
 15 16  1  0  0  0  0
 15 19  2  0  0  0  0
 16 17  1  0  0  0  0
 16 18  2  0  0  0  0
 17 37  1  0  0  0  0
 17 38  1  0  0  0  0
 19 20  1  0  0  0  0
 19 39  1  0  0  0  0
 20 40  1  0  0  0  0
 21 22  1  0  0  0  0
 21 26  1  0  0  0  0
 22 23  2  0  0  0  0
 22 41  1  0  0  0  0
 23 24  1  0  0  0  0
 23 42  1  0  0  0  0
 24 25  2  0  0  0  0
 24 43  1  0  0  0  0
 25 26  1  0  0  0  0
 25 44  1  0  0  0  0
 27 28  1  0  0  0  0
 27 45  1  0  0  0  0
 28 46  1  0  0  0  0
M  END
$$$$
