CHEMBL3828416
 OpenBabel04072215373D

 61 65  0  0  0  0  0  0  0  0999 V2000
    0.9741   -0.2575   -0.5886 C   0  0  0  0  0  0  0  0  0  0  0  0
    2.4296    0.0472   -0.2555 C   0  0  0  0  0  0  0  0  0  0  0  0
    2.9661   -0.7185    0.8796 N   0  0  0  0  0  0  0  0  0  0  0  0
    2.8306   -2.1783    0.7495 C   0  0  0  0  0  0  0  0  0  0  0  0
    3.6740   -2.8413   -0.3339 C   0  0  0  0  0  0  0  0  0  0  0  0
    4.3406   -0.2612    1.1694 C   0  0  0  0  0  0  0  0  0  0  0  0
    4.9420   -0.8775    2.4333 C   0  0  0  0  0  0  0  0  0  0  0  0
    6.1630   -0.2054    2.7630 O   0  0  0  0  0  0  0  0  0  0  0  0
    6.8992   -0.8288    3.7351 C   0  0  0  0  0  0  0  0  0  0  0  0
    6.4203   -1.8366    4.5760 C   0  0  0  0  0  0  0  0  0  0  0  0
    7.3135   -2.5985    5.3123 C   0  0  0  0  0  0  0  0  0  0  0  0
    8.6839   -2.3698    5.1736 C   0  0  0  0  0  0  0  0  0  0  0  0
    9.5385   -3.5403    5.0740 N   0  0  0  0  0  0  0  0  0  0  0  0
   10.9362   -3.3412    5.0594 C   0  0  0  0  0  0  0  0  0  0  0  0
   11.6036   -3.4924    3.8858 C   0  0  0  0  0  0  0  0  0  0  0  0
   10.9004   -3.4598    2.6365 C   0  0  0  0  0  0  0  0  0  0  0  0
   11.4713   -2.8968    1.4906 C   0  0  0  0  0  0  0  0  0  0  0  0
   10.7055   -2.7989    0.3390 C   0  0  0  0  0  0  0  0  0  0  0  0
    9.4060   -3.3107    0.3248 C   0  0  0  0  0  0  0  0  0  0  0  0
    8.6393   -3.1929   -0.8064 O   0  0  0  0  0  0  0  0  0  0  0  0
    8.8410   -3.9150    1.4516 C   0  0  0  0  0  0  0  0  0  0  0  0
    9.5919   -3.9601    2.6322 C   0  0  0  0  0  0  0  0  0  0  0  0
    9.0237   -4.3406    3.9625 C   0  0  0  0  0  0  0  0  0  0  0  0
    8.1009   -5.1597    4.0441 O   0  0  0  0  0  0  0  0  0  0  0  0
   12.8339   -4.2555    4.1544 C   0  0  0  0  0  0  0  0  0  0  0  0
   13.7219   -4.5072    3.3732 O   0  0  0  0  0  0  0  0  0  0  0  0
   12.7351   -4.6495    5.5454 C   0  0  0  0  0  0  0  0  0  0  0  0
   13.2918   -5.7093    6.2083 C   0  0  0  0  0  0  0  0  0  0  0  0
   13.0640   -5.7402    7.5737 C   0  0  0  0  0  0  0  0  0  0  0  0
   13.3313   -6.8689    8.2840 O   0  0  0  0  0  0  0  0  0  0  0  0
   12.4616   -4.6629    8.2412 C   0  0  0  0  0  0  0  0  0  0  0  0
   11.7656   -3.7016    7.5043 C   0  0  0  0  0  0  0  0  0  0  0  0
   11.7938   -3.8226    6.1273 C   0  0  0  0  0  0  0  0  0  0  0  0
    9.1303   -1.1751    4.5808 C   0  0  0  0  0  0  0  0  0  0  0  0
    8.2352   -0.4413    3.8097 C   0  0  0  0  0  0  0  0  0  0  0  0
    0.5816    0.5059   -1.2678 H   0  0  0  0  0  0  0  0  0  0  0  0
    0.3494   -0.2589    0.3109 H   0  0  0  0  0  0  0  0  0  0  0  0
    0.8721   -1.2257   -1.0888 H   0  0  0  0  0  0  0  0  0  0  0  0
    2.4783    1.1144   -0.0012 H   0  0  0  0  0  0  0  0  0  0  0  0
    3.0434   -0.0904   -1.1534 H   0  0  0  0  0  0  0  0  0  0  0  0
    1.7777   -2.4377    0.5889 H   0  0  0  0  0  0  0  0  0  0  0  0
    3.0625   -2.6515    1.7114 H   0  0  0  0  0  0  0  0  0  0  0  0
    3.5600   -2.3485   -1.3030 H   0  0  0  0  0  0  0  0  0  0  0  0
    3.3630   -3.8843   -0.4566 H   0  0  0  0  0  0  0  0  0  0  0  0
    4.7356   -2.8444   -0.0677 H   0  0  0  0  0  0  0  0  0  0  0  0
    4.3351    0.8276    1.3155 H   0  0  0  0  0  0  0  0  0  0  0  0
    5.0112   -0.4391    0.3180 H   0  0  0  0  0  0  0  0  0  0  0  0
    5.1334   -1.9442    2.2549 H   0  0  0  0  0  0  0  0  0  0  0  0
    4.2396   -0.7487    3.2636 H   0  0  0  0  0  0  0  0  0  0  0  0
    5.3791   -2.1377    4.5843 H   0  0  0  0  0  0  0  0  0  0  0  0
    6.9519   -3.4964    5.8169 H   0  0  0  0  0  0  0  0  0  0  0  0
   12.4776   -2.4933    1.5272 H   0  0  0  0  0  0  0  0  0  0  0  0
   11.1341   -2.3070   -0.5284 H   0  0  0  0  0  0  0  0  0  0  0  0
    9.1319   -2.6882   -1.4671 H   0  0  0  0  0  0  0  0  0  0  0  0
    7.8177   -4.2773    1.4294 H   0  0  0  0  0  0  0  0  0  0  0  0
   13.7984   -6.5013    5.6659 H   0  0  0  0  0  0  0  0  0  0  0  0
   12.9988   -7.6127    7.7448 H   0  0  0  0  0  0  0  0  0  0  0  0
   12.4570   -4.6379    9.3272 H   0  0  0  0  0  0  0  0  0  0  0  0
   11.2064   -2.9151    8.0042 H   0  0  0  0  0  0  0  0  0  0  0  0
   10.1863   -0.9367    4.5035 H   0  0  0  0  0  0  0  0  0  0  0  0
    8.6126    0.3523    3.1713 H   0  0  0  0  0  0  0  0  0  0  0  0
  1  2  1  0  0  0  0
  1 36  1  0  0  0  0
  1 37  1  0  0  0  0
  1 38  1  0  0  0  0
  2  3  1  0  0  0  0
  2 39  1  0  0  0  0
  2 40  1  0  0  0  0
  3  4  1  0  0  0  0
  3  6  1  0  0  0  0
  4  5  1  0  0  0  0
  4 41  1  0  0  0  0
  4 42  1  0  0  0  0
  5 43  1  0  0  0  0
  5 44  1  0  0  0  0
  5 45  1  0  0  0  0
  6  7  1  0  0  0  0
  6 46  1  0  0  0  0
  6 47  1  0  0  0  0
  7  8  1  0  0  0  0
  7 48  1  0  0  0  0
  7 49  1  0  0  0  0
  8  9  1  0  0  0  0
  9 10  1  0  0  0  0
  9 35  2  0  0  0  0
 10 11  2  0  0  0  0
 10 50  1  0  0  0  0
 11 12  1  0  0  0  0
 11 51  1  0  0  0  0
 12 13  1  0  0  0  0
 12 34  2  0  0  0  0
 13 14  1  0  0  0  0
 13 23  1  0  0  0  0
 14 15  2  0  0  0  0
 14 33  1  0  0  0  0
 15 16  1  0  0  0  0
 15 25  1  0  0  0  0
 16 17  1  0  0  0  0
 16 22  2  0  0  0  0
 17 18  2  0  0  0  0
 17 52  1  0  0  0  0
 18 19  1  0  0  0  0
 18 53  1  0  0  0  0
 19 20  1  0  0  0  0
 19 21  2  0  0  0  0
 20 54  1  0  0  0  0
 21 22  1  0  0  0  0
 21 55  1  0  0  0  0
 22 23  1  0  0  0  0
 23 24  2  0  0  0  0
 25 26  2  0  0  0  0
 25 27  1  0  0  0  0
 27 28  1  0  0  0  0
 27 33  2  0  0  0  0
 28 29  2  0  0  0  0
 28 56  1  0  0  0  0
 29 30  1  0  0  0  0
 29 31  1  0  0  0  0
 30 57  1  0  0  0  0
 31 32  2  0  0  0  0
 31 58  1  0  0  0  0
 32 33  1  0  0  0  0
 32 59  1  0  0  0  0
 34 35  1  0  0  0  0
 34 60  1  0  0  0  0
 35 61  1  0  0  0  0
M  END
$$$$
