CHEMBL3809254
 OpenBabel04072215373D

 39 41  0  0  0  0  0  0  0  0999 V2000
    1.9528   -0.2566   -0.2707 N   0  0  0  0  0  0  0  0  0  0  0  0
    0.6584   -0.0149   -0.0415 C   0  0  0  0  0  0  0  0  0  0  0  0
   -0.1288    1.0744   -0.2783 C   0  0  0  0  0  0  0  0  0  0  0  0
   -1.4288    0.6899    0.1520 C   0  0  0  0  0  0  0  0  0  0  0  0
   -2.6529    1.4731    0.0270 C   0  0  0  0  0  0  0  0  0  0  0  0
   -2.7659    2.3803   -1.0292 C   0  0  0  0  0  0  0  0  0  0  0  0
   -3.9031    3.1689   -1.1803 C   0  0  0  0  0  0  0  0  0  0  0  0
   -4.9733    3.0722   -0.2932 C   0  0  0  0  0  0  0  0  0  0  0  0
   -6.1309    3.8787   -0.4021 N   0  0  0  0  0  0  0  0  0  0  0  0
   -6.4101    4.7434   -1.4490 C   0  0  0  0  0  0  0  0  0  0  0  0
   -5.7636    4.8321   -2.4869 O   0  0  0  0  0  0  0  0  0  0  0  0
   -7.4967    5.5626   -1.1704 N   0  0  0  0  0  0  0  0  0  0  0  0
   -7.9160    6.5369   -2.1099 C   0  0  0  0  0  0  0  0  0  0  0  0
   -8.1959    7.8265   -1.6596 C   0  0  0  0  0  0  0  0  0  0  0  0
   -8.5201    8.8293   -2.5769 C   0  0  0  0  0  0  0  0  0  0  0  0
   -8.6119    8.5369   -3.9391 C   0  0  0  0  0  0  0  0  0  0  0  0
   -8.3751    7.2370   -4.4035 C   0  0  0  0  0  0  0  0  0  0  0  0
   -8.4847    6.8953   -5.8693 C   0  0  0  0  0  0  0  0  0  0  0  0
   -8.8532    7.9509   -6.6469 F   0  0  0  0  0  0  0  0  0  0  0  0
   -7.3185    6.4340   -6.3969 F   0  0  0  0  0  0  0  0  0  0  0  0
   -9.4125    5.9304   -6.1089 F   0  0  0  0  0  0  0  0  0  0  0  0
   -8.0224    6.2437   -3.4746 C   0  0  0  0  0  0  0  0  0  0  0  0
   -4.8763    2.1530    0.7660 C   0  0  0  0  0  0  0  0  0  0  0  0
   -3.7269    1.3578    0.9209 C   0  0  0  0  0  0  0  0  0  0  0  0
   -1.4024   -0.5473    0.6732 N   0  0  0  0  0  0  0  0  0  0  0  0
   -0.0936   -0.9910    0.5308 O   0  0  0  0  0  0  0  0  0  0  0  0
    2.5709    0.4228   -0.6994 H   0  0  0  0  0  0  0  0  0  0  0  0
    2.3610   -1.1596   -0.0565 H   0  0  0  0  0  0  0  0  0  0  0  0
    0.1784    2.0088   -0.7218 H   0  0  0  0  0  0  0  0  0  0  0  0
   -1.9765    2.4847   -1.7688 H   0  0  0  0  0  0  0  0  0  0  0  0
   -3.9041    3.8544   -2.0187 H   0  0  0  0  0  0  0  0  0  0  0  0
   -6.8718    3.7199    0.2656 H   0  0  0  0  0  0  0  0  0  0  0  0
   -7.5908    5.8095   -0.1961 H   0  0  0  0  0  0  0  0  0  0  0  0
   -8.0999    8.0858   -0.6089 H   0  0  0  0  0  0  0  0  0  0  0  0
   -8.6838    9.8473   -2.2316 H   0  0  0  0  0  0  0  0  0  0  0  0
   -8.8632    9.3315   -4.6399 H   0  0  0  0  0  0  0  0  0  0  0  0
   -7.8232    5.2327   -3.8326 H   0  0  0  0  0  0  0  0  0  0  0  0
   -5.6900    2.0393    1.4778 H   0  0  0  0  0  0  0  0  0  0  0  0
   -3.6746    0.6537    1.7493 H   0  0  0  0  0  0  0  0  0  0  0  0
  1  2  1  0  0  0  0
  1 27  1  0  0  0  0
  1 28  1  0  0  0  0
  2  3  2  0  0  0  0
  2 26  1  0  0  0  0
  3  4  1  0  0  0  0
  3 29  1  0  0  0  0
  4  5  1  0  0  0  0
  4 25  2  0  0  0  0
  5  6  1  0  0  0  0
  5 24  2  0  0  0  0
  6  7  2  0  0  0  0
  6 30  1  0  0  0  0
  7  8  1  0  0  0  0
  7 31  1  0  0  0  0
  8  9  1  0  0  0  0
  8 23  2  0  0  0  0
  9 10  1  0  0  0  0
  9 32  1  0  0  0  0
 10 11  2  0  0  0  0
 10 12  1  0  0  0  0
 12 13  1  0  0  0  0
 12 33  1  0  0  0  0
 13 14  1  0  0  0  0
 13 22  2  0  0  0  0
 14 15  2  0  0  0  0
 14 34  1  0  0  0  0
 15 16  1  0  0  0  0
 15 35  1  0  0  0  0
 16 17  2  0  0  0  0
 16 36  1  0  0  0  0
 17 18  1  0  0  0  0
 17 22  1  0  0  0  0
 18 19  1  0  0  0  0
 18 20  1  0  0  0  0
 18 21  1  0  0  0  0
 22 37  1  0  0  0  0
 23 24  1  0  0  0  0
 23 38  1  0  0  0  0
 24 39  1  0  0  0  0
 25 26  1  0  0  0  0
M  END
$$$$
