CHEMBL3977450
 OpenBabel04072215373D

 57 61  0  0  1  0  0  0  0  0999 V2000
    2.9210    1.0102    0.6672 C   0  0  0  0  0  0  0  0  0  0  0  0
    2.4573    0.1268   -0.3569 O   0  0  0  0  0  0  0  0  0  0  0  0
    3.1051   -1.0334   -0.6501 C   0  0  0  0  0  0  0  0  0  0  0  0
    4.0968   -1.5540    0.1844 C   0  0  0  0  0  0  0  0  0  0  0  0
    4.7380   -2.7656   -0.0930 C   0  0  0  0  0  0  0  0  0  0  0  0
    5.7679   -3.2603    0.7162 C   0  0  0  0  0  0  0  0  0  0  0  0
    6.1107   -2.5649    1.9121 N   0  0  0  0  0  0  0  0  0  0  0  0
    7.3388   -2.7407    2.5902 C   0  0  0  0  0  0  0  0  0  0  0  0
    8.5445   -2.7241    1.8856 C   0  0  0  0  0  0  0  0  0  0  0  0
    9.7436   -3.0441    2.5190 C   0  0  0  0  0  0  0  0  0  0  0  0
   11.1762   -3.0617    1.5551 Cl  0  0  0  0  0  0  0  0  0  0  0  0
    9.7434   -3.3581    3.8836 C   0  0  0  0  0  0  0  0  0  0  0  0
   11.1717   -3.8789    4.7057 Cl  0  0  0  0  0  0  0  0  0  0  0  0
    8.5603   -3.2820    4.6197 C   0  0  0  0  0  0  0  0  0  0  0  0
    7.3728   -2.9604    3.9712 C   0  0  0  0  0  0  0  0  0  0  0  0
    6.2315   -2.9111    4.6801 F   0  0  0  0  0  0  0  0  0  0  0  0
    6.4353   -4.3851    0.3982 N   0  0  0  0  0  0  0  0  0  0  0  0
    6.0426   -5.0124   -0.7111 C   0  0  0  0  0  0  0  0  0  0  0  0
    5.0368   -4.6418   -1.5329 N   0  0  0  0  0  0  0  0  0  0  0  0
    4.4055   -3.4954   -1.2154 C   0  0  0  0  0  0  0  0  0  0  0  0
    3.3825   -3.0075   -2.0499 C   0  0  0  0  0  0  0  0  0  0  0  0
    2.7554   -1.7812   -1.7977 C   0  0  0  0  0  0  0  0  0  0  0  0
    1.8520   -1.4268   -2.7845 O   0  0  0  0  0  0  0  0  0  0  0  0
    1.6239   -0.0219   -2.8976 C   0  0  0  0  0  0  0  0  0  0  0  0
    1.2698    0.4618   -4.3223 C   0  0  1  0  0  0  0  0  0  0  0  0
    1.1468    2.0067   -4.2641 C   0  0  0  0  0  0  0  0  0  0  0  0
    2.4723    2.5792   -3.9439 N   0  0  3  0  0  0  0  0  0  0  0  0
    2.4425    4.0054   -3.6231 C   0  0  0  0  0  0  0  0  0  0  0  0
    3.7994    4.7389   -3.7297 C   0  0  0  0  0  0  0  0  0  0  0  0
    4.6150    4.3084   -4.8250 O   0  0  0  0  0  0  0  0  0  0  0  0
    4.7652    2.8822   -4.8074 C   0  0  0  0  0  0  0  0  0  0  0  0
    3.3985    2.2371   -5.0480 C   0  0  1  0  0  0  0  0  0  0  0  0
    3.5131    0.7035   -5.1616 C   0  0  0  0  0  0  0  0  0  0  0  0
    2.2309    0.0758   -5.3311 O   0  0  0  0  0  0  0  0  0  0  0  0
    3.0816    1.9960    0.2280 H   0  0  0  0  0  0  0  0  0  0  0  0
    3.8542    0.7456    1.1641 H   0  0  0  0  0  0  0  0  0  0  0  0
    2.1408    1.0883    1.4289 H   0  0  0  0  0  0  0  0  0  0  0  0
    4.4302   -1.0162    1.0663 H   0  0  0  0  0  0  0  0  0  0  0  0
    5.3199   -2.5888    2.5515 H   0  0  0  0  0  0  0  0  0  0  0  0
    8.5364   -2.4908    0.8209 H   0  0  0  0  0  0  0  0  0  0  0  0
    8.5450   -3.4978    5.6833 H   0  0  0  0  0  0  0  0  0  0  0  0
    6.5762   -5.9094   -0.9792 H   0  0  0  0  0  0  0  0  0  0  0  0
    3.1108   -3.5786   -2.9311 H   0  0  0  0  0  0  0  0  0  0  0  0
    2.5179    0.5187   -2.5950 H   0  0  0  0  0  0  0  0  0  0  0  0
    0.7864    0.2343   -2.2354 H   0  0  0  0  0  0  0  0  0  0  0  0
    0.3161    0.0217   -4.6343 H   0  0  0  0  0  0  0  0  0  0  0  0
    0.4157    2.2870   -3.4968 H   0  0  0  0  0  0  0  0  0  0  0  0
    0.7875    2.3952   -5.2261 H   0  0  0  0  0  0  0  0  0  0  0  0
    2.0981    4.1088   -2.5849 H   0  0  0  0  0  0  0  0  0  0  0  0
    1.7119    4.5261   -4.2513 H   0  0  0  0  0  0  0  0  0  0  0  0
    4.3796    4.6303   -2.8060 H   0  0  0  0  0  0  0  0  0  0  0  0
    3.6110    5.8088   -3.8708 H   0  0  0  0  0  0  0  0  0  0  0  0
    5.2102    2.5675   -3.8544 H   0  0  0  0  0  0  0  0  0  0  0  0
    5.4652    2.6128   -5.6049 H   0  0  0  0  0  0  0  0  0  0  0  0
    2.9845    2.6387   -5.9839 H   0  0  0  0  0  0  0  0  0  0  0  0
    4.0098    0.2644   -4.2892 H   0  0  0  0  0  0  0  0  0  0  0  0
    4.1172    0.4396   -6.0367 H   0  0  0  0  0  0  0  0  0  0  0  0
  1  2  1  0  0  0  0
  1 35  1  0  0  0  0
  1 36  1  0  0  0  0
  1 37  1  0  0  0  0
  2  3  1  0  0  0  0
  3  4  1  0  0  0  0
  3 22  2  0  0  0  0
  4  5  2  0  0  0  0
  4 38  1  0  0  0  0
  5  6  1  0  0  0  0
  5 20  1  0  0  0  0
  6  7  1  0  0  0  0
  6 17  2  0  0  0  0
  7  8  1  0  0  0  0
  7 39  1  0  0  0  0
  8  9  1  0  0  0  0
  8 15  2  0  0  0  0
  9 10  2  0  0  0  0
  9 40  1  0  0  0  0
 10 11  1  0  0  0  0
 10 12  1  0  0  0  0
 12 13  1  0  0  0  0
 12 14  2  0  0  0  0
 14 15  1  0  0  0  0
 14 41  1  0  0  0  0
 15 16  1  0  0  0  0
 17 18  1  0  0  0  0
 18 19  2  0  0  0  0
 18 42  1  0  0  0  0
 19 20  1  0  0  0  0
 20 21  2  0  0  0  0
 21 22  1  0  0  0  0
 21 43  1  0  0  0  0
 22 23  1  0  0  0  0
 23 24  1  0  0  0  0
 24 25  1  0  0  0  0
 24 44  1  0  0  0  0
 24 45  1  0  0  0  0
 25 26  1  0  0  0  0
 25 34  1  0  0  0  0
 25 46  1  6  0  0  0
 26 27  1  0  0  0  0
 26 47  1  0  0  0  0
 26 48  1  0  0  0  0
 27 28  1  0  0  0  0
 27 32  1  0  0  0  0
 28 29  1  0  0  0  0
 28 49  1  0  0  0  0
 28 50  1  0  0  0  0
 29 30  1  0  0  0  0
 29 51  1  0  0  0  0
 29 52  1  0  0  0  0
 30 31  1  0  0  0  0
 31 32  1  0  0  0  0
 31 53  1  0  0  0  0
 31 54  1  0  0  0  0
 32 33  1  0  0  0  0
 32 55  1  6  0  0  0
 33 34  1  0  0  0  0
 33 56  1  0  0  0  0
 33 57  1  0  0  0  0
M  END
$$$$
