CHEMBL238719
 OpenBabel04072215363D

 51 53  0  0  0  0  0  0  0  0999 V2000
    1.8612   -0.1566   -1.5366 C   0  0  0  0  0  0  0  0  0  0  0  0
    0.6939   -0.2009   -0.6255 C   0  0  0  0  0  0  0  0  0  0  0  0
    0.0063    0.9226   -0.3916 N   0  0  0  0  0  0  0  0  0  0  0  0
   -1.0705    0.5462    0.3828 O   0  0  0  0  0  0  0  0  0  0  0  0
   -1.0258   -0.7938    0.6250 C   0  0  0  0  0  0  0  0  0  0  0  0
   -2.0041   -1.3475    1.3790 N   0  0  0  0  0  0  0  0  0  0  0  0
   -3.3131   -0.7204    1.4931 C   0  0  0  0  0  0  0  0  0  0  0  0
   -4.3315   -1.2222    0.4901 C   0  0  0  0  0  0  0  0  0  0  0  0
   -4.1077   -2.2773   -0.4007 C   0  0  0  0  0  0  0  0  0  0  0  0
   -5.1266   -2.6585   -1.2607 C   0  0  0  0  0  0  0  0  0  0  0  0
   -6.3446   -2.0764   -1.2976 N   0  0  0  0  0  0  0  0  0  0  0  0
   -6.5518   -1.0648   -0.4366 C   0  0  0  0  0  0  0  0  0  0  0  0
   -5.5964   -0.6094    0.4611 C   0  0  0  0  0  0  0  0  0  0  0  0
    0.1048   -1.3181    0.0285 C   0  0  0  0  0  0  0  0  0  0  0  0
    0.4718   -2.7155    0.0208 C   0  0  0  0  0  0  0  0  0  0  0  0
   -0.3911   -3.5883   -0.0266 O   0  0  0  0  0  0  0  0  0  0  0  0
    1.8350   -2.9676    0.1590 N   0  0  0  0  0  0  0  0  0  0  0  0
    2.3340   -4.2888    0.1978 C   0  0  0  0  0  0  0  0  0  0  0  0
    1.9128   -5.2453   -0.7231 C   0  0  0  0  0  0  0  0  0  0  0  0
    2.3424   -6.5726   -0.6194 C   0  0  0  0  0  0  0  0  0  0  0  0
    3.1842   -6.9901    0.4232 C   0  0  0  0  0  0  0  0  0  0  0  0
    3.5902   -8.4648    0.6106 C   0  0  0  0  0  0  0  0  0  0  0  0
    3.0194   -9.4038   -0.4785 C   0  0  0  0  0  0  0  0  0  0  0  0
    5.1266   -8.5982    0.5731 C   0  0  0  0  0  0  0  0  0  0  0  0
    3.0771   -8.9894    1.9698 C   0  0  0  0  0  0  0  0  0  0  0  0
    3.6361   -5.9962    1.3153 C   0  0  0  0  0  0  0  0  0  0  0  0
    3.2445   -4.6538    1.1859 C   0  0  0  0  0  0  0  0  0  0  0  0
    1.9911    0.8434   -1.9679 H   0  0  0  0  0  0  0  0  0  0  0  0
    1.7233   -0.8574   -2.3662 H   0  0  0  0  0  0  0  0  0  0  0  0
    2.7808   -0.4139   -1.0059 H   0  0  0  0  0  0  0  0  0  0  0  0
   -2.0103   -2.3590    1.5013 H   0  0  0  0  0  0  0  0  0  0  0  0
   -3.2432    0.3706    1.4122 H   0  0  0  0  0  0  0  0  0  0  0  0
   -3.6988   -0.9361    2.4970 H   0  0  0  0  0  0  0  0  0  0  0  0
   -3.1605   -2.8045   -0.4421 H   0  0  0  0  0  0  0  0  0  0  0  0
   -4.9846   -3.4736   -1.9658 H   0  0  0  0  0  0  0  0  0  0  0  0
   -7.5374   -0.6006   -0.4743 H   0  0  0  0  0  0  0  0  0  0  0  0
   -5.8365    0.2126    1.1261 H   0  0  0  0  0  0  0  0  0  0  0  0
    2.3720   -2.2559    0.6360 H   0  0  0  0  0  0  0  0  0  0  0  0
    1.2448   -4.9748   -1.5375 H   0  0  0  0  0  0  0  0  0  0  0  0
    1.9745   -7.2680   -1.3686 H   0  0  0  0  0  0  0  0  0  0  0  0
    3.3757   -9.1250   -1.4770 H   0  0  0  0  0  0  0  0  0  0  0  0
    1.9228   -9.3866   -0.4905 H   0  0  0  0  0  0  0  0  0  0  0  0
    3.3207  -10.4436   -0.3061 H   0  0  0  0  0  0  0  0  0  0  0  0
    5.5309   -8.2411   -0.3808 H   0  0  0  0  0  0  0  0  0  0  0  0
    5.4334   -9.6439    0.6957 H   0  0  0  0  0  0  0  0  0  0  0  0
    5.6111   -8.0273    1.3725 H   0  0  0  0  0  0  0  0  0  0  0  0
    1.9854   -8.9152    2.0379 H   0  0  0  0  0  0  0  0  0  0  0  0
    3.5004   -8.4368    2.8151 H   0  0  0  0  0  0  0  0  0  0  0  0
    3.3454  -10.0445    2.1101 H   0  0  0  0  0  0  0  0  0  0  0  0
    4.2845   -6.2609    2.1485 H   0  0  0  0  0  0  0  0  0  0  0  0
    3.5966   -3.9317    1.9169 H   0  0  0  0  0  0  0  0  0  0  0  0
  1  2  1  0  0  0  0
  1 28  1  0  0  0  0
  1 29  1  0  0  0  0
  1 30  1  0  0  0  0
  2  3  2  0  0  0  0
  2 14  1  0  0  0  0
  3  4  1  0  0  0  0
  4  5  1  0  0  0  0
  5  6  1  0  0  0  0
  5 14  2  0  0  0  0
  6  7  1  0  0  0  0
  6 31  1  0  0  0  0
  7  8  1  0  0  0  0
  7 32  1  0  0  0  0
  7 33  1  0  0  0  0
  8  9  1  0  0  0  0
  8 13  2  0  0  0  0
  9 10  2  0  0  0  0
  9 34  1  0  0  0  0
 10 11  1  0  0  0  0
 10 35  1  0  0  0  0
 11 12  2  0  0  0  0
 12 13  1  0  0  0  0
 12 36  1  0  0  0  0
 13 37  1  0  0  0  0
 14 15  1  0  0  0  0
 15 16  2  0  0  0  0
 15 17  1  0  0  0  0
 17 18  1  0  0  0  0
 17 38  1  0  0  0  0
 18 19  1  0  0  0  0
 18 27  2  0  0  0  0
 19 20  2  0  0  0  0
 19 39  1  0  0  0  0
 20 21  1  0  0  0  0
 20 40  1  0  0  0  0
 21 22  1  0  0  0  0
 21 26  2  0  0  0  0
 22 23  1  0  0  0  0
 22 24  1  0  0  0  0
 22 25  1  0  0  0  0
 23 41  1  0  0  0  0
 23 42  1  0  0  0  0
 23 43  1  0  0  0  0
 24 44  1  0  0  0  0
 24 45  1  0  0  0  0
 24 46  1  0  0  0  0
 25 47  1  0  0  0  0
 25 48  1  0  0  0  0
 25 49  1  0  0  0  0
 26 27  1  0  0  0  0
 26 50  1  0  0  0  0
 27 51  1  0  0  0  0
M  END
$$$$
