CHEMBL3951694
 OpenBabel04072215373D

 63 66  0  0  0  0  0  0  0  0999 V2000
    7.7391    6.3451   -1.5022 C   0  0  0  0  0  0  0  0  0  0  0  0
    7.8610    5.1141   -0.7849 O   0  0  0  0  0  0  0  0  0  0  0  0
    7.1689    4.9993    0.3984 C   0  0  0  0  0  0  0  0  0  0  0  0
    6.3869    6.0180    0.9462 C   0  0  0  0  0  0  0  0  0  0  0  0
    5.6740    5.7882    2.1192 C   0  0  0  0  0  0  0  0  0  0  0  0
    4.8440    6.6846    2.7344 O   0  0  0  0  0  0  0  0  0  0  0  0
    4.7788    7.9913    2.1867 C   0  0  0  0  0  0  0  0  0  0  0  0
    5.7471    4.5348    2.7456 C   0  0  0  0  0  0  0  0  0  0  0  0
    6.5238    3.4802    2.2360 C   0  0  0  0  0  0  0  0  0  0  0  0
    6.4541    2.1590    2.7548 N   0  0  0  0  0  0  0  0  0  0  0  0
    5.0943    1.7397    3.2925 C   0  0  0  0  0  0  0  0  0  0  0  0
    3.8506    1.8767    2.3728 C   0  0  0  0  0  0  0  0  0  0  0  0
    3.7540    0.9282    1.2551 N   0  0  0  0  0  0  0  0  0  0  0  0
    7.4544    1.4018    3.4946 C   0  0  0  0  0  0  0  0  0  0  0  0
    7.3648    0.0217    3.3215 C   0  0  0  0  0  0  0  0  0  0  0  0
    7.8075   -0.8330    4.3209 C   0  0  0  0  0  0  0  0  0  0  0  0
    8.4941   -0.3777    5.4141 C   0  0  0  0  0  0  0  0  0  0  0  0
    8.6557   -1.2912    6.3741 N   0  0  0  0  0  0  0  0  0  0  0  0
    9.5343   -1.0049    7.3401 C   0  0  0  0  0  0  0  0  0  0  0  0
   10.3359    0.1193    7.2939 C   0  0  0  0  0  0  0  0  0  0  0  0
   11.6424   -0.0454    7.9633 C   0  0  0  0  0  0  0  0  0  0  0  0
   12.2472    0.5229    9.1087 C   0  0  0  0  0  0  0  0  0  0  0  0
   13.3983   -0.0855    9.4624 N   0  0  0  0  0  0  0  0  0  0  0  0
   13.5660   -1.0419    8.5280 N   0  0  0  0  0  0  0  0  0  0  0  0
   14.8667   -1.6777    8.3372 C   0  0  0  0  0  0  0  0  0  0  0  0
   15.2943   -2.7344    9.3567 C   0  0  0  0  0  0  0  0  0  0  0  0
   16.9668   -3.2771    8.9628 S   0  0  0  0  0  0  0  0  0  0  0  0
   17.3556   -4.5428   10.1554 C   0  0  0  0  0  0  0  0  0  0  0  0
   16.9288   -3.9174    7.6615 O   0  0  0  0  0  0  0  0  0  0  0  0
   17.8673   -2.1683    9.2109 O   0  0  0  0  0  0  0  0  0  0  0  0
   12.4838   -1.1241    7.6874 C   0  0  0  0  0  0  0  0  0  0  0  0
   10.0361    1.1451    6.4155 N   0  0  0  0  0  0  0  0  0  0  0  0
    9.0125    0.9383    5.4585 C   0  0  0  0  0  0  0  0  0  0  0  0
    8.3736    1.8435    4.5006 C   0  0  0  0  0  0  0  0  0  0  0  0
    7.2446    3.7483    1.0524 C   0  0  0  0  0  0  0  0  0  0  0  0
    8.2832    6.2505   -2.4483 H   0  0  0  0  0  0  0  0  0  0  0  0
    8.1905    7.1743   -0.9451 H   0  0  0  0  0  0  0  0  0  0  0  0
    6.6951    6.5687   -1.7534 H   0  0  0  0  0  0  0  0  0  0  0  0
    6.3185    6.9772    0.4513 H   0  0  0  0  0  0  0  0  0  0  0  0
    4.1213    8.5850    2.8208 H   0  0  0  0  0  0  0  0  0  0  0  0
    4.3498    7.9831    1.1737 H   0  0  0  0  0  0  0  0  0  0  0  0
    5.7630    8.4729    2.1869 H   0  0  0  0  0  0  0  0  0  0  0  0
    5.1456    4.3908    3.6383 H   0  0  0  0  0  0  0  0  0  0  0  0
    4.9039    2.2823    4.2263 H   0  0  0  0  0  0  0  0  0  0  0  0
    5.0907    0.6821    3.5854 H   0  0  0  0  0  0  0  0  0  0  0  0
    3.7078    2.8912    1.9995 H   0  0  0  0  0  0  0  0  0  0  0  0
    2.9825    1.6600    3.0090 H   0  0  0  0  0  0  0  0  0  0  0  0
    4.3629    1.2576    0.5032 H   0  0  0  0  0  0  0  0  0  0  0  0
    2.8013    0.9647    0.8684 H   0  0  0  0  0  0  0  0  0  0  0  0
    6.8003   -0.3905    2.4874 H   0  0  0  0  0  0  0  0  0  0  0  0
    7.5576   -1.8874    4.2517 H   0  0  0  0  0  0  0  0  0  0  0  0
    9.6657   -1.7777    8.0898 H   0  0  0  0  0  0  0  0  0  0  0  0
   11.8910    1.3309    9.7327 H   0  0  0  0  0  0  0  0  0  0  0  0
   15.5969   -0.8603    8.3113 H   0  0  0  0  0  0  0  0  0  0  0  0
   14.8565   -2.1199    7.3332 H   0  0  0  0  0  0  0  0  0  0  0  0
   14.6516   -3.6193    9.3174 H   0  0  0  0  0  0  0  0  0  0  0  0
   15.3138   -2.3423   10.3771 H   0  0  0  0  0  0  0  0  0  0  0  0
   16.7176   -5.4109    9.9826 H   0  0  0  0  0  0  0  0  0  0  0  0
   17.2198   -4.1471   11.1624 H   0  0  0  0  0  0  0  0  0  0  0  0
   18.4035   -4.8290   10.0152 H   0  0  0  0  0  0  0  0  0  0  0  0
   12.4165   -1.9099    6.9468 H   0  0  0  0  0  0  0  0  0  0  0  0
    8.5615    2.9175    4.6100 H   0  0  0  0  0  0  0  0  0  0  0  0
    7.8187    2.9520    0.5814 H   0  0  0  0  0  0  0  0  0  0  0  0
  1  2  1  0  0  0  0
  1 36  1  0  0  0  0
  1 37  1  0  0  0  0
  1 38  1  0  0  0  0
  2  3  1  0  0  0  0
  3  4  1  0  0  0  0
  3 35  2  0  0  0  0
  4  5  2  0  0  0  0
  4 39  1  0  0  0  0
  5  6  1  0  0  0  0
  5  8  1  0  0  0  0
  6  7  1  0  0  0  0
  7 40  1  0  0  0  0
  7 41  1  0  0  0  0
  7 42  1  0  0  0  0
  8  9  2  0  0  0  0
  8 43  1  0  0  0  0
  9 10  1  0  0  0  0
  9 35  1  0  0  0  0
 10 11  1  0  0  0  0
 10 14  1  0  0  0  0
 11 12  1  0  0  0  0
 11 44  1  0  0  0  0
 11 45  1  0  0  0  0
 12 13  1  0  0  0  0
 12 46  1  0  0  0  0
 12 47  1  0  0  0  0
 13 48  1  0  0  0  0
 13 49  1  0  0  0  0
 14 15  1  0  0  0  0
 14 34  2  0  0  0  0
 15 16  2  0  0  0  0
 15 50  1  0  0  0  0
 16 17  1  0  0  0  0
 16 51  1  0  0  0  0
 17 18  1  0  0  0  0
 17 33  2  0  0  0  0
 18 19  2  0  0  0  0
 19 20  1  0  0  0  0
 19 52  1  0  0  0  0
 20 21  1  0  0  0  0
 20 32  2  0  0  0  0
 21 22  1  0  0  0  0
 21 31  2  0  0  0  0
 22 23  2  0  0  0  0
 22 53  1  0  0  0  0
 23 24  1  0  0  0  0
 24 25  1  0  0  0  0
 24 31  1  0  0  0  0
 25 26  1  0  0  0  0
 25 54  1  0  0  0  0
 25 55  1  0  0  0  0
 26 27  1  0  0  0  0
 26 56  1  0  0  0  0
 26 57  1  0  0  0  0
 27 28  1  0  0  0  0
 27 29  2  0  0  0  0
 27 30  2  0  0  0  0
 28 58  1  0  0  0  0
 28 59  1  0  0  0  0
 28 60  1  0  0  0  0
 31 61  1  0  0  0  0
 32 33  1  0  0  0  0
 33 34  1  0  0  0  0
 34 62  1  0  0  0  0
 35 63  1  0  0  0  0
M  END
$$$$
