CHEMBL3656077
 OpenBabel04072215373D

 71 74  0  0  1  0  0  0  0  0999 V2000
    2.8341    7.1668    2.7092 C   0  0  0  0  0  0  0  0  0  0  0  0
    1.7119    6.1963    2.4760 C   0  0  0  0  0  0  0  0  0  0  0  0
    2.0000    4.8936    2.0575 C   0  0  0  0  0  0  0  0  0  0  0  0
    0.9695    3.9814    1.8726 C   0  0  0  0  0  0  0  0  0  0  0  0
   -0.3516    4.3659    2.0845 C   0  0  0  0  0  0  0  0  0  0  0  0
   -1.2618    3.3865    2.0232 F   0  0  0  0  0  0  0  0  0  0  0  0
   -0.6860    5.6828    2.4386 C   0  0  0  0  0  0  0  0  0  0  0  0
   -2.0178    6.1687    2.5812 N   0  0  0  0  0  0  0  0  0  0  0  0
   -3.1379    5.5758    2.0286 C   0  0  0  0  0  0  0  0  0  0  0  0
   -3.1304    4.5813    1.3140 O   0  0  0  0  0  0  0  0  0  0  0  0
   -4.3123    6.2750    2.3123 N   0  0  0  0  0  0  0  0  0  0  0  0
   -5.5458    5.7112    1.8935 C   0  0  0  0  0  0  0  0  0  0  0  0
   -5.8528    4.3822    2.2060 C   0  0  0  0  0  0  0  0  0  0  0  0
   -7.0002    3.7778    1.6910 C   0  0  0  0  0  0  0  0  0  0  0  0
   -7.8849    4.5154    0.9030 C   0  0  0  0  0  0  0  0  0  0  0  0
   -9.0344    3.9981    0.3421 O   0  0  0  0  0  0  0  0  0  0  0  0
   -9.7378    3.0191    1.0136 C   0  0  0  0  0  0  0  0  0  0  0  0
   -9.8801    2.9835    2.3973 C   0  0  0  0  0  0  0  0  0  0  0  0
  -10.5801    1.9284    2.9507 C   0  0  0  0  0  0  0  0  0  0  0  0
  -11.1771    0.9572    2.2265 N   0  0  0  0  0  0  0  0  0  0  0  0
  -11.0800    1.0468    0.8767 C   0  0  0  0  0  0  0  0  0  0  0  0
  -11.7781   -0.0173    0.1585 C   0  0  0  0  0  0  0  0  0  0  0  0
  -11.9597   -0.2818   -1.1872 C   0  0  0  0  0  0  0  0  0  0  0  0
  -12.7412   -1.4724   -1.3355 C   0  0  0  0  0  0  0  0  0  0  0  0
  -13.1570   -2.0765   -2.6037 C   0  0  0  0  0  0  0  0  0  0  0  0
  -12.8589   -1.5954   -3.6880 O   0  0  0  0  0  0  0  0  0  0  0  0
  -13.9075   -3.2218   -2.4911 N   0  0  0  0  0  0  0  0  0  0  0  0
  -14.4184   -3.9287   -3.6480 C   0  0  0  0  0  0  0  0  0  0  0  0
  -15.2604   -5.1141   -3.1735 C   0  0  0  0  0  0  0  0  0  0  0  0
  -15.4667   -5.3399   -1.9806 O   0  0  0  0  0  0  0  0  0  0  0  0
  -15.7866   -5.8953   -4.1803 N   0  0  0  0  0  0  0  0  0  0  0  0
  -16.5453   -7.0901   -3.8469 C   0  0  0  0  0  0  0  0  0  0  0  0
  -17.0696   -7.8044   -5.0952 C   0  0  3  0  0  0  0  0  0  0  0  0
  -15.9509   -8.1979   -5.9052 O   0  0  0  0  0  0  0  0  0  0  0  0
  -17.9261   -9.0191   -4.7082 C   0  0  0  0  0  0  0  0  0  0  0  0
  -18.3864   -9.7178   -5.8614 O   0  0  0  0  0  0  0  0  0  0  0  0
  -13.0035   -1.9069   -0.0465 C   0  0  0  0  0  0  0  0  0  0  0  0
  -12.4226   -1.0311    0.8344 N   0  0  0  0  0  0  0  0  0  0  0  0
  -10.3775    2.0585    0.2329 C   0  0  0  0  0  0  0  0  0  0  0  0
   -7.5795    5.8441    0.5893 C   0  0  0  0  0  0  0  0  0  0  0  0
   -6.4251    6.4527    1.1035 C   0  0  0  0  0  0  0  0  0  0  0  0
    0.3689    6.5837    2.6669 C   0  0  0  0  0  0  0  0  0  0  0  0
    3.8085    6.6977    2.5292 H   0  0  0  0  0  0  0  0  0  0  0  0
    2.8235    7.5169    3.7458 H   0  0  0  0  0  0  0  0  0  0  0  0
    2.7465    8.0210    2.0314 H   0  0  0  0  0  0  0  0  0  0  0  0
    3.0257    4.5726    1.8917 H   0  0  0  0  0  0  0  0  0  0  0  0
    1.1774    2.9570    1.5790 H   0  0  0  0  0  0  0  0  0  0  0  0
   -2.1367    7.0814    2.9935 H   0  0  0  0  0  0  0  0  0  0  0  0
   -4.2274    7.2758    2.2112 H   0  0  0  0  0  0  0  0  0  0  0  0
   -5.1801    3.7935    2.8261 H   0  0  0  0  0  0  0  0  0  0  0  0
   -7.1716    2.7266    1.9035 H   0  0  0  0  0  0  0  0  0  0  0  0
   -9.4407    3.7381    3.0388 H   0  0  0  0  0  0  0  0  0  0  0  0
  -10.6766    1.8321    4.0286 H   0  0  0  0  0  0  0  0  0  0  0  0
  -11.5815    0.3145   -2.0100 H   0  0  0  0  0  0  0  0  0  0  0  0
  -14.1672   -3.5831   -1.5823 H   0  0  0  0  0  0  0  0  0  0  0  0
  -13.5757   -4.2796   -4.2507 H   0  0  0  0  0  0  0  0  0  0  0  0
  -15.0382   -3.2464   -4.2374 H   0  0  0  0  0  0  0  0  0  0  0  0
  -15.3644   -5.8583   -5.1035 H   0  0  0  0  0  0  0  0  0  0  0  0
  -17.3711   -6.7946   -3.1903 H   0  0  0  0  0  0  0  0  0  0  0  0
  -15.8738   -7.7470   -3.2813 H   0  0  0  0  0  0  0  0  0  0  0  0
  -17.6607   -7.1178   -5.7114 H   0  0  0  0  0  0  0  0  0  0  0  0
  -15.6468   -9.0687   -5.5895 H   0  0  0  0  0  0  0  0  0  0  0  0
  -18.7971   -8.7142   -4.1194 H   0  0  0  0  0  0  0  0  0  0  0  0
  -17.3426   -9.7339   -4.1193 H   0  0  0  0  0  0  0  0  0  0  0  0
  -18.7886   -9.0708   -6.4672 H   0  0  0  0  0  0  0  0  0  0  0  0
  -13.5541   -2.7547    0.3338 H   0  0  0  0  0  0  0  0  0  0  0  0
  -12.4459   -1.0870    1.8453 H   0  0  0  0  0  0  0  0  0  0  0  0
  -10.3169    2.1021   -0.8483 H   0  0  0  0  0  0  0  0  0  0  0  0
   -8.2286    6.4012   -0.0819 H   0  0  0  0  0  0  0  0  0  0  0  0
   -6.1913    7.4718    0.8114 H   0  0  0  0  0  0  0  0  0  0  0  0
    0.1598    7.6067    2.9712 H   0  0  0  0  0  0  0  0  0  0  0  0
  1  2  1  0  0  0  0
  1 43  1  0  0  0  0
  1 44  1  0  0  0  0
  1 45  1  0  0  0  0
  2  3  1  0  0  0  0
  2 42  2  0  0  0  0
  3  4  2  0  0  0  0
  3 46  1  0  0  0  0
  4  5  1  0  0  0  0
  4 47  1  0  0  0  0
  5  6  1  0  0  0  0
  5  7  2  0  0  0  0
  7  8  1  0  0  0  0
  7 42  1  0  0  0  0
  8  9  1  0  0  0  0
  8 48  1  0  0  0  0
  9 10  2  0  0  0  0
  9 11  1  0  0  0  0
 11 12  1  0  0  0  0
 11 49  1  0  0  0  0
 12 13  1  0  0  0  0
 12 41  2  0  0  0  0
 13 14  2  0  0  0  0
 13 50  1  0  0  0  0
 14 15  1  0  0  0  0
 14 51  1  0  0  0  0
 15 16  1  0  0  0  0
 15 40  2  0  0  0  0
 16 17  1  0  0  0  0
 17 18  1  0  0  0  0
 17 39  2  0  0  0  0
 18 19  2  0  0  0  0
 18 52  1  0  0  0  0
 19 20  1  0  0  0  0
 19 53  1  0  0  0  0
 20 21  2  0  0  0  0
 21 22  1  0  0  0  0
 21 39  1  0  0  0  0
 22 23  2  0  0  0  0
 22 38  1  0  0  0  0
 23 24  1  0  0  0  0
 23 54  1  0  0  0  0
 24 25  1  0  0  0  0
 24 37  2  0  0  0  0
 25 26  2  0  0  0  0
 25 27  1  0  0  0  0
 27 28  1  0  0  0  0
 27 55  1  0  0  0  0
 28 29  1  0  0  0  0
 28 56  1  0  0  0  0
 28 57  1  0  0  0  0
 29 30  2  0  0  0  0
 29 31  1  0  0  0  0
 31 32  1  0  0  0  0
 31 58  1  0  0  0  0
 32 33  1  0  0  0  0
 32 59  1  0  0  0  0
 32 60  1  0  0  0  0
 33 34  1  0  0  0  0
 33 35  1  0  0  0  0
 33 61  1  0  0  0  0
 34 62  1  0  0  0  0
 35 36  1  0  0  0  0
 35 63  1  0  0  0  0
 35 64  1  0  0  0  0
 36 65  1  0  0  0  0
 37 38  1  0  0  0  0
 37 66  1  0  0  0  0
 38 67  1  0  0  0  0
 39 68  1  0  0  0  0
 40 41  1  0  0  0  0
 40 69  1  0  0  0  0
 41 70  1  0  0  0  0
 42 71  1  0  0  0  0
M  END
$$$$
