CHEMBL3702619
 OpenBabel04072215373D

 48 51  0  0  0  0  0  0  0  0999 V2000
    4.8491    3.5311   -3.0657 N   0  0  0  0  0  0  0  0  0  0  0  0
    5.5709    2.4786   -2.5415 C   0  0  0  0  0  0  0  0  0  0  0  0
    6.6508    2.0826   -3.2156 N   0  0  0  0  0  0  0  0  0  0  0  0
    7.3292    1.0402   -2.6963 C   0  0  0  0  0  0  0  0  0  0  0  0
    6.9764    0.3949   -1.5288 C   0  0  0  0  0  0  0  0  0  0  0  0
    5.8541    0.8997   -0.9004 C   0  0  0  0  0  0  0  0  0  0  0  0
    5.1526    1.9494   -1.3892 N   0  0  0  0  0  0  0  0  0  0  0  0
    5.3824    0.3191    0.4068 C   0  0  0  0  0  0  0  0  0  0  0  0
    5.8872   -1.1071    0.6003 C   0  0  0  0  0  0  0  0  0  0  0  0
    7.3245   -1.1860    0.3221 N   0  0  0  0  0  0  0  0  0  0  0  0
    8.2678   -1.3159    1.3282 C   0  0  0  0  0  0  0  0  0  0  0  0
    9.4959   -1.9524    1.0867 C   0  0  0  0  0  0  0  0  0  0  0  0
   10.4626   -2.0982    2.0877 C   0  0  0  0  0  0  0  0  0  0  0  0
   10.2310   -1.5908    3.3683 C   0  0  0  0  0  0  0  0  0  0  0  0
    9.0232   -0.9475    3.6440 C   0  0  0  0  0  0  0  0  0  0  0  0
    8.6917   -0.3968    4.9943 C   0  0  0  0  0  0  0  0  0  0  0  0
    7.5163   -0.3244    5.3471 O   0  0  0  0  0  0  0  0  0  0  0  0
    9.7428    0.0296    5.7858 N   0  0  0  0  0  0  0  0  0  0  0  0
    9.5228    0.5866    7.1119 C   0  0  0  0  0  0  0  0  0  0  0  0
    9.3449    2.1059    7.1359 C   0  0  0  0  0  0  0  0  0  0  0  0
    9.7536    2.5388    8.5478 C   0  0  0  0  0  0  0  0  0  0  0  0
   10.4961    1.3575    9.1681 C   0  0  0  0  0  0  0  0  0  0  0  0
   10.7141    0.3636    8.0373 C   0  0  0  0  0  0  0  0  0  0  0  0
    8.0509   -0.8400    2.6318 C   0  0  0  0  0  0  0  0  0  0  0  0
    7.7352   -0.8033   -1.0334 C   0  0  0  0  0  0  0  0  0  0  0  0
    5.4396    4.0829   -3.6684 H   0  0  0  0  0  0  0  0  0  0  0  0
    4.3543    4.0081   -2.3262 H   0  0  0  0  0  0  0  0  0  0  0  0
    8.1939    0.7301   -3.2776 H   0  0  0  0  0  0  0  0  0  0  0  0
    4.2866    0.3227    0.4376 H   0  0  0  0  0  0  0  0  0  0  0  0
    5.7424    0.9625    1.2180 H   0  0  0  0  0  0  0  0  0  0  0  0
    5.3689   -1.7774   -0.0990 H   0  0  0  0  0  0  0  0  0  0  0  0
    5.6306   -1.4757    1.6003 H   0  0  0  0  0  0  0  0  0  0  0  0
    9.6982   -2.3887    0.1094 H   0  0  0  0  0  0  0  0  0  0  0  0
   11.3878   -2.6231    1.8645 H   0  0  0  0  0  0  0  0  0  0  0  0
   10.9817   -1.7417    4.1368 H   0  0  0  0  0  0  0  0  0  0  0  0
   10.6584    0.1295    5.3675 H   0  0  0  0  0  0  0  0  0  0  0  0
    8.6315    0.1189    7.5495 H   0  0  0  0  0  0  0  0  0  0  0  0
    8.3136    2.4016    6.9123 H   0  0  0  0  0  0  0  0  0  0  0  0
    9.9909    2.5984    6.3998 H   0  0  0  0  0  0  0  0  0  0  0  0
    8.8765    2.7932    9.1541 H   0  0  0  0  0  0  0  0  0  0  0  0
   10.3886    3.4310    8.5123 H   0  0  0  0  0  0  0  0  0  0  0  0
    9.8794    0.9058    9.9547 H   0  0  0  0  0  0  0  0  0  0  0  0
   11.4412    1.6629    9.6292 H   0  0  0  0  0  0  0  0  0  0  0  0
   10.7596   -0.6672    8.4031 H   0  0  0  0  0  0  0  0  0  0  0  0
   11.6610    0.5778    7.5248 H   0  0  0  0  0  0  0  0  0  0  0  0
    7.1179   -0.3399    2.8797 H   0  0  0  0  0  0  0  0  0  0  0  0
    7.5387   -1.6457   -1.7096 H   0  0  0  0  0  0  0  0  0  0  0  0
    8.8064   -0.5728   -1.0851 H   0  0  0  0  0  0  0  0  0  0  0  0
  1  2  1  0  0  0  0
  1 26  1  0  0  0  0
  1 27  1  0  0  0  0
  2  3  1  0  0  0  0
  2  7  2  0  0  0  0
  3  4  2  0  0  0  0
  4  5  1  0  0  0  0
  4 28  1  0  0  0  0
  5  6  2  0  0  0  0
  5 25  1  0  0  0  0
  6  7  1  0  0  0  0
  6  8  1  0  0  0  0
  8  9  1  0  0  0  0
  8 29  1  0  0  0  0
  8 30  1  0  0  0  0
  9 10  1  0  0  0  0
  9 31  1  0  0  0  0
  9 32  1  0  0  0  0
 10 11  1  0  0  0  0
 10 25  1  0  0  0  0
 11 12  1  0  0  0  0
 11 24  2  0  0  0  0
 12 13  2  0  0  0  0
 12 33  1  0  0  0  0
 13 14  1  0  0  0  0
 13 34  1  0  0  0  0
 14 15  2  0  0  0  0
 14 35  1  0  0  0  0
 15 16  1  0  0  0  0
 15 24  1  0  0  0  0
 16 17  2  0  0  0  0
 16 18  1  0  0  0  0
 18 19  1  0  0  0  0
 18 36  1  0  0  0  0
 19 20  1  0  0  0  0
 19 23  1  0  0  0  0
 19 37  1  0  0  0  0
 20 21  1  0  0  0  0
 20 38  1  0  0  0  0
 20 39  1  0  0  0  0
 21 22  1  0  0  0  0
 21 40  1  0  0  0  0
 21 41  1  0  0  0  0
 22 23  1  0  0  0  0
 22 42  1  0  0  0  0
 22 43  1  0  0  0  0
 23 44  1  0  0  0  0
 23 45  1  0  0  0  0
 24 46  1  0  0  0  0
 25 47  1  0  0  0  0
 25 48  1  0  0  0  0
M  END
$$$$
