CHEMBL244106
 OpenBabel04072215363D

 63 66  0  0  0  0  0  0  0  0999 V2000
    6.1904   -2.9405   -3.1759 C   0  0  0  0  0  0  0  0  0  0  0  0
    6.0238   -1.9743   -2.1448 O   0  0  0  0  0  0  0  0  0  0  0  0
    6.3695   -2.5104   -0.8692 C   0  0  0  0  0  0  0  0  0  0  0  0
    6.1804   -1.4464    0.2112 C   0  0  0  0  0  0  0  0  0  0  0  0
    6.5439   -2.0121    1.4713 O   0  0  0  0  0  0  0  0  0  0  0  0
    6.3966   -1.0975    2.5553 C   0  0  0  0  0  0  0  0  0  0  0  0
    6.7886   -1.8023    3.8678 C   0  0  0  0  0  0  0  0  0  0  0  0
    6.0040   -1.9228    4.7957 O   0  0  0  0  0  0  0  0  0  0  0  0
    8.1022   -2.2717    3.8680 N   0  0  0  0  0  0  0  0  0  0  0  0
    8.5759   -2.8680    5.0108 C   0  0  0  0  0  0  0  0  0  0  0  0
    9.6181   -2.4825    5.7051 N   0  0  0  0  0  0  0  0  0  0  0  0
    9.6437   -3.3203    6.7972 C   0  0  0  0  0  0  0  0  0  0  0  0
   10.4508   -3.2759    7.9405 C   0  0  0  0  0  0  0  0  0  0  0  0
   10.3189   -4.2935    8.8998 C   0  0  0  0  0  0  0  0  0  0  0  0
    9.4173   -5.3579    8.7187 C   0  0  0  0  0  0  0  0  0  0  0  0
    9.2837   -6.4233    9.6013 O   0  0  0  0  0  0  0  0  0  0  0  0
   10.4097   -6.8919   10.2466 C   0  0  0  0  0  0  0  0  0  0  0  0
   10.2849   -7.4869   11.4978 C   0  0  0  0  0  0  0  0  0  0  0  0
   11.4377   -7.8773   12.1916 C   0  0  0  0  0  0  0  0  0  0  0  0
   12.7187   -7.7056   11.6605 C   0  0  0  0  0  0  0  0  0  0  0  0
   13.9115   -7.9987   12.3905 N   0  0  0  0  0  0  0  0  0  0  0  0
   13.9485   -8.4879   13.6711 C   0  0  0  0  0  0  0  0  0  0  0  0
   12.9449   -8.7376   14.3612 O   0  0  0  0  0  0  0  0  0  0  0  0
   15.2198   -8.7059   14.1745 N   0  0  0  0  0  0  0  0  0  0  0  0
   15.3462   -9.2107   15.5046 C   0  0  0  0  0  0  0  0  0  0  0  0
   14.7779  -10.4426   15.8517 C   0  0  0  0  0  0  0  0  0  0  0  0
   14.8575  -10.9442   17.1654 C   0  0  0  0  0  0  0  0  0  0  0  0
   14.2504  -12.2860   17.5047 C   0  0  0  0  0  0  0  0  0  0  0  0
   13.6682  -12.8913   16.4305 F   0  0  0  0  0  0  0  0  0  0  0  0
   15.1717  -13.1733   17.9725 F   0  0  0  0  0  0  0  0  0  0  0  0
   13.2848  -12.2133   18.4615 F   0  0  0  0  0  0  0  0  0  0  0  0
   15.5086  -10.1754   18.1431 C   0  0  0  0  0  0  0  0  0  0  0  0
   16.0848   -8.9489   17.8023 C   0  0  0  0  0  0  0  0  0  0  0  0
   16.0187   -8.4812   16.4854 C   0  0  0  0  0  0  0  0  0  0  0  0
   16.5565   -7.2913   16.1880 F   0  0  0  0  0  0  0  0  0  0  0  0
   12.8219   -7.2012   10.3575 C   0  0  0  0  0  0  0  0  0  0  0  0
   11.6726   -6.8161    9.6602 C   0  0  0  0  0  0  0  0  0  0  0  0
    8.5650   -5.3767    7.6045 C   0  0  0  0  0  0  0  0  0  0  0  0
    8.7042   -4.3378    6.6749 C   0  0  0  0  0  0  0  0  0  0  0  0
    8.0200   -4.0142    5.5273 N   0  0  0  0  0  0  0  0  0  0  0  0
    5.9126   -2.4803   -4.1280 H   0  0  0  0  0  0  0  0  0  0  0  0
    5.5403   -3.8036   -3.0023 H   0  0  0  0  0  0  0  0  0  0  0  0
    7.2348   -3.2620   -3.2352 H   0  0  0  0  0  0  0  0  0  0  0  0
    7.4131   -2.8481   -0.8752 H   0  0  0  0  0  0  0  0  0  0  0  0
    5.7415   -3.3811   -0.6445 H   0  0  0  0  0  0  0  0  0  0  0  0
    5.1358   -1.1084    0.2243 H   0  0  0  0  0  0  0  0  0  0  0  0
    6.8118   -0.5765   -0.0095 H   0  0  0  0  0  0  0  0  0  0  0  0
    5.3552   -0.7594    2.6223 H   0  0  0  0  0  0  0  0  0  0  0  0
    7.0523   -0.2316    2.4109 H   0  0  0  0  0  0  0  0  0  0  0  0
    8.7910   -1.8104    3.2859 H   0  0  0  0  0  0  0  0  0  0  0  0
   11.1546   -2.4624    8.0804 H   0  0  0  0  0  0  0  0  0  0  0  0
   10.9801   -4.2538    9.7642 H   0  0  0  0  0  0  0  0  0  0  0  0
    9.3179   -7.6442   11.9677 H   0  0  0  0  0  0  0  0  0  0  0  0
   11.2752   -8.3133   13.1736 H   0  0  0  0  0  0  0  0  0  0  0  0
   14.7948   -7.7974   11.9303 H   0  0  0  0  0  0  0  0  0  0  0  0
   15.9096   -8.0136   13.9033 H   0  0  0  0  0  0  0  0  0  0  0  0
   14.2659  -11.0319   15.0896 H   0  0  0  0  0  0  0  0  0  0  0  0
   15.5616  -10.5322   19.1711 H   0  0  0  0  0  0  0  0  0  0  0  0
   16.5764   -8.3458   18.5610 H   0  0  0  0  0  0  0  0  0  0  0  0
   13.7785   -7.0922    9.8600 H   0  0  0  0  0  0  0  0  0  0  0  0
   11.7600   -6.4131    8.6564 H   0  0  0  0  0  0  0  0  0  0  0  0
    7.8451   -6.1749    7.4699 H   0  0  0  0  0  0  0  0  0  0  0  0
    7.2292   -4.4983    5.1395 H   0  0  0  0  0  0  0  0  0  0  0  0
  1  2  1  0  0  0  0
  1 41  1  0  0  0  0
  1 42  1  0  0  0  0
  1 43  1  0  0  0  0
  2  3  1  0  0  0  0
  3  4  1  0  0  0  0
  3 44  1  0  0  0  0
  3 45  1  0  0  0  0
  4  5  1  0  0  0  0
  4 46  1  0  0  0  0
  4 47  1  0  0  0  0
  5  6  1  0  0  0  0
  6  7  1  0  0  0  0
  6 48  1  0  0  0  0
  6 49  1  0  0  0  0
  7  8  2  0  0  0  0
  7  9  1  0  0  0  0
  9 10  1  0  0  0  0
  9 50  1  0  0  0  0
 10 11  2  0  0  0  0
 10 40  1  0  0  0  0
 11 12  1  0  0  0  0
 12 13  1  0  0  0  0
 12 39  2  0  0  0  0
 13 14  2  0  0  0  0
 13 51  1  0  0  0  0
 14 15  1  0  0  0  0
 14 52  1  0  0  0  0
 15 16  1  0  0  0  0
 15 38  2  0  0  0  0
 16 17  1  0  0  0  0
 17 18  1  0  0  0  0
 17 37  2  0  0  0  0
 18 19  2  0  0  0  0
 18 53  1  0  0  0  0
 19 20  1  0  0  0  0
 19 54  1  0  0  0  0
 20 21  1  0  0  0  0
 20 36  2  0  0  0  0
 21 22  1  0  0  0  0
 21 55  1  0  0  0  0
 22 23  2  0  0  0  0
 22 24  1  0  0  0  0
 24 25  1  0  0  0  0
 24 56  1  0  0  0  0
 25 26  1  0  0  0  0
 25 34  2  0  0  0  0
 26 27  2  0  0  0  0
 26 57  1  0  0  0  0
 27 28  1  0  0  0  0
 27 32  1  0  0  0  0
 28 29  1  0  0  0  0
 28 30  1  0  0  0  0
 28 31  1  0  0  0  0
 32 33  2  0  0  0  0
 32 58  1  0  0  0  0
 33 34  1  0  0  0  0
 33 59  1  0  0  0  0
 34 35  1  0  0  0  0
 36 37  1  0  0  0  0
 36 60  1  0  0  0  0
 37 61  1  0  0  0  0
 38 39  1  0  0  0  0
 38 62  1  0  0  0  0
 39 40  1  0  0  0  0
 40 63  1  0  0  0  0
M  END
$$$$
