CHEMBL3221560
 OpenBabel04072215363D

 49 50  0  0  0  0  0  0  0  0999 V2000
    0.9245   -0.0832    5.7045 C   0  0  0  0  0  0  0  0  0  0  0  0
    1.8491   -1.0727    5.0142 C   0  0  0  0  0  0  0  0  0  0  0  0
    2.7665   -0.4207    4.2123 O   0  0  0  0  0  0  0  0  0  0  0  0
    4.1096   -0.5625    4.3345 C   0  0  0  0  0  0  0  0  0  0  0  0
    4.5770   -1.1158    5.3203 O   0  0  0  0  0  0  0  0  0  0  0  0
    4.9282   -0.0454    3.3825 N   0  0  0  0  0  0  0  0  0  0  0  0
    6.3459   -0.1703    3.4441 C   0  0  0  0  0  0  0  0  0  0  0  0
    7.1099    0.9740    3.2095 C   0  0  0  0  0  0  0  0  0  0  0  0
    8.4851    0.9322    3.3328 C   0  0  0  0  0  0  0  0  0  0  0  0
    9.1488   -0.2682    3.6680 C   0  0  0  0  0  0  0  0  0  0  0  0
   10.5595   -0.3112    3.8379 N   0  0  0  0  0  0  0  0  0  0  0  0
   11.3960    0.6684    3.2311 C   0  0  0  0  0  0  0  0  0  0  0  0
   11.0297    1.1855    2.0345 N   0  0  0  0  0  0  0  0  0  0  0  0
   11.7696    2.1333    1.4113 C   0  0  0  0  0  0  0  0  0  0  0  0
   12.9007    2.5920    1.9889 N   0  0  0  0  0  0  0  0  0  0  0  0
   13.3141    2.1179    3.1913 C   0  0  0  0  0  0  0  0  0  0  0  0
   14.4580    2.6370    3.7768 C   0  0  0  0  0  0  0  0  0  0  0  0
   14.9034    2.1876    5.0425 C   0  0  0  0  0  0  0  0  0  0  0  0
   16.0210    2.7396    5.6028 O   0  0  0  0  0  0  0  0  0  0  0  0
   16.7567    3.7546    5.0325 C   0  0  0  0  0  0  0  0  0  0  0  0
   14.1615    1.1711    5.7116 C   0  0  0  0  0  0  0  0  0  0  0  0
   14.4551    0.6242    6.9219 O   0  0  0  0  0  0  0  0  0  0  0  0
   15.4914    0.8908    7.7774 C   0  0  0  0  0  0  0  0  0  0  0  0
   13.0108    0.6551    5.1014 C   0  0  0  0  0  0  0  0  0  0  0  0
   12.5747    1.1168    3.8515 C   0  0  0  0  0  0  0  0  0  0  0  0
    8.3916   -1.4229    3.8764 C   0  0  0  0  0  0  0  0  0  0  0  0
    7.0017   -1.3937    3.7559 C   0  0  0  0  0  0  0  0  0  0  0  0
    6.1615   -2.9345    3.9339 Cl  0  0  0  0  0  0  0  0  0  0  0  0
    0.2435    1.8516   -0.7615 Cl  0  0  0  0  0  0  0  0  0  0  0  0
    0.1816   -0.6504    6.3019 H   0  0  0  0  0  0  0  0  0  0  0  0
    0.3913    0.5280    4.9484 H   0  0  0  0  0  0  0  0  0  0  0  0
    1.5005    0.5817    6.3836 H   0  0  0  0  0  0  0  0  0  0  0  0
    1.2463   -1.7428    4.3687 H   0  0  0  0  0  0  0  0  0  0  0  0
    2.3396   -1.7027    5.7904 H   0  0  0  0  0  0  0  0  0  0  0  0
    4.5154    0.5615    2.6564 H   0  0  0  0  0  0  0  0  0  0  0  0
    6.6267    1.9163    2.9772 H   0  0  0  0  0  0  0  0  0  0  0  0
    9.0236    1.8584    3.1920 H   0  0  0  0  0  0  0  0  0  0  0  0
   10.9601   -1.0522    4.4236 H   0  0  0  0  0  0  0  0  0  0  0  0
   11.4502    2.5183    0.4502 H   0  0  0  0  0  0  0  0  0  0  0  0
   14.9783    3.4118    3.2345 H   0  0  0  0  0  0  0  0  0  0  0  0
   17.6067    4.0397    5.6826 H   0  0  0  0  0  0  0  0  0  0  0  0
   16.1225    4.6590    4.8747 H   0  0  0  0  0  0  0  0  0  0  0  0
   17.1677    3.4331    4.0446 H   0  0  0  0  0  0  0  0  0  0  0  0
   15.3762    0.2199    8.6624 H   0  0  0  0  0  0  0  0  0  0  0  0
   15.4470    1.9379    8.1392 H   0  0  0  0  0  0  0  0  0  0  0  0
   16.4641    0.6609    7.3022 H   0  0  0  0  0  0  0  0  0  0  0  0
   12.4577   -0.1014    5.6387 H   0  0  0  0  0  0  0  0  0  0  0  0
    8.8905   -2.3554    4.1202 H   0  0  0  0  0  0  0  0  0  0  0  0
    1.1578    0.9546   -1.2633 H   0  0  0  0  0  0  0  0  0  0  0  0
  1  2  1  0  0  0  0
  1 30  1  0  0  0  0
  1 31  1  0  0  0  0
  1 32  1  0  0  0  0
  2  3  1  0  0  0  0
  2 33  1  0  0  0  0
  2 34  1  0  0  0  0
  3  4  1  0  0  0  0
  4  5  2  0  0  0  0
  4  6  1  0  0  0  0
  6  7  1  0  0  0  0
  6 35  1  0  0  0  0
  7  8  1  0  0  0  0
  7 27  2  0  0  0  0
  8  9  2  0  0  0  0
  8 36  1  0  0  0  0
  9 10  1  0  0  0  0
  9 37  1  0  0  0  0
 10 11  1  0  0  0  0
 10 26  2  0  0  0  0
 11 12  1  0  0  0  0
 11 38  1  0  0  0  0
 12 13  1  0  0  0  0
 12 25  2  0  0  0  0
 13 14  2  0  0  0  0
 14 15  1  0  0  0  0
 14 39  1  0  0  0  0
 15 16  2  0  0  0  0
 16 17  1  0  0  0  0
 16 25  1  0  0  0  0
 17 18  2  0  0  0  0
 17 40  1  0  0  0  0
 18 19  1  0  0  0  0
 18 21  1  0  0  0  0
 19 20  1  0  0  0  0
 20 41  1  0  0  0  0
 20 42  1  0  0  0  0
 20 43  1  0  0  0  0
 21 22  1  0  0  0  0
 21 24  2  0  0  0  0
 22 23  1  0  0  0  0
 23 44  1  0  0  0  0
 23 45  1  0  0  0  0
 23 46  1  0  0  0  0
 24 25  1  0  0  0  0
 24 47  1  0  0  0  0
 26 27  1  0  0  0  0
 26 48  1  0  0  0  0
 27 28  1  0  0  0  0
 29 49  1  0  0  0  0
M  END
$$$$
