CHEMBL3978649
 OpenBabel04072215373D

 51 53  0  0  0  0  0  0  0  0999 V2000
    2.1445   -0.7086    0.9827 C   0  0  0  0  0  0  0  0  0  0  0  0
    0.8370   -0.3212    0.3916 C   0  0  0  0  0  0  0  0  0  0  0  0
    0.4385    0.9906    0.0126 C   0  0  0  0  0  0  0  0  0  0  0  0
   -0.8359    0.8825   -0.4869 C   0  0  0  0  0  0  0  0  0  0  0  0
   -1.2579   -0.4059   -0.4490 O   0  0  0  0  0  0  0  0  0  0  0  0
   -0.2438   -1.1519    0.0980 C   0  0  0  0  0  0  0  0  0  0  0  0
   -0.4330   -2.5815    0.2823 C   0  0  0  0  0  0  0  0  0  0  0  0
    0.4025   -3.2694    0.8611 O   0  0  0  0  0  0  0  0  0  0  0  0
   -1.6129   -3.0721   -0.2779 N   0  0  0  0  0  0  0  0  0  0  0  0
   -2.0578   -4.4143   -0.2795 C   0  0  0  0  0  0  0  0  0  0  0  0
   -1.5142   -5.3902    0.5616 C   0  0  0  0  0  0  0  0  0  0  0  0
   -1.9393   -6.7169    0.4918 C   0  0  0  0  0  0  0  0  0  0  0  0
   -2.9086   -7.0915   -0.4321 C   0  0  0  0  0  0  0  0  0  0  0  0
   -3.4782   -6.1335   -1.2741 C   0  0  0  0  0  0  0  0  0  0  0  0
   -4.4035   -6.5703   -2.2793 C   0  0  0  0  0  0  0  0  0  0  0  0
   -5.0868   -7.0065   -3.1645 C   0  0  0  0  0  0  0  0  0  0  0  0
   -5.8048   -7.5183   -4.3001 C   0  0  0  0  0  0  0  0  0  0  0  0
   -6.6357   -6.6502   -5.0106 C   0  0  0  0  0  0  0  0  0  0  0  0
   -7.2024   -7.0694   -6.2150 C   0  0  0  0  0  0  0  0  0  0  0  0
   -7.9503   -6.1151   -7.0783 C   0  0  0  0  0  0  0  0  0  0  0  0
   -7.8340   -4.9219   -6.8130 O   0  0  0  0  0  0  0  0  0  0  0  0
   -8.8178   -6.5772   -8.0800 N   0  0  0  0  0  0  0  0  0  0  0  0
   -9.0547   -5.7632   -9.3685 S   0  0  0  0  0  0  0  0  0  0  0  0
  -10.1266   -4.3853   -9.0146 C   0  0  0  0  0  0  0  0  0  0  0  0
  -10.1002   -6.7717  -10.3954 C   0  0  0  0  0  0  0  0  0  0  0  0
   -7.9936   -5.2728  -10.2264 O   0  0  0  0  0  0  0  0  0  0  0  0
   -6.9744   -8.3765   -6.6159 C   0  0  0  0  0  0  0  0  0  0  0  0
   -6.2135   -9.2607   -5.9156 N   0  0  0  0  0  0  0  0  0  0  0  0
   -5.6228   -8.8218   -4.7835 C   0  0  0  0  0  0  0  0  0  0  0  0
   -4.7386   -9.7223   -4.1924 N   0  0  0  0  0  0  0  0  0  0  0  0
   -3.0700   -4.7910   -1.1793 C   0  0  0  0  0  0  0  0  0  0  0  0
    2.8265    0.1482    1.0210 H   0  0  0  0  0  0  0  0  0  0  0  0
    2.6266   -1.4890    0.3848 H   0  0  0  0  0  0  0  0  0  0  0  0
    2.0156   -1.0776    2.0051 H   0  0  0  0  0  0  0  0  0  0  0  0
    1.0144    1.9023    0.0980 H   0  0  0  0  0  0  0  0  0  0  0  0
   -1.5412    1.5981   -0.8870 H   0  0  0  0  0  0  0  0  0  0  0  0
   -2.1354   -2.3967   -0.8242 H   0  0  0  0  0  0  0  0  0  0  0  0
   -0.7528   -5.1475    1.2973 H   0  0  0  0  0  0  0  0  0  0  0  0
   -1.4931   -7.4617    1.1459 H   0  0  0  0  0  0  0  0  0  0  0  0
   -3.2025   -8.1343   -0.5077 H   0  0  0  0  0  0  0  0  0  0  0  0
   -6.7998   -5.6366   -4.6525 H   0  0  0  0  0  0  0  0  0  0  0  0
  -10.9512   -4.7171   -8.3814 H   0  0  0  0  0  0  0  0  0  0  0  0
  -10.5156   -4.0007   -9.9616 H   0  0  0  0  0  0  0  0  0  0  0  0
   -9.5505   -3.6005   -8.5215 H   0  0  0  0  0  0  0  0  0  0  0  0
  -10.9038   -7.1911   -9.7869 H   0  0  0  0  0  0  0  0  0  0  0  0
   -9.4893   -7.5686  -10.8245 H   0  0  0  0  0  0  0  0  0  0  0  0
  -10.5131   -6.1530  -11.1946 H   0  0  0  0  0  0  0  0  0  0  0  0
   -7.3707   -8.7652   -7.5510 H   0  0  0  0  0  0  0  0  0  0  0  0
   -4.8185  -10.6108   -4.6788 H   0  0  0  0  0  0  0  0  0  0  0  0
   -4.8640   -9.8020   -3.1911 H   0  0  0  0  0  0  0  0  0  0  0  0
   -3.5185   -4.0515   -1.8412 H   0  0  0  0  0  0  0  0  0  0  0  0
  1  2  1  0  0  0  0
  1 32  1  0  0  0  0
  1 33  1  0  0  0  0
  1 34  1  0  0  0  0
  2  3  1  0  0  0  0
  2  6  2  0  0  0  0
  3  4  2  0  0  0  0
  3 35  1  0  0  0  0
  4  5  1  0  0  0  0
  4 36  1  0  0  0  0
  5  6  1  0  0  0  0
  6  7  1  0  0  0  0
  7  8  2  0  0  0  0
  7  9  1  0  0  0  0
  9 10  1  0  0  0  0
  9 37  1  0  0  0  0
 10 11  1  0  0  0  0
 10 31  2  0  0  0  0
 11 12  2  0  0  0  0
 11 38  1  0  0  0  0
 12 13  1  0  0  0  0
 12 39  1  0  0  0  0
 13 14  2  0  0  0  0
 13 40  1  0  0  0  0
 14 15  1  0  0  0  0
 14 31  1  0  0  0  0
 15 16  3  0  0  0  0
 16 17  1  0  0  0  0
 17 18  1  0  0  0  0
 17 29  2  0  0  0  0
 18 19  2  0  0  0  0
 18 41  1  0  0  0  0
 19 20  1  0  0  0  0
 19 27  1  0  0  0  0
 20 21  2  0  0  0  0
 20 22  1  0  0  0  0
 22 23  2  0  0  0  0
 23 24  1  0  0  0  0
 23 25  1  0  0  0  0
 23 26  2  0  0  0  0
 24 42  1  0  0  0  0
 24 43  1  0  0  0  0
 24 44  1  0  0  0  0
 25 45  1  0  0  0  0
 25 46  1  0  0  0  0
 25 47  1  0  0  0  0
 27 28  2  0  0  0  0
 27 48  1  0  0  0  0
 28 29  1  0  0  0  0
 29 30  1  0  0  0  0
 30 49  1  0  0  0  0
 30 50  1  0  0  0  0
 31 51  1  0  0  0  0
M  END
$$$$
