CHEMBL1983348
 OpenBabel04072215363D

 51 54  0  0  0  0  0  0  0  0999 V2000
    2.7632    0.9793   -0.5127 C   0  0  0  0  0  0  0  0  0  0  0  0
    3.9758    1.2261    0.3701 C   0  0  0  0  0  0  0  0  0  0  0  0
    4.3443    0.0622    1.3007 C   0  0  0  0  0  0  0  0  0  0  0  0
    4.7914   -1.2419    0.6159 C   0  0  0  0  0  0  0  0  0  0  0  0
    5.1673   -2.2880    1.6014 N   0  0  0  0  0  0  0  0  0  0  0  0
    4.1945   -3.3434    1.9627 C   0  0  0  0  0  0  0  0  0  0  0  0
    2.7652   -2.9141    2.0880 C   0  0  0  0  0  0  0  0  0  0  0  0
    1.8263   -3.9890    2.6109 C   0  0  0  0  0  0  0  0  0  0  0  0
    1.0475   -4.8808    3.0447 N   0  0  0  0  0  0  0  0  0  0  0  0
    6.4842   -2.2367    2.1157 C   0  0  0  0  0  0  0  0  0  0  0  0
    7.2652   -1.3326    1.8206 O   0  0  0  0  0  0  0  0  0  0  0  0
    6.9570   -3.2534    3.1084 C   0  0  0  0  0  0  0  0  0  0  0  0
    6.6479   -4.6173    2.9848 C   0  0  0  0  0  0  0  0  0  0  0  0
    6.9270   -5.5212    4.0133 C   0  0  0  0  0  0  0  0  0  0  0  0
    7.6597   -5.0718    5.1122 C   0  0  0  0  0  0  0  0  0  0  0  0
    8.0904   -5.7710    6.1997 N   0  0  0  0  0  0  0  0  0  0  0  0
    8.7898   -4.9148    6.9150 C   0  0  0  0  0  0  0  0  0  0  0  0
    9.5000   -5.2439    8.1814 C   0  0  0  0  0  0  0  0  0  0  0  0
   10.1749   -4.3164    8.8779 N   0  0  0  0  0  0  0  0  0  0  0  0
   10.6502   -5.0108    9.9314 N   0  0  0  0  0  0  0  0  0  0  0  0
   10.3156   -6.3384    9.9360 C   0  0  0  0  0  0  0  0  0  0  0  0
   10.6078   -7.3712   10.8338 C   0  0  0  0  0  0  0  0  0  0  0  0
   10.1044   -8.6449   10.5305 C   0  0  0  0  0  0  0  0  0  0  0  0
    9.3449   -8.8682    9.3828 C   0  0  0  0  0  0  0  0  0  0  0  0
    9.0628   -7.8186    8.5008 C   0  0  0  0  0  0  0  0  0  0  0  0
    9.5579   -6.5283    8.7872 C   0  0  0  0  0  0  0  0  0  0  0  0
    8.7900   -3.6710    6.3342 N   0  0  0  0  0  0  0  0  0  0  0  0
    8.0678   -3.7414    5.1700 C   0  0  0  0  0  0  0  0  0  0  0  0
    7.7241   -2.7960    4.1967 C   0  0  0  0  0  0  0  0  0  0  0  0
    2.4691    1.9073   -1.0145 H   0  0  0  0  0  0  0  0  0  0  0  0
    1.9059    0.6336    0.0748 H   0  0  0  0  0  0  0  0  0  0  0  0
    2.9780    0.2369   -1.2878 H   0  0  0  0  0  0  0  0  0  0  0  0
    3.7546    2.0985    0.9996 H   0  0  0  0  0  0  0  0  0  0  0  0
    4.8323    1.5048   -0.2538 H   0  0  0  0  0  0  0  0  0  0  0  0
    3.4940   -0.1357    1.9602 H   0  0  0  0  0  0  0  0  0  0  0  0
    5.1544    0.4117    1.9527 H   0  0  0  0  0  0  0  0  0  0  0  0
    5.6617   -1.0305   -0.0178 H   0  0  0  0  0  0  0  0  0  0  0  0
    4.0159   -1.6387   -0.0466 H   0  0  0  0  0  0  0  0  0  0  0  0
    4.4518   -3.7580    2.9365 H   0  0  0  0  0  0  0  0  0  0  0  0
    4.2826   -4.1300    1.2048 H   0  0  0  0  0  0  0  0  0  0  0  0
    2.3683   -2.5724    1.1257 H   0  0  0  0  0  0  0  0  0  0  0  0
    2.6897   -2.0663    2.7789 H   0  0  0  0  0  0  0  0  0  0  0  0
    6.1420   -4.9998    2.1044 H   0  0  0  0  0  0  0  0  0  0  0  0
    6.5995   -6.5532    3.9660 H   0  0  0  0  0  0  0  0  0  0  0  0
   11.2081   -4.5196   10.6193 H   0  0  0  0  0  0  0  0  0  0  0  0
   11.1978   -7.2040   11.7286 H   0  0  0  0  0  0  0  0  0  0  0  0
   10.3121   -9.4724   11.2027 H   0  0  0  0  0  0  0  0  0  0  0  0
    8.9691   -9.8663    9.1640 H   0  0  0  0  0  0  0  0  0  0  0  0
    8.4720   -7.9928    7.6038 H   0  0  0  0  0  0  0  0  0  0  0  0
    9.2784   -2.8698    6.7126 H   0  0  0  0  0  0  0  0  0  0  0  0
    8.0247   -1.7533    4.2769 H   0  0  0  0  0  0  0  0  0  0  0  0
  1  2  1  0  0  0  0
  1 30  1  0  0  0  0
  1 31  1  0  0  0  0
  1 32  1  0  0  0  0
  2  3  1  0  0  0  0
  2 33  1  0  0  0  0
  2 34  1  0  0  0  0
  3  4  1  0  0  0  0
  3 35  1  0  0  0  0
  3 36  1  0  0  0  0
  4  5  1  0  0  0  0
  4 37  1  0  0  0  0
  4 38  1  0  0  0  0
  5  6  1  0  0  0  0
  5 10  1  0  0  0  0
  6  7  1  0  0  0  0
  6 39  1  0  0  0  0
  6 40  1  0  0  0  0
  7  8  1  0  0  0  0
  7 41  1  0  0  0  0
  7 42  1  0  0  0  0
  8  9  3  0  0  0  0
 10 11  2  0  0  0  0
 10 12  1  0  0  0  0
 12 13  1  0  0  0  0
 12 29  2  0  0  0  0
 13 14  2  0  0  0  0
 13 43  1  0  0  0  0
 14 15  1  0  0  0  0
 14 44  1  0  0  0  0
 15 16  1  0  0  0  0
 15 28  2  0  0  0  0
 16 17  2  0  0  0  0
 17 18  1  0  0  0  0
 17 27  1  0  0  0  0
 18 19  2  0  0  0  0
 18 26  1  0  0  0  0
 19 20  1  0  0  0  0
 20 21  1  0  0  0  0
 20 45  1  0  0  0  0
 21 22  1  0  0  0  0
 21 26  2  0  0  0  0
 22 23  2  0  0  0  0
 22 46  1  0  0  0  0
 23 24  1  0  0  0  0
 23 47  1  0  0  0  0
 24 25  2  0  0  0  0
 24 48  1  0  0  0  0
 25 26  1  0  0  0  0
 25 49  1  0  0  0  0
 27 28  1  0  0  0  0
 27 50  1  0  0  0  0
 28 29  1  0  0  0  0
 29 51  1  0  0  0  0
M  END
$$$$
