CHEMBL3671540
 OpenBabel04072215373D

 58 60  0  0  0  0  0  0  0  0999 V2000
    3.0804    2.0818   -1.6342 C   0  0  0  0  0  0  0  0  0  0  0  0
    3.2579    1.2046   -0.6401 C   0  0  0  0  0  0  0  0  0  0  0  0
    4.1121    1.5754    0.5160 C   0  0  0  0  0  0  0  0  0  0  0  0
    4.4006    2.7433    0.7500 O   0  0  0  0  0  0  0  0  0  0  0  0
    4.4770    0.4809    1.2765 N   0  0  0  0  0  0  0  0  0  0  0  0
    5.2108    0.6251    2.4716 C   0  0  0  0  0  0  0  0  0  0  0  0
    6.3444    1.4433    2.4281 C   0  0  0  0  0  0  0  0  0  0  0  0
    7.0737    1.7595    3.5821 C   0  0  0  0  0  0  0  0  0  0  0  0
    8.2189    2.5711    3.5876 C   0  0  0  0  0  0  0  0  0  0  0  0
    8.6880    3.1365    2.3704 N   0  0  0  0  0  0  0  0  0  0  0  0
    9.9722    3.7049    2.2076 C   0  0  0  0  0  0  0  0  0  0  0  0
   11.1207    3.0069    2.6073 C   0  0  0  0  0  0  0  0  0  0  0  0
   12.3811    3.5987    2.4953 C   0  0  0  0  0  0  0  0  0  0  0  0
   12.4948    4.8783    1.9758 C   0  0  0  0  0  0  0  0  0  0  0  0
   13.7037    5.4493    1.8978 F   0  0  0  0  0  0  0  0  0  0  0  0
   11.3770    5.5788    1.5414 C   0  0  0  0  0  0  0  0  0  0  0  0
   10.1262    4.9822    1.6522 C   0  0  0  0  0  0  0  0  0  0  0  0
    9.0423    5.6570    1.2363 F   0  0  0  0  0  0  0  0  0  0  0  0
    8.8901    2.8373    4.7244 N   0  0  0  0  0  0  0  0  0  0  0  0
    8.3947    2.3165    5.8474 C   0  0  0  0  0  0  0  0  0  0  0  0
    7.3163    1.5341    5.9517 N   0  0  0  0  0  0  0  0  0  0  0  0
    6.6699    1.2495    4.8162 C   0  0  0  0  0  0  0  0  0  0  0  0
    5.5591    0.4039    4.8467 C   0  0  0  0  0  0  0  0  0  0  0  0
    4.8475    0.0361    3.6898 C   0  0  0  0  0  0  0  0  0  0  0  0
    3.7787   -0.7904    3.9439 O   0  0  0  0  0  0  0  0  0  0  0  0
    3.4630   -1.7487    2.9349 C   0  0  0  0  0  0  0  0  0  0  0  0
    2.8867   -3.0308    3.5438 C   0  0  0  0  0  0  0  0  0  0  0  0
    2.6538   -4.0465    2.5265 N   0  0  0  0  0  0  0  0  0  0  0  0
    3.7062   -4.7747    2.0049 C   0  0  0  0  0  0  0  0  0  0  0  0
    4.8516   -4.7027    2.4428 O   0  0  0  0  0  0  0  0  0  0  0  0
    3.3424   -5.6513    0.8019 C   0  0  0  0  0  0  0  0  0  0  0  0
    2.9407   -4.8203   -0.3624 N   0  0  0  0  0  0  0  0  0  0  0  0
    4.0654   -3.9944   -0.8250 C   0  0  0  0  0  0  0  0  0  0  0  0
    2.5291   -5.7058   -1.4611 C   0  0  0  0  0  0  0  0  0  0  0  0
    2.4517    1.8473   -2.4853 H   0  0  0  0  0  0  0  0  0  0  0  0
    3.5603    3.0592   -1.6189 H   0  0  0  0  0  0  0  0  0  0  0  0
    2.7729    0.2378   -0.6512 H   0  0  0  0  0  0  0  0  0  0  0  0
    4.0604   -0.4080    1.0620 H   0  0  0  0  0  0  0  0  0  0  0  0
    6.6760    1.8257    1.4609 H   0  0  0  0  0  0  0  0  0  0  0  0
    7.9659    3.7421    1.9817 H   0  0  0  0  0  0  0  0  0  0  0  0
   11.0323    2.0052    3.0168 H   0  0  0  0  0  0  0  0  0  0  0  0
   13.2680    3.0615    2.8249 H   0  0  0  0  0  0  0  0  0  0  0  0
   11.4781    6.5783    1.1370 H   0  0  0  0  0  0  0  0  0  0  0  0
    8.9219    2.5565    6.7661 H   0  0  0  0  0  0  0  0  0  0  0  0
    5.2353    0.0204    5.8121 H   0  0  0  0  0  0  0  0  0  0  0  0
    4.3514   -2.0102    2.3514 H   0  0  0  0  0  0  0  0  0  0  0  0
    2.7016   -1.3114    2.2766 H   0  0  0  0  0  0  0  0  0  0  0  0
    1.9345   -2.8248    4.0410 H   0  0  0  0  0  0  0  0  0  0  0  0
    3.5723   -3.4260    4.3001 H   0  0  0  0  0  0  0  0  0  0  0  0
    1.8048   -4.0125    1.9721 H   0  0  0  0  0  0  0  0  0  0  0  0
    2.5089   -6.2953    1.1106 H   0  0  0  0  0  0  0  0  0  0  0  0
    4.1972   -6.2953    0.5624 H   0  0  0  0  0  0  0  0  0  0  0  0
    4.3897   -3.2913   -0.0511 H   0  0  0  0  0  0  0  0  0  0  0  0
    3.7569   -3.3817   -1.6798 H   0  0  0  0  0  0  0  0  0  0  0  0
    4.9289   -4.5976   -1.1292 H   0  0  0  0  0  0  0  0  0  0  0  0
    1.6944   -6.3460   -1.1553 H   0  0  0  0  0  0  0  0  0  0  0  0
    3.3481   -6.3505   -1.8037 H   0  0  0  0  0  0  0  0  0  0  0  0
    2.1780   -5.1170   -2.3167 H   0  0  0  0  0  0  0  0  0  0  0  0
  1  2  2  0  0  0  0
  1 35  1  0  0  0  0
  1 36  1  0  0  0  0
  2  3  1  0  0  0  0
  2 37  1  0  0  0  0
  3  4  2  0  0  0  0
  3  5  1  0  0  0  0
  5  6  1  0  0  0  0
  5 38  1  0  0  0  0
  6  7  1  0  0  0  0
  6 24  2  0  0  0  0
  7  8  2  0  0  0  0
  7 39  1  0  0  0  0
  8  9  1  0  0  0  0
  8 22  1  0  0  0  0
  9 10  1  0  0  0  0
  9 19  2  0  0  0  0
 10 11  1  0  0  0  0
 10 40  1  0  0  0  0
 11 12  1  0  0  0  0
 11 17  2  0  0  0  0
 12 13  2  0  0  0  0
 12 41  1  0  0  0  0
 13 14  1  0  0  0  0
 13 42  1  0  0  0  0
 14 15  1  0  0  0  0
 14 16  2  0  0  0  0
 16 17  1  0  0  0  0
 16 43  1  0  0  0  0
 17 18  1  0  0  0  0
 19 20  1  0  0  0  0
 20 21  2  0  0  0  0
 20 44  1  0  0  0  0
 21 22  1  0  0  0  0
 22 23  2  0  0  0  0
 23 24  1  0  0  0  0
 23 45  1  0  0  0  0
 24 25  1  0  0  0  0
 25 26  1  0  0  0  0
 26 27  1  0  0  0  0
 26 46  1  0  0  0  0
 26 47  1  0  0  0  0
 27 28  1  0  0  0  0
 27 48  1  0  0  0  0
 27 49  1  0  0  0  0
 28 29  1  0  0  0  0
 28 50  1  0  0  0  0
 29 30  2  0  0  0  0
 29 31  1  0  0  0  0
 31 32  1  0  0  0  0
 31 51  1  0  0  0  0
 31 52  1  0  0  0  0
 32 33  1  0  0  0  0
 32 34  1  0  0  0  0
 33 53  1  0  0  0  0
 33 54  1  0  0  0  0
 33 55  1  0  0  0  0
 34 56  1  0  0  0  0
 34 57  1  0  0  0  0
 34 58  1  0  0  0  0
M  END
$$$$
