CHEMBL3986068
 OpenBabel04072215373D

 65 67  0  0  0  0  0  0  0  0999 V2000
    2.2570    0.1098    5.5590 C   0  0  0  0  0  0  0  0  0  0  0  0
    3.2137    0.8985    4.9515 O   0  0  0  0  0  0  0  0  0  0  0  0
    3.3694    1.0817    3.6125 C   0  0  0  0  0  0  0  0  0  0  0  0
    2.4968    0.5354    2.6800 C   0  0  0  0  0  0  0  0  0  0  0  0
    2.7440    0.6497    1.3193 C   0  0  0  0  0  0  0  0  0  0  0  0
    1.8022    0.0696    0.5191 O   0  0  0  0  0  0  0  0  0  0  0  0
    1.3690    0.4593   -0.7372 C   0  0  0  0  0  0  0  0  0  0  0  0
    3.9086    1.3394    0.8629 C   0  0  0  0  0  0  0  0  0  0  0  0
    4.3674    0.9955   -0.8120 Cl  0  0  0  0  0  0  0  0  0  0  0  0
    4.7247    2.1071    1.7967 C   0  0  0  0  0  0  0  0  0  0  0  0
    5.8239    3.0413    1.4358 N   0  0  0  0  0  0  0  0  0  0  0  0
    6.2503    3.2957    0.0386 C   0  0  0  0  0  0  0  0  0  0  0  0
    5.2076    3.9489   -0.9024 C   0  0  0  0  0  0  0  0  0  0  0  0
    4.6832    5.2670   -0.5313 N   0  0  0  0  0  0  0  0  0  0  0  0
    3.7423    5.7401   -1.5931 C   0  0  0  0  0  0  0  0  0  0  0  0
    2.5499    4.7748   -1.8318 C   0  0  0  0  0  0  0  0  0  0  0  0
    3.1782    7.1139   -1.2265 C   0  0  0  0  0  0  0  0  0  0  0  0
    6.5342    3.8456    2.4365 C   0  0  0  0  0  0  0  0  0  0  0  0
    5.8909    4.4256    3.5648 C   0  0  0  0  0  0  0  0  0  0  0  0
    6.5954    5.2054    4.4941 C   0  0  0  0  0  0  0  0  0  0  0  0
    7.9461    5.4847    4.2902 C   0  0  0  0  0  0  0  0  0  0  0  0
    8.6346    6.2800    5.1521 N   0  0  0  0  0  0  0  0  0  0  0  0
    9.9384    6.6029    4.9211 C   0  0  0  0  0  0  0  0  0  0  0  0
   10.5792    6.1083    3.7740 C   0  0  0  0  0  0  0  0  0  0  0  0
   11.9700    6.4719    3.4299 C   0  0  0  0  0  0  0  0  0  0  0  0
   12.6511    6.1136    2.2806 C   0  0  0  0  0  0  0  0  0  0  0  0
   13.8914    6.6362    2.3262 N   0  0  0  0  0  0  0  0  0  0  0  0
   14.0010    7.3042    3.4637 N   0  0  0  0  0  0  0  0  0  0  0  0
   15.2112    8.0036    3.8846 C   0  0  0  0  0  0  0  0  0  0  0  0
   12.8561    7.2391    4.1589 C   0  0  0  0  0  0  0  0  0  0  0  0
    9.8946    5.2881    2.9390 N   0  0  0  0  0  0  0  0  0  0  0  0
    8.5962    4.9612    3.1671 C   0  0  0  0  0  0  0  0  0  0  0  0
    7.9146    4.1390    2.2735 C   0  0  0  0  0  0  0  0  0  0  0  0
    4.4358    1.8577    3.1698 C   0  0  0  0  0  0  0  0  0  0  0  0
    2.1664   -2.9636   -0.0373 Cl  0  0  0  0  0  0  0  0  0  0  0  0
    2.4281    0.1120    6.6548 H   0  0  0  0  0  0  0  0  0  0  0  0
    2.3380   -0.9384    5.1972 H   0  0  0  0  0  0  0  0  0  0  0  0
    1.2404    0.5062    5.3550 H   0  0  0  0  0  0  0  0  0  0  0  0
    1.6280   -0.0244    3.0025 H   0  0  0  0  0  0  0  0  0  0  0  0
    0.4490   -0.1110   -0.9828 H   0  0  0  0  0  0  0  0  0  0  0  0
    2.0901    0.2158   -1.5345 H   0  0  0  0  0  0  0  0  0  0  0  0
    1.1062    1.5403   -0.7405 H   0  0  0  0  0  0  0  0  0  0  0  0
    6.6233    2.3464   -0.3963 H   0  0  0  0  0  0  0  0  0  0  0  0
    7.0867    4.0105   -0.0392 H   0  0  0  0  0  0  0  0  0  0  0  0
    4.3563    3.3204   -0.9408 H   0  0  0  0  0  0  0  0  0  0  0  0
    5.6802    4.0116   -1.9113 H   0  0  0  0  0  0  0  0  0  0  0  0
    5.4811    5.9397   -0.4673 H   0  0  0  0  0  0  0  0  0  0  0  0
    4.2911    5.8538   -2.5555 H   0  0  0  0  0  0  0  0  0  0  0  0
    2.0056    4.5835   -0.8826 H   0  0  0  0  0  0  0  0  0  0  0  0
    2.8611    3.8061   -2.2756 H   0  0  0  0  0  0  0  0  0  0  0  0
    1.8465    5.2001   -2.5774 H   0  0  0  0  0  0  0  0  0  0  0  0
    2.6008    7.0544   -0.2800 H   0  0  0  0  0  0  0  0  0  0  0  0
    2.4964    7.4587   -2.0379 H   0  0  0  0  0  0  0  0  0  0  0  0
    3.9936    7.8537   -1.1250 H   0  0  0  0  0  0  0  0  0  0  0  0
    4.8325    4.3075    3.7428 H   0  0  0  0  0  0  0  0  0  0  0  0
    6.0814    5.6176    5.3535 H   0  0  0  0  0  0  0  0  0  0  0  0
   10.4482    7.2555    5.6148 H   0  0  0  0  0  0  0  0  0  0  0  0
   12.2706    5.5188    1.4601 H   0  0  0  0  0  0  0  0  0  0  0  0
   16.0091    7.8892    3.1191 H   0  0  0  0  0  0  0  0  0  0  0  0
   15.5684    7.5729    4.8431 H   0  0  0  0  0  0  0  0  0  0  0  0
   14.9935    9.0829    4.0236 H   0  0  0  0  0  0  0  0  0  0  0  0
   12.6902    7.7042    5.1200 H   0  0  0  0  0  0  0  0  0  0  0  0
    8.4906    3.7428    1.4495 H   0  0  0  0  0  0  0  0  0  0  0  0
    5.0523    2.2296    3.9631 H   0  0  0  0  0  0  0  0  0  0  0  0
    1.6661   -2.3693    1.0992 H   0  0  0  0  0  0  0  0  0  0  0  0
  1  2  1  0  0  0  0
  1 36  1  0  0  0  0
  1 37  1  0  0  0  0
  1 38  1  0  0  0  0
  2  3  1  0  0  0  0
  3  4  1  0  0  0  0
  3 34  2  0  0  0  0
  4  5  2  0  0  0  0
  4 39  1  0  0  0  0
  5  6  1  0  0  0  0
  5  8  1  0  0  0  0
  6  7  1  0  0  0  0
  7 40  1  0  0  0  0
  7 41  1  0  0  0  0
  7 42  1  0  0  0  0
  8  9  1  0  0  0  0
  8 10  2  0  0  0  0
 10 11  1  0  0  0  0
 10 34  1  0  0  0  0
 11 12  1  0  0  0  0
 11 18  1  0  0  0  0
 12 13  1  0  0  0  0
 12 43  1  0  0  0  0
 12 44  1  0  0  0  0
 13 14  1  0  0  0  0
 13 45  1  0  0  0  0
 13 46  1  0  0  0  0
 14 15  1  0  0  0  0
 14 47  1  0  0  0  0
 15 16  1  0  0  0  0
 15 17  1  0  0  0  0
 15 48  1  0  0  0  0
 16 49  1  0  0  0  0
 16 50  1  0  0  0  0
 16 51  1  0  0  0  0
 17 52  1  0  0  0  0
 17 53  1  0  0  0  0
 17 54  1  0  0  0  0
 18 19  1  0  0  0  0
 18 33  2  0  0  0  0
 19 20  2  0  0  0  0
 19 55  1  0  0  0  0
 20 21  1  0  0  0  0
 20 56  1  0  0  0  0
 21 22  1  0  0  0  0
 21 32  2  0  0  0  0
 22 23  2  0  0  0  0
 23 24  1  0  0  0  0
 23 57  1  0  0  0  0
 24 25  1  0  0  0  0
 24 31  2  0  0  0  0
 25 26  1  0  0  0  0
 25 30  2  0  0  0  0
 26 27  2  0  0  0  0
 26 58  1  0  0  0  0
 27 28  1  0  0  0  0
 28 29  1  0  0  0  0
 28 30  1  0  0  0  0
 29 59  1  0  0  0  0
 29 60  1  0  0  0  0
 29 61  1  0  0  0  0
 30 62  1  0  0  0  0
 31 32  1  0  0  0  0
 32 33  1  0  0  0  0
 33 63  1  0  0  0  0
 34 64  1  0  0  0  0
 35 65  1  0  0  0  0
M  END
$$$$
