CHEMBL3690511
 OpenBabel04072215373D

 46 50  0  0  0  0  0  0  0  0999 V2000
    1.1976    0.4833    0.4301 O   0  0  0  0  0  0  0  0  0  0  0  0
    2.2632    0.0433    0.0189 C   0  0  0  0  0  0  0  0  0  0  0  0
    2.7613    0.1583   -1.2673 N   0  0  0  0  0  0  0  0  0  0  0  0
    2.1361    0.8090   -2.3542 C   0  0  0  0  0  0  0  0  0  0  0  0
    1.0257    1.6405   -2.2115 C   0  0  0  0  0  0  0  0  0  0  0  0
    0.3968    2.1758   -3.3327 C   0  0  0  0  0  0  0  0  0  0  0  0
    0.8862    1.8969   -4.6059 C   0  0  0  0  0  0  0  0  0  0  0  0
    2.0603    1.1542   -4.7773 C   0  0  0  0  0  0  0  0  0  0  0  0
    2.6347    0.9335   -6.1109 C   0  0  0  0  0  0  0  0  0  0  0  0
    3.2796   -0.1840   -6.6219 C   0  0  0  0  0  0  0  0  0  0  0  0
    3.6648   -0.0116   -7.9242 N   0  0  0  0  0  0  0  0  0  0  0  0
    3.2793    1.2058   -8.2374 C   0  0  0  0  0  0  0  0  0  0  0  0
    3.4095    1.9315   -9.4568 C   0  0  0  0  0  0  0  0  0  0  0  0
    2.9664    3.2089   -9.5672 C   0  0  0  0  0  0  0  0  0  0  0  0
    3.1463    3.9401  -10.8510 C   0  0  0  0  0  0  0  0  0  0  0  0
    3.7583    3.3082  -11.8713 N   0  0  0  0  0  0  0  0  0  0  0  0
    3.9314    4.0180  -13.0008 C   0  0  0  0  0  0  0  0  0  0  0  0
    3.5209    5.3205  -13.1499 C   0  0  0  0  0  0  0  0  0  0  0  0
    2.9032    5.8748  -12.0556 C   0  0  0  0  0  0  0  0  0  0  0  0
    2.7029    5.2130  -10.9013 N   0  0  0  0  0  0  0  0  0  0  0  0
    2.3493    3.8432   -8.3928 C   0  0  0  0  0  0  0  0  0  0  0  0
    2.2396    3.1705   -7.2368 C   0  0  0  0  0  0  0  0  0  0  0  0
    2.6745    1.8477   -7.1595 N   0  0  0  0  0  0  0  0  0  0  0  0
    2.6665    0.5972   -3.6372 C   0  0  0  0  0  0  0  0  0  0  0  0
    3.1334   -0.6594    0.8360 N   0  0  0  0  0  0  0  0  0  0  0  0
    2.8188   -0.9646    2.1970 C   0  0  0  0  0  0  0  0  0  0  0  0
    3.8019   -1.6898    3.0737 C   0  0  0  0  0  0  0  0  0  0  0  0
    2.5581   -2.3877    2.6071 C   0  0  0  0  0  0  0  0  0  0  0  0
    3.5727   -0.3967   -1.4851 H   0  0  0  0  0  0  0  0  0  0  0  0
    0.6165    1.8869   -1.2368 H   0  0  0  0  0  0  0  0  0  0  0  0
   -0.4835    2.8017   -3.2104 H   0  0  0  0  0  0  0  0  0  0  0  0
    0.3272    2.2726   -5.4588 H   0  0  0  0  0  0  0  0  0  0  0  0
    3.4761   -1.1217   -6.1156 H   0  0  0  0  0  0  0  0  0  0  0  0
    3.8869    1.4131  -10.2825 H   0  0  0  0  0  0  0  0  0  0  0  0
    4.4280    3.4878  -13.8079 H   0  0  0  0  0  0  0  0  0  0  0  0
    3.6747    5.8711  -14.0666 H   0  0  0  0  0  0  0  0  0  0  0  0
    2.5427    6.8992  -12.0720 H   0  0  0  0  0  0  0  0  0  0  0  0
    1.9985    4.8680   -8.4769 H   0  0  0  0  0  0  0  0  0  0  0  0
    1.8209    3.6343   -6.3555 H   0  0  0  0  0  0  0  0  0  0  0  0
    3.5563   -0.0166   -3.7546 H   0  0  0  0  0  0  0  0  0  0  0  0
    3.9885   -1.0249    0.4483 H   0  0  0  0  0  0  0  0  0  0  0  0
    2.2174   -0.1975    2.6838 H   0  0  0  0  0  0  0  0  0  0  0  0
    3.8559   -1.3976    4.1164 H   0  0  0  0  0  0  0  0  0  0  0  0
    4.7492   -2.0004    2.6516 H   0  0  0  0  0  0  0  0  0  0  0  0
    1.7667   -2.5635    3.3267 H   0  0  0  0  0  0  0  0  0  0  0  0
    2.6544   -3.1644    1.8581 H   0  0  0  0  0  0  0  0  0  0  0  0
  1  2  2  0  0  0  0
  2  3  1  0  0  0  0
  2 25  1  0  0  0  0
  3  4  1  0  0  0  0
  3 29  1  0  0  0  0
  4  5  1  0  0  0  0
  4 24  2  0  0  0  0
  5  6  2  0  0  0  0
  5 30  1  0  0  0  0
  6  7  1  0  0  0  0
  6 31  1  0  0  0  0
  7  8  2  0  0  0  0
  7 32  1  0  0  0  0
  8  9  1  0  0  0  0
  8 24  1  0  0  0  0
  9 10  2  0  0  0  0
  9 23  1  0  0  0  0
 10 11  1  0  0  0  0
 10 33  1  0  0  0  0
 11 12  2  0  0  0  0
 12 13  1  0  0  0  0
 12 23  1  0  0  0  0
 13 14  2  0  0  0  0
 13 34  1  0  0  0  0
 14 15  1  0  0  0  0
 14 21  1  0  0  0  0
 15 16  1  0  0  0  0
 15 20  2  0  0  0  0
 16 17  2  0  0  0  0
 17 18  1  0  0  0  0
 17 35  1  0  0  0  0
 18 19  2  0  0  0  0
 18 36  1  0  0  0  0
 19 20  1  0  0  0  0
 19 37  1  0  0  0  0
 21 22  2  0  0  0  0
 21 38  1  0  0  0  0
 22 23  1  0  0  0  0
 22 39  1  0  0  0  0
 24 40  1  0  0  0  0
 25 26  1  0  0  0  0
 25 41  1  0  0  0  0
 26 27  1  0  0  0  0
 26 28  1  0  0  0  0
 26 42  1  0  0  0  0
 27 28  1  0  0  0  0
 27 43  1  0  0  0  0
 27 44  1  0  0  0  0
 28 45  1  0  0  0  0
 28 46  1  0  0  0  0
M  END
$$$$
