CHEMBL3775934
 OpenBabel04072215373D

 37 39  0  0  0  0  0  0  0  0999 V2000
    3.6506    0.6149   -0.9850 C   0  0  0  0  0  0  0  0  0  0  0  0
    2.7078   -0.0436   -0.1363 O   0  0  0  0  0  0  0  0  0  0  0  0
    3.1702   -0.4022    1.1015 C   0  0  0  0  0  0  0  0  0  0  0  0
    4.2115    0.3130    1.7197 C   0  0  0  0  0  0  0  0  0  0  0  0
    4.7968   -0.0937    2.9132 C   0  0  0  0  0  0  0  0  0  0  0  0
    5.8481    0.5876    3.3778 N   0  0  0  0  0  0  0  0  0  0  0  0
    6.4081    0.1330    4.4972 C   0  0  0  0  0  0  0  0  0  0  0  0
    6.0093   -0.9279    5.1976 N   0  0  0  0  0  0  0  0  0  0  0  0
    4.9385   -1.6036    4.7381 C   0  0  0  0  0  0  0  0  0  0  0  0
    4.4690   -2.7390    5.4592 N   0  0  0  0  0  0  0  0  0  0  0  0
    4.9011   -3.1827    6.7282 C   0  0  0  0  0  0  0  0  0  0  0  0
    5.4136   -2.3016    7.6887 C   0  0  0  0  0  0  0  0  0  0  0  0
    5.8616   -2.7657    8.9206 C   0  0  0  0  0  0  0  0  0  0  0  0
    6.4506   -1.9165    9.8111 O   0  0  0  0  0  0  0  0  0  0  0  0
    5.7347   -4.1014    9.2605 C   0  0  0  0  0  0  0  0  0  0  0  0
    5.1512   -4.9662    8.3455 C   0  0  0  0  0  0  0  0  0  0  0  0
    5.0036   -6.2590    8.6648 F   0  0  0  0  0  0  0  0  0  0  0  0
    4.7292   -4.5228    7.0920 C   0  0  0  0  0  0  0  0  0  0  0  0
    4.2691   -1.2139    3.5648 C   0  0  0  0  0  0  0  0  0  0  0  0
    3.1502   -1.8629    3.0128 C   0  0  0  0  0  0  0  0  0  0  0  0
    2.6034   -1.4871    1.7786 C   0  0  0  0  0  0  0  0  0  0  0  0
    1.5916   -2.3279    1.4209 O   0  0  0  0  0  0  0  0  0  0  0  0
    0.8606   -2.1446    0.2230 C   0  0  0  0  0  0  0  0  0  0  0  0
    3.3886    0.3924   -2.0245 H   0  0  0  0  0  0  0  0  0  0  0  0
    4.6807    0.2677   -0.8360 H   0  0  0  0  0  0  0  0  0  0  0  0
    3.5862    1.6982   -0.8390 H   0  0  0  0  0  0  0  0  0  0  0  0
    4.6333    1.2016    1.2599 H   0  0  0  0  0  0  0  0  0  0  0  0
    7.2692    0.6748    4.8765 H   0  0  0  0  0  0  0  0  0  0  0  0
    4.3394   -3.5149    4.8151 H   0  0  0  0  0  0  0  0  0  0  0  0
    5.4738   -1.2406    7.4720 H   0  0  0  0  0  0  0  0  0  0  0  0
    6.6196   -1.0738    9.3540 H   0  0  0  0  0  0  0  0  0  0  0  0
    6.0792   -4.4677   10.2199 H   0  0  0  0  0  0  0  0  0  0  0  0
    4.2835   -5.2413    6.4130 H   0  0  0  0  0  0  0  0  0  0  0  0
    2.6891   -2.7014    3.5345 H   0  0  0  0  0  0  0  0  0  0  0  0
    0.3715   -3.1023    0.0085 H   0  0  0  0  0  0  0  0  0  0  0  0
    1.4842   -1.9221   -0.6422 H   0  0  0  0  0  0  0  0  0  0  0  0
    0.0734   -1.3992    0.3678 H   0  0  0  0  0  0  0  0  0  0  0  0
  1  2  1  0  0  0  0
  1 24  1  0  0  0  0
  1 25  1  0  0  0  0
  1 26  1  0  0  0  0
  2  3  1  0  0  0  0
  3  4  1  0  0  0  0
  3 21  2  0  0  0  0
  4  5  2  0  0  0  0
  4 27  1  0  0  0  0
  5  6  1  0  0  0  0
  5 19  1  0  0  0  0
  6  7  2  0  0  0  0
  7  8  1  0  0  0  0
  7 28  1  0  0  0  0
  8  9  2  0  0  0  0
  9 10  1  0  0  0  0
  9 19  1  0  0  0  0
 10 11  1  0  0  0  0
 10 29  1  0  0  0  0
 11 12  1  0  0  0  0
 11 18  2  0  0  0  0
 12 13  2  0  0  0  0
 12 30  1  0  0  0  0
 13 14  1  0  0  0  0
 13 15  1  0  0  0  0
 14 31  1  0  0  0  0
 15 16  2  0  0  0  0
 15 32  1  0  0  0  0
 16 17  1  0  0  0  0
 16 18  1  0  0  0  0
 18 33  1  0  0  0  0
 19 20  2  0  0  0  0
 20 21  1  0  0  0  0
 20 34  1  0  0  0  0
 21 22  1  0  0  0  0
 22 23  1  0  0  0  0
 23 35  1  0  0  0  0
 23 36  1  0  0  0  0
 23 37  1  0  0  0  0
M  END
$$$$
