CHEMBL3781176
 OpenBabel04072215373D

 45 48  0  0  0  0  0  0  0  0999 V2000
   10.8160   -1.8628   -1.8115 C   0  0  0  0  0  0  0  0  0  0  0  0
   10.2474   -1.7351   -0.5147 O   0  0  0  0  0  0  0  0  0  0  0  0
    9.1152   -2.4601   -0.2645 C   0  0  0  0  0  0  0  0  0  0  0  0
    8.4318   -3.2626   -1.1774 C   0  0  0  0  0  0  0  0  0  0  0  0
    7.2787   -3.9585   -0.7877 C   0  0  0  0  0  0  0  0  0  0  0  0
    6.8001   -3.8754    0.5252 C   0  0  0  0  0  0  0  0  0  0  0  0
    5.5158   -4.5396    0.9693 C   0  0  0  0  0  0  0  0  0  0  0  0
    5.1403   -5.8629    0.3429 C   0  0  0  0  0  0  0  0  0  0  0  0
    4.2170   -5.7747   -0.6408 N   0  0  0  0  0  0  0  0  0  0  0  0
    3.6419   -6.9019   -1.1506 N   0  0  0  0  0  0  0  0  0  0  0  0
    3.9707   -8.1307   -0.6888 C   0  0  0  0  0  0  0  0  0  0  0  0
    3.1981   -9.2459   -1.1287 N   0  0  0  0  0  0  0  0  0  0  0  0
    2.4847   -9.3054   -2.3554 C   0  0  0  0  0  0  0  0  0  0  0  0
    2.9922   -8.7529   -3.5402 C   0  0  0  0  0  0  0  0  0  0  0  0
    2.3239   -8.9257   -4.7541 C   0  0  0  0  0  0  0  0  0  0  0  0
    1.1480   -9.6710   -4.8026 C   0  0  0  0  0  0  0  0  0  0  0  0
    0.6542  -10.2493   -3.6358 C   0  0  0  0  0  0  0  0  0  0  0  0
   -0.7900  -11.1832   -3.6970 Cl  0  0  0  0  0  0  0  0  0  0  0  0
    1.3241  -10.0853   -2.4220 C   0  0  0  0  0  0  0  0  0  0  0  0
    4.9635   -8.2807    0.3108 C   0  0  0  0  0  0  0  0  0  0  0  0
    5.3774   -9.5331    0.8426 C   0  0  0  0  0  0  0  0  0  0  0  0
    6.3954   -9.6355    1.7911 C   0  0  0  0  0  0  0  0  0  0  0  0
    7.0253   -8.4896    2.2480 C   0  0  0  0  0  0  0  0  0  0  0  0
    6.6236   -7.2425    1.7718 C   0  0  0  0  0  0  0  0  0  0  0  0
    5.5925   -7.1082    0.8109 C   0  0  0  0  0  0  0  0  0  0  0  0
    7.4789   -3.0420    1.4280 C   0  0  0  0  0  0  0  0  0  0  0  0
    8.6257   -2.3464    1.0363 C   0  0  0  0  0  0  0  0  0  0  0  0
   11.7440   -1.2829   -1.8289 H   0  0  0  0  0  0  0  0  0  0  0  0
   10.1483   -1.4484   -2.5739 H   0  0  0  0  0  0  0  0  0  0  0  0
   11.0726   -2.9041   -2.0332 H   0  0  0  0  0  0  0  0  0  0  0  0
    8.7590   -3.3602   -2.2072 H   0  0  0  0  0  0  0  0  0  0  0  0
    6.7521   -4.5525   -1.5332 H   0  0  0  0  0  0  0  0  0  0  0  0
    4.7036   -3.8243    0.7781 H   0  0  0  0  0  0  0  0  0  0  0  0
    5.5249   -4.6714    2.0594 H   0  0  0  0  0  0  0  0  0  0  0  0
    3.7442  -10.0960   -1.0624 H   0  0  0  0  0  0  0  0  0  0  0  0
    3.9165   -8.1793   -3.5293 H   0  0  0  0  0  0  0  0  0  0  0  0
    2.7264   -8.4794   -5.6612 H   0  0  0  0  0  0  0  0  0  0  0  0
    0.6282   -9.7994   -5.7480 H   0  0  0  0  0  0  0  0  0  0  0  0
    0.9307  -10.5474   -1.5211 H   0  0  0  0  0  0  0  0  0  0  0  0
    4.9152  -10.4649    0.5211 H   0  0  0  0  0  0  0  0  0  0  0  0
    6.6958  -10.6104    2.1681 H   0  0  0  0  0  0  0  0  0  0  0  0
    7.8289   -8.5612    2.9784 H   0  0  0  0  0  0  0  0  0  0  0  0
    7.1478   -6.3681    2.1517 H   0  0  0  0  0  0  0  0  0  0  0  0
    7.1107   -2.9107    2.4435 H   0  0  0  0  0  0  0  0  0  0  0  0
    9.1353   -1.7020    1.7488 H   0  0  0  0  0  0  0  0  0  0  0  0
  1  2  1  0  0  0  0
  1 28  1  0  0  0  0
  1 29  1  0  0  0  0
  1 30  1  0  0  0  0
  2  3  1  0  0  0  0
  3  4  1  0  0  0  0
  3 27  2  0  0  0  0
  4  5  2  0  0  0  0
  4 31  1  0  0  0  0
  5  6  1  0  0  0  0
  5 32  1  0  0  0  0
  6  7  1  0  0  0  0
  6 26  2  0  0  0  0
  7  8  1  0  0  0  0
  7 33  1  0  0  0  0
  7 34  1  0  0  0  0
  8  9  1  0  0  0  0
  8 25  2  0  0  0  0
  9 10  2  0  0  0  0
 10 11  1  0  0  0  0
 11 12  1  0  0  0  0
 11 20  2  0  0  0  0
 12 13  1  0  0  0  0
 12 35  1  0  0  0  0
 13 14  1  0  0  0  0
 13 19  2  0  0  0  0
 14 15  2  0  0  0  0
 14 36  1  0  0  0  0
 15 16  1  0  0  0  0
 15 37  1  0  0  0  0
 16 17  2  0  0  0  0
 16 38  1  0  0  0  0
 17 18  1  0  0  0  0
 17 19  1  0  0  0  0
 19 39  1  0  0  0  0
 20 21  1  0  0  0  0
 20 25  1  0  0  0  0
 21 22  2  0  0  0  0
 21 40  1  0  0  0  0
 22 23  1  0  0  0  0
 22 41  1  0  0  0  0
 23 24  2  0  0  0  0
 23 42  1  0  0  0  0
 24 25  1  0  0  0  0
 24 43  1  0  0  0  0
 26 27  1  0  0  0  0
 26 44  1  0  0  0  0
 27 45  1  0  0  0  0
M  END
$$$$
