CHEMBL395393
 OpenBabel04072215373D

 40 43  0  0  0  0  0  0  0  0999 V2000
    1.8760    1.0001    2.2986 C   0  0  0  0  0  0  0  0  0  0  0  0
    3.0883    1.7393    2.1997 O   0  0  0  0  0  0  0  0  0  0  0  0
    3.5653    1.9674    0.9340 C   0  0  0  0  0  0  0  0  0  0  0  0
    2.9932    1.4705   -0.2421 C   0  0  0  0  0  0  0  0  0  0  0  0
    3.5485    1.7641   -1.4950 C   0  0  0  0  0  0  0  0  0  0  0  0
    4.6939    2.5661   -1.5524 C   0  0  0  0  0  0  0  0  0  0  0  0
    5.4095    2.9803   -2.6431 N   0  0  0  0  0  0  0  0  0  0  0  0
    6.4093    3.6916   -2.1604 C   0  0  0  0  0  0  0  0  0  0  0  0
    7.5015    4.3206   -2.9663 C   0  0  0  0  0  0  0  0  0  0  0  0
    8.4903    5.0102   -2.3738 N   0  0  0  0  0  0  0  0  0  0  0  0
    9.2721    5.3894   -3.4007 N   0  0  0  0  0  0  0  0  0  0  0  0
    8.8212    4.9786   -4.6198 C   0  0  0  0  0  0  0  0  0  0  0  0
    7.6604    4.2791   -4.3805 C   0  0  0  0  0  0  0  0  0  0  0  0
    6.8159    3.6588   -5.3491 C   0  0  0  0  0  0  0  0  0  0  0  0
    6.9731    3.6701   -6.6829 C   0  0  0  0  0  0  0  0  0  0  0  0
    6.0295    3.0212   -7.6048 C   0  0  0  0  0  0  0  0  0  0  0  0
    6.4760    2.5093   -8.8210 C   0  0  0  0  0  0  0  0  0  0  0  0
    5.6777    1.9141   -9.7417 N   0  0  0  0  0  0  0  0  0  0  0  0
    4.3620    1.8232   -9.4362 C   0  0  0  0  0  0  0  0  0  0  0  0
    3.8103    2.3088   -8.2625 C   0  0  0  0  0  0  0  0  0  0  0  0
    2.4137    2.1744   -8.0029 C   0  0  0  0  0  0  0  0  0  0  0  0
    1.2781    2.0618   -7.7867 N   0  0  0  0  0  0  0  0  0  0  0  0
    4.6576    2.9279   -7.3417 C   0  0  0  0  0  0  0  0  0  0  0  0
    6.3383    3.7721   -0.7921 N   0  0  0  0  0  0  0  0  0  0  0  0
    5.2526    3.0461   -0.3745 C   0  0  0  0  0  0  0  0  0  0  0  0
    4.7195    2.7663    0.8867 C   0  0  0  0  0  0  0  0  0  0  0  0
    1.6012    0.9420    3.3558 H   0  0  0  0  0  0  0  0  0  0  0  0
    2.0098   -0.0233    1.9323 H   0  0  0  0  0  0  0  0  0  0  0  0
    1.0598    1.5054    1.7708 H   0  0  0  0  0  0  0  0  0  0  0  0
    2.1075    0.8438   -0.2273 H   0  0  0  0  0  0  0  0  0  0  0  0
    3.1067    1.3785   -2.4070 H   0  0  0  0  0  0  0  0  0  0  0  0
   10.1067    5.9296   -3.1971 H   0  0  0  0  0  0  0  0  0  0  0  0
    9.3600    5.2172   -5.5252 H   0  0  0  0  0  0  0  0  0  0  0  0
    5.9601    3.1248   -4.9420 H   0  0  0  0  0  0  0  0  0  0  0  0
    7.8271    4.1618   -7.1395 H   0  0  0  0  0  0  0  0  0  0  0  0
    7.5262    2.5538   -9.1012 H   0  0  0  0  0  0  0  0  0  0  0  0
    3.7520    1.3333  -10.1919 H   0  0  0  0  0  0  0  0  0  0  0  0
    4.2389    3.3358   -6.4233 H   0  0  0  0  0  0  0  0  0  0  0  0
    7.0028    4.2730   -0.2199 H   0  0  0  0  0  0  0  0  0  0  0  0
    5.1710    3.1478    1.7964 H   0  0  0  0  0  0  0  0  0  0  0  0
  1  2  1  0  0  0  0
  1 27  1  0  0  0  0
  1 28  1  0  0  0  0
  1 29  1  0  0  0  0
  2  3  1  0  0  0  0
  3  4  1  0  0  0  0
  3 26  2  0  0  0  0
  4  5  2  0  0  0  0
  4 30  1  0  0  0  0
  5  6  1  0  0  0  0
  5 31  1  0  0  0  0
  6  7  1  0  0  0  0
  6 25  2  0  0  0  0
  7  8  2  0  0  0  0
  8  9  1  0  0  0  0
  8 24  1  0  0  0  0
  9 10  2  0  0  0  0
  9 13  1  0  0  0  0
 10 11  1  0  0  0  0
 11 12  1  0  0  0  0
 11 32  1  0  0  0  0
 12 13  2  0  0  0  0
 12 33  1  0  0  0  0
 13 14  1  0  0  0  0
 14 15  2  0  0  0  0
 14 34  1  0  0  0  0
 15 16  1  0  0  0  0
 15 35  1  0  0  0  0
 16 17  1  0  0  0  0
 16 23  2  0  0  0  0
 17 18  2  0  0  0  0
 17 36  1  0  0  0  0
 18 19  1  0  0  0  0
 19 20  2  0  0  0  0
 19 37  1  0  0  0  0
 20 21  1  0  0  0  0
 20 23  1  0  0  0  0
 21 22  3  0  0  0  0
 23 38  1  0  0  0  0
 24 25  1  0  0  0  0
 24 39  1  0  0  0  0
 25 26  1  0  0  0  0
 26 40  1  0  0  0  0
M  END
$$$$
