CHEMBL1794061
 OpenBabel04072215363D

 33 34  0  0  0  0  0  0  0  0999 V2000
    1.2507    0.0848   -2.8323 Cl  0  0  0  0  0  0  0  0  0  0  0  0
   -3.1709    4.1011    1.6289 N   0  0  0  0  0  0  0  0  0  0  0  0
   -2.0211    4.1895    1.6476 C   0  0  0  0  0  0  0  0  0  0  0  0
   -0.5881    4.3004    1.6703 C   0  0  0  0  0  0  0  0  0  0  0  0
    0.0130    5.3755    2.3321 C   0  0  0  0  0  0  0  0  0  0  0  0
    1.3970    5.4945    2.3481 C   0  0  0  0  0  0  0  0  0  0  0  0
    2.1922    4.5479    1.7042 C   0  0  0  0  0  0  0  0  0  0  0  0
    1.6084    3.4500    1.0257 C   0  0  0  0  0  0  0  0  0  0  0  0
    2.3791    2.4819    0.2993 N   0  0  0  0  0  0  0  0  0  0  0  0
    3.7993    2.4414    0.2739 C   0  0  0  0  0  0  0  0  0  0  0  0
    4.5098    1.8300   -0.6959 N   0  0  0  0  0  0  0  0  0  0  0  0
    5.7924    2.0953   -0.3725 C   0  0  0  0  0  0  0  0  0  0  0  0
    5.8036    2.8332    0.7981 C   0  0  0  0  0  0  0  0  0  0  0  0
    6.9509    3.3680    1.5570 C   0  0  0  0  0  0  0  0  0  0  0  0
    8.2687    3.2468    1.0855 C   0  0  0  0  0  0  0  0  0  0  0  0
    9.3316    3.7736    1.8271 C   0  0  0  0  0  0  0  0  0  0  0  0
    9.0895    4.4193    3.0432 C   0  0  0  0  0  0  0  0  0  0  0  0
    7.7835    4.5421    3.5203 C   0  0  0  0  0  0  0  0  0  0  0  0
    6.7183    4.0205    2.7812 C   0  0  0  0  0  0  0  0  0  0  0  0
    4.5647    3.0203    1.1624 O   0  0  0  0  0  0  0  0  0  0  0  0
    0.2053    3.3436    1.0200 C   0  0  0  0  0  0  0  0  0  0  0  0
    2.2097   -0.5621   -2.0877 H   0  0  0  0  0  0  0  0  0  0  0  0
   -0.5885    6.1261    2.8302 H   0  0  0  0  0  0  0  0  0  0  0  0
    1.8660    6.3320    2.8517 H   0  0  0  0  0  0  0  0  0  0  0  0
    3.2489    4.7286    1.7401 H   0  0  0  0  0  0  0  0  0  0  0  0
    1.8782    1.8258   -0.3192 H   0  0  0  0  0  0  0  0  0  0  0  0
    6.6452    1.7738   -0.9537 H   0  0  0  0  0  0  0  0  0  0  0  0
    8.4794    2.7548    0.1460 H   0  0  0  0  0  0  0  0  0  0  0  0
   10.3446    3.6819    1.4582 H   0  0  0  0  0  0  0  0  0  0  0  0
    9.9130    4.8254    3.6152 H   0  0  0  0  0  0  0  0  0  0  0  0
    7.5955    5.0409    4.4623 H   0  0  0  0  0  0  0  0  0  0  0  0
    5.7128    4.1291    3.1714 H   0  0  0  0  0  0  0  0  0  0  0  0
   -0.2704    2.5194    0.5006 H   0  0  0  0  0  0  0  0  0  0  0  0
  1 22  1  0  0  0  0
  2  3  3  0  0  0  0
  3  4  1  0  0  0  0
  4  5  1  0  0  0  0
  4 21  2  0  0  0  0
  5  6  2  0  0  0  0
  5 23  1  0  0  0  0
  6  7  1  0  0  0  0
  6 24  1  0  0  0  0
  7  8  2  0  0  0  0
  7 25  1  0  0  0  0
  8  9  1  0  0  0  0
  8 21  1  0  0  0  0
  9 10  1  0  0  0  0
  9 26  1  0  0  0  0
 10 11  2  0  0  0  0
 10 20  1  0  0  0  0
 11 12  1  0  0  0  0
 12 13  2  0  0  0  0
 12 27  1  0  0  0  0
 13 14  1  0  0  0  0
 13 20  1  0  0  0  0
 14 15  1  0  0  0  0
 14 19  2  0  0  0  0
 15 16  2  0  0  0  0
 15 28  1  0  0  0  0
 16 17  1  0  0  0  0
 16 29  1  0  0  0  0
 17 18  2  0  0  0  0
 17 30  1  0  0  0  0
 18 19  1  0  0  0  0
 18 31  1  0  0  0  0
 19 32  1  0  0  0  0
 21 33  1  0  0  0  0
M  END
$$$$
