CHEMBL219999
 OpenBabel04072215363D

 53 56  0  0  0  0  0  0  0  0999 V2000
    2.4428   -0.4078    1.3469 C   0  0  0  0  0  0  0  0  0  0  0  0
    0.9476   -0.2804    1.3347 C   0  0  0  0  0  0  0  0  0  0  0  0
    0.3515    0.9330    1.6984 C   0  0  0  0  0  0  0  0  0  0  0  0
   -1.0229    1.0652    1.6995 C   0  0  0  0  0  0  0  0  0  0  0  0
   -1.8245   -0.0170    1.3274 C   0  0  0  0  0  0  0  0  0  0  0  0
   -1.2604   -1.2413    0.9396 C   0  0  0  0  0  0  0  0  0  0  0  0
   -2.0506   -2.3643    0.5546 N   0  0  0  0  0  0  0  0  0  0  0  0
   -3.4165   -2.3367    0.3428 C   0  0  0  0  0  0  0  0  0  0  0  0
   -4.1018   -1.3185    0.3628 O   0  0  0  0  0  0  0  0  0  0  0  0
   -3.9571   -3.6031    0.1368 N   0  0  0  0  0  0  0  0  0  0  0  0
   -5.3623   -3.7274   -0.0348 C   0  0  0  0  0  0  0  0  0  0  0  0
   -6.0643   -2.8410   -0.8505 C   0  0  0  0  0  0  0  0  0  0  0  0
   -7.4632   -2.8430   -0.8705 C   0  0  0  0  0  0  0  0  0  0  0  0
   -8.2169   -3.7581   -0.1148 C   0  0  0  0  0  0  0  0  0  0  0  0
   -9.6976   -3.8203   -0.2491 C   0  0  0  0  0  0  0  0  0  0  0  0
  -10.3040   -3.5299   -1.5012 C   0  0  0  0  0  0  0  0  0  0  0  0
  -11.6675   -3.6805   -1.7366 C   0  0  0  0  0  0  0  0  0  0  0  0
  -12.4897   -4.2270   -0.7630 C   0  0  0  0  0  0  0  0  0  0  0  0
  -11.9161   -4.5306    0.4757 C   0  0  0  0  0  0  0  0  0  0  0  0
  -10.5762   -4.2537    0.7888 C   0  0  0  0  0  0  0  0  0  0  0  0
  -10.5670   -4.4002    2.2108 C   0  0  0  0  0  0  0  0  0  0  0  0
   -9.7123   -3.8000    3.0644 N   0  0  0  0  0  0  0  0  0  0  0  0
  -11.6507   -5.0078    2.6834 N   0  0  0  0  0  0  0  0  0  0  0  0
  -12.4621   -5.0792    1.6130 N   0  0  0  0  0  0  0  0  0  0  0  0
  -13.8455   -5.4853    1.8075 C   0  0  0  0  0  0  0  0  0  0  0  0
  -14.0164   -6.7210    2.6899 C   0  0  0  0  0  0  0  0  0  0  0  0
  -13.5829   -6.4964    4.0288 O   0  0  0  0  0  0  0  0  0  0  0  0
   -7.4820   -4.6891    0.6499 C   0  0  0  0  0  0  0  0  0  0  0  0
   -6.0729   -4.6872    0.6790 C   0  0  0  0  0  0  0  0  0  0  0  0
    0.1396   -1.3658    0.9520 C   0  0  0  0  0  0  0  0  0  0  0  0
    2.9171    0.5166    1.6944 H   0  0  0  0  0  0  0  0  0  0  0  0
    2.8129   -0.6143    0.3382 H   0  0  0  0  0  0  0  0  0  0  0  0
    2.7482   -1.2115    2.0239 H   0  0  0  0  0  0  0  0  0  0  0  0
    0.9639    1.7870    1.9880 H   0  0  0  0  0  0  0  0  0  0  0  0
   -1.4906    2.0020    1.9751 H   0  0  0  0  0  0  0  0  0  0  0  0
   -2.8959    0.1442    1.3583 H   0  0  0  0  0  0  0  0  0  0  0  0
   -1.5602   -3.1931    0.2537 H   0  0  0  0  0  0  0  0  0  0  0  0
   -3.4960   -4.3496    0.6356 H   0  0  0  0  0  0  0  0  0  0  0  0
   -5.5358   -2.1100   -1.4594 H   0  0  0  0  0  0  0  0  0  0  0  0
   -7.9484   -2.0980   -1.4987 H   0  0  0  0  0  0  0  0  0  0  0  0
   -9.6957   -3.1790   -2.3327 H   0  0  0  0  0  0  0  0  0  0  0  0
  -12.0802   -3.3931   -2.6990 H   0  0  0  0  0  0  0  0  0  0  0  0
  -13.5469   -4.3712   -0.9580 H   0  0  0  0  0  0  0  0  0  0  0  0
  -10.2809   -3.2882    3.7519 H   0  0  0  0  0  0  0  0  0  0  0  0
   -9.2306   -4.4504    3.6703 H   0  0  0  0  0  0  0  0  0  0  0  0
  -14.2801   -5.6888    0.8245 H   0  0  0  0  0  0  0  0  0  0  0  0
  -14.3465   -4.6184    2.2508 H   0  0  0  0  0  0  0  0  0  0  0  0
  -13.4737   -7.5834    2.2902 H   0  0  0  0  0  0  0  0  0  0  0  0
  -15.0787   -6.9823    2.7398 H   0  0  0  0  0  0  0  0  0  0  0  0
  -12.6777   -6.1169    3.9561 H   0  0  0  0  0  0  0  0  0  0  0  0
   -8.0022   -5.4366    1.2380 H   0  0  0  0  0  0  0  0  0  0  0  0
   -5.5616   -5.4024    1.3158 H   0  0  0  0  0  0  0  0  0  0  0  0
    0.5971   -2.3025    0.6672 H   0  0  0  0  0  0  0  0  0  0  0  0
  1  2  1  0  0  0  0
  1 31  1  0  0  0  0
  1 32  1  0  0  0  0
  1 33  1  0  0  0  0
  2  3  1  0  0  0  0
  2 30  2  0  0  0  0
  3  4  2  0  0  0  0
  3 34  1  0  0  0  0
  4  5  1  0  0  0  0
  4 35  1  0  0  0  0
  5  6  2  0  0  0  0
  5 36  1  0  0  0  0
  6  7  1  0  0  0  0
  6 30  1  0  0  0  0
  7  8  1  0  0  0  0
  7 37  1  0  0  0  0
  8  9  2  0  0  0  0
  8 10  1  0  0  0  0
 10 11  1  0  0  0  0
 10 38  1  0  0  0  0
 11 12  1  0  0  0  0
 11 29  2  0  0  0  0
 12 13  2  0  0  0  0
 12 39  1  0  0  0  0
 13 14  1  0  0  0  0
 13 40  1  0  0  0  0
 14 15  1  0  0  0  0
 14 28  2  0  0  0  0
 15 16  1  0  0  0  0
 15 20  2  0  0  0  0
 16 17  2  0  0  0  0
 16 41  1  0  0  0  0
 17 18  1  0  0  0  0
 17 42  1  0  0  0  0
 18 19  2  0  0  0  0
 18 43  1  0  0  0  0
 19 20  1  0  0  0  0
 19 24  1  0  0  0  0
 20 21  1  0  0  0  0
 21 22  1  0  0  0  0
 21 23  2  0  0  0  0
 22 44  1  0  0  0  0
 22 45  1  0  0  0  0
 23 24  1  0  0  0  0
 24 25  1  0  0  0  0
 25 26  1  0  0  0  0
 25 46  1  0  0  0  0
 25 47  1  0  0  0  0
 26 27  1  0  0  0  0
 26 48  1  0  0  0  0
 26 49  1  0  0  0  0
 27 50  1  0  0  0  0
 28 29  1  0  0  0  0
 28 51  1  0  0  0  0
 29 52  1  0  0  0  0
 30 53  1  0  0  0  0
M  END
$$$$
