CHEMBL4449250
 OpenBabel04072215383D

 75 80  0  0  0  0  0  0  0  0999 V2000
    3.5846   -4.6015   -1.9230 O   0  0  0  0  0  0  0  0  0  0  0  0
    4.5142   -4.2054   -1.2130 C   0  0  0  0  0  0  0  0  0  0  0  0
    4.4763   -4.1587    0.1755 N   0  0  0  0  0  0  0  0  0  0  0  0
    3.3982   -4.5608    1.0148 C   0  0  0  0  0  0  0  0  0  0  0  0
    2.2901   -5.2880    0.5794 C   0  0  0  0  0  0  0  0  0  0  0  0
    1.2705   -5.6795    1.4791 C   0  0  0  0  0  0  0  0  0  0  0  0
    1.3043   -5.3218    2.8346 C   0  0  0  0  0  0  0  0  0  0  0  0
    0.3965   -5.7033    3.8280 O   0  0  0  0  0  0  0  0  0  0  0  0
   -0.9113   -6.0590    3.4734 C   0  0  0  0  0  0  0  0  0  0  0  0
   -1.3876   -5.4896    2.3411 N   0  0  0  0  0  0  0  0  0  0  0  0
   -2.5014   -5.9960    1.8394 C   0  0  0  0  0  0  0  0  0  0  0  0
   -3.2188   -6.9528    2.3899 N   0  0  0  0  0  0  0  0  0  0  0  0
   -2.7703   -7.4687    3.5411 C   0  0  0  0  0  0  0  0  0  0  0  0
   -3.5819   -8.4706    4.0012 C   0  0  0  0  0  0  0  0  0  0  0  0
   -3.2233   -9.2637    5.0742 C   0  0  0  0  0  0  0  0  0  0  0  0
   -3.9720  -10.2620    5.6240 O   0  0  0  0  0  0  0  0  0  0  0  0
   -5.2049  -10.5890    4.9970 C   0  0  0  0  0  0  0  0  0  0  0  0
   -4.9407  -11.4157    3.7410 C   0  0  0  0  0  0  0  0  0  0  0  0
   -4.2081  -12.7010    4.1294 C   0  0  0  0  0  0  0  0  0  0  0  0
   -3.8137  -13.5405    2.9883 N   0  0  0  0  0  0  0  0  0  0  0  0
   -3.1964  -14.7930    3.4933 C   0  0  0  0  0  0  0  0  0  0  0  0
   -1.7961  -14.5984    4.1107 C   0  0  0  0  0  0  0  0  0  0  0  0
   -0.8994  -13.9364    3.2092 O   0  0  0  0  0  0  0  0  0  0  0  0
   -1.4427  -12.6854    2.7666 C   0  0  0  0  0  0  0  0  0  0  0  0
   -2.8143  -12.8925    2.1030 C   0  0  0  0  0  0  0  0  0  0  0  0
   -2.0574   -8.9512    5.7430 C   0  0  0  0  0  0  0  0  0  0  0  0
   -1.3894   -7.7581    5.4814 C   0  0  0  0  0  0  0  0  0  0  0  0
   -1.6090   -7.0639    4.2240 C   0  0  0  0  0  0  0  0  0  0  0  0
   -0.6753   -7.1973    6.5277 O   0  0  0  0  0  0  0  0  0  0  0  0
   -0.9865   -7.7530    7.8554 C   0  0  0  0  0  0  0  0  0  0  0  0
   -1.9105   -8.9753    7.9185 C   0  0  0  0  0  0  0  0  0  0  0  0
   -1.6771   -9.7662    6.7731 O   0  0  0  0  0  0  0  0  0  0  0  0
    2.4124   -4.5832    3.2639 C   0  0  0  0  0  0  0  0  0  0  0  0
    3.4496   -4.2214    2.3725 C   0  0  0  0  0  0  0  0  0  0  0  0
    5.7148   -3.7209   -1.7231 N   0  0  0  0  0  0  0  0  0  0  0  0
    6.0397   -3.4978   -3.0914 C   0  0  0  0  0  0  0  0  0  0  0  0
    5.1466   -3.6725   -4.1541 C   0  0  0  0  0  0  0  0  0  0  0  0
    5.5253   -3.4003   -5.4857 C   0  0  0  0  0  0  0  0  0  0  0  0
    4.5413   -3.5758   -6.6203 C   0  0  0  0  0  0  0  0  0  0  0  0
    3.3203   -4.0324   -6.2298 F   0  0  0  0  0  0  0  0  0  0  0  0
    4.3076   -2.4092   -7.2851 F   0  0  0  0  0  0  0  0  0  0  0  0
    4.9853   -4.4551   -7.5618 F   0  0  0  0  0  0  0  0  0  0  0  0
    6.8274   -2.9487   -5.7513 C   0  0  0  0  0  0  0  0  0  0  0  0
    7.7304   -2.7725   -4.7039 C   0  0  0  0  0  0  0  0  0  0  0  0
    7.3319   -3.0461   -3.3943 C   0  0  0  0  0  0  0  0  0  0  0  0
    8.2159   -2.8557   -2.4011 F   0  0  0  0  0  0  0  0  0  0  0  0
    5.2424   -3.6859    0.6330 H   0  0  0  0  0  0  0  0  0  0  0  0
    2.1870   -5.5984   -0.4558 H   0  0  0  0  0  0  0  0  0  0  0  0
    0.4600   -6.2712    1.0645 H   0  0  0  0  0  0  0  0  0  0  0  0
   -2.8325   -5.6346    0.8639 H   0  0  0  0  0  0  0  0  0  0  0  0
   -4.5051   -8.6432    3.4629 H   0  0  0  0  0  0  0  0  0  0  0  0
   -5.8050   -9.6939    4.8073 H   0  0  0  0  0  0  0  0  0  0  0  0
   -5.7728  -11.1842    5.7183 H   0  0  0  0  0  0  0  0  0  0  0  0
   -4.3284  -10.8395    3.0461 H   0  0  0  0  0  0  0  0  0  0  0  0
   -5.8865  -11.6387    3.2330 H   0  0  0  0  0  0  0  0  0  0  0  0
   -4.8900  -13.2752    4.7694 H   0  0  0  0  0  0  0  0  0  0  0  0
   -3.3429  -12.4559    4.7548 H   0  0  0  0  0  0  0  0  0  0  0  0
   -3.1140  -15.4841    2.6454 H   0  0  0  0  0  0  0  0  0  0  0  0
   -3.8614  -15.2781    4.2181 H   0  0  0  0  0  0  0  0  0  0  0  0
   -1.3636  -15.5763    4.3430 H   0  0  0  0  0  0  0  0  0  0  0  0
   -1.8396  -14.0356    5.0502 H   0  0  0  0  0  0  0  0  0  0  0  0
   -0.7425  -12.2601    2.0404 H   0  0  0  0  0  0  0  0  0  0  0  0
   -1.4934  -11.9872    3.6101 H   0  0  0  0  0  0  0  0  0  0  0  0
   -2.6799  -13.5486    1.2325 H   0  0  0  0  0  0  0  0  0  0  0  0
   -3.1885  -11.9488    1.6953 H   0  0  0  0  0  0  0  0  0  0  0  0
   -0.0272   -8.0326    8.3000 H   0  0  0  0  0  0  0  0  0  0  0  0
   -1.4233   -6.9690    8.4868 H   0  0  0  0  0  0  0  0  0  0  0  0
   -2.9774   -8.7045    7.9615 H   0  0  0  0  0  0  0  0  0  0  0  0
   -1.7273   -9.5875    8.8099 H   0  0  0  0  0  0  0  0  0  0  0  0
    2.4841   -4.2852    4.3062 H   0  0  0  0  0  0  0  0  0  0  0  0
    4.2934   -3.6596    2.7662 H   0  0  0  0  0  0  0  0  0  0  0  0
    6.4734   -3.5605   -1.0746 H   0  0  0  0  0  0  0  0  0  0  0  0
    4.1292   -4.0150   -3.9783 H   0  0  0  0  0  0  0  0  0  0  0  0
    7.1351   -2.7292   -6.7729 H   0  0  0  0  0  0  0  0  0  0  0  0
    8.7384   -2.4169   -4.8994 H   0  0  0  0  0  0  0  0  0  0  0  0
  1  2  2  0  0  0  0
  2  3  1  0  0  0  0
  2 35  1  0  0  0  0
  3  4  1  0  0  0  0
  3 47  1  0  0  0  0
  4  5  1  0  0  0  0
  4 34  2  0  0  0  0
  5  6  2  0  0  0  0
  5 48  1  0  0  0  0
  6  7  1  0  0  0  0
  6 49  1  0  0  0  0
  7  8  1  0  0  0  0
  7 33  2  0  0  0  0
  8  9  1  0  0  0  0
  9 10  1  0  0  0  0
  9 28  2  0  0  0  0
 10 11  2  0  0  0  0
 11 12  1  0  0  0  0
 11 50  1  0  0  0  0
 12 13  2  0  0  0  0
 13 14  1  0  0  0  0
 13 28  1  0  0  0  0
 14 15  2  0  0  0  0
 14 51  1  0  0  0  0
 15 16  1  0  0  0  0
 15 26  1  0  0  0  0
 16 17  1  0  0  0  0
 17 18  1  0  0  0  0
 17 52  1  0  0  0  0
 17 53  1  0  0  0  0
 18 19  1  0  0  0  0
 18 54  1  0  0  0  0
 18 55  1  0  0  0  0
 19 20  1  0  0  0  0
 19 56  1  0  0  0  0
 19 57  1  0  0  0  0
 20 21  1  0  0  0  0
 20 25  1  0  0  0  0
 21 22  1  0  0  0  0
 21 58  1  0  0  0  0
 21 59  1  0  0  0  0
 22 23  1  0  0  0  0
 22 60  1  0  0  0  0
 22 61  1  0  0  0  0
 23 24  1  0  0  0  0
 24 25  1  0  0  0  0
 24 62  1  0  0  0  0
 24 63  1  0  0  0  0
 25 64  1  0  0  0  0
 25 65  1  0  0  0  0
 26 27  2  0  0  0  0
 26 32  1  0  0  0  0
 27 28  1  0  0  0  0
 27 29  1  0  0  0  0
 29 30  1  0  0  0  0
 30 31  1  0  0  0  0
 30 66  1  0  0  0  0
 30 67  1  0  0  0  0
 31 32  1  0  0  0  0
 31 68  1  0  0  0  0
 31 69  1  0  0  0  0
 33 34  1  0  0  0  0
 33 70  1  0  0  0  0
 34 71  1  0  0  0  0
 35 36  1  0  0  0  0
 35 72  1  0  0  0  0
 36 37  1  0  0  0  0
 36 45  2  0  0  0  0
 37 38  2  0  0  0  0
 37 73  1  0  0  0  0
 38 39  1  0  0  0  0
 38 43  1  0  0  0  0
 39 40  1  0  0  0  0
 39 41  1  0  0  0  0
 39 42  1  0  0  0  0
 43 44  2  0  0  0  0
 43 74  1  0  0  0  0
 44 45  1  0  0  0  0
 44 75  1  0  0  0  0
 45 46  1  0  0  0  0
M  END
$$$$
