CHEMBL2001998
 OpenBabel04072215363D

 61 65  0  0  0  0  0  0  0  0999 V2000
    8.3686    7.6416    0.0666 C   0  0  0  0  0  0  0  0  0  0  0  0
    8.4269    6.2122    0.2254 N   0  0  0  0  0  0  0  0  0  0  0  0
    7.6561    5.5900    1.1739 C   0  0  0  0  0  0  0  0  0  0  0  0
    6.9202    6.2181    1.9305 O   0  0  0  0  0  0  0  0  0  0  0  0
    7.7757    4.2167    1.2071 N   0  0  0  0  0  0  0  0  0  0  0  0
    8.7214    3.4077    0.4309 C   0  0  0  0  0  0  0  0  0  0  0  0
    7.9874    2.2295   -0.2314 C   0  0  0  0  0  0  0  0  0  0  0  0
    7.2602    1.3620    0.7223 N   0  0  0  0  0  0  0  0  0  0  0  0
    8.1595    0.6229    1.6241 C   0  0  0  0  0  0  0  0  0  0  0  0
    9.1397   -0.3067    0.8937 C   0  0  0  0  0  0  0  0  0  0  0  0
    9.9914   -1.0666    1.9013 C   0  0  0  0  0  0  0  0  0  0  0  0
   10.7646   -0.1477    2.6852 O   0  0  0  0  0  0  0  0  0  0  0  0
   11.1272   -0.5550    3.9454 C   0  0  0  0  0  0  0  0  0  0  0  0
   10.7638   -1.7970    4.5094 C   0  0  0  0  0  0  0  0  0  0  0  0
   11.1153   -2.1451    5.8113 C   0  0  0  0  0  0  0  0  0  0  0  0
   11.8646   -1.2459    6.5402 C   0  0  0  0  0  0  0  0  0  0  0  0
   12.2564   -0.0020    5.9736 C   0  0  0  0  0  0  0  0  0  0  0  0
   11.8935    0.3599    4.6891 C   0  0  0  0  0  0  0  0  0  0  0  0
   13.0143    0.6236    7.0052 C   0  0  0  0  0  0  0  0  0  0  0  0
   13.6791    1.7589    7.2827 N   0  0  0  0  0  0  0  0  0  0  0  0
   14.1815    1.7484    8.5474 N   0  0  0  0  0  0  0  0  0  0  0  0
   13.8311    0.5504    9.0662 C   0  0  0  0  0  0  0  0  0  0  0  0
   14.1807    0.1515   10.4259 C   0  0  0  0  0  0  0  0  0  0  0  0
   14.3908   -1.1847   10.7734 C   0  0  0  0  0  0  0  0  0  0  0  0
   14.6514   -1.5351   12.0969 C   0  0  0  0  0  0  0  0  0  0  0  0
   14.6958   -0.5263   13.0526 C   0  0  0  0  0  0  0  0  0  0  0  0
   14.9048   -0.8410   14.4467 C   0  0  0  0  0  0  0  0  0  0  0  0
   15.0581   -1.1536   15.5511 N   0  0  0  0  0  0  0  0  0  0  0  0
   14.5251    0.7837   12.7506 N   0  0  0  0  0  0  0  0  0  0  0  0
   14.2803    1.0914   11.4516 C   0  0  0  0  0  0  0  0  0  0  0  0
   13.0869   -0.1732    8.1153 C   0  0  0  0  0  0  0  0  0  0  0  0
   12.3615   -1.4613    7.9734 C   0  0  0  0  0  0  0  0  0  0  0  0
    6.3305    2.2185    1.5103 C   0  0  0  0  0  0  0  0  0  0  0  0
    6.9851    3.4513    2.1762 C   0  0  0  0  0  0  0  0  0  0  0  0
    8.8940    7.8999   -0.8561 H   0  0  0  0  0  0  0  0  0  0  0  0
    8.8570    8.1175    0.9199 H   0  0  0  0  0  0  0  0  0  0  0  0
    7.3267    7.9638    0.0041 H   0  0  0  0  0  0  0  0  0  0  0  0
    8.5341    5.6977   -0.6311 H   0  0  0  0  0  0  0  0  0  0  0  0
    9.4993    3.0600    1.1209 H   0  0  0  0  0  0  0  0  0  0  0  0
    9.2361    3.9808   -0.3402 H   0  0  0  0  0  0  0  0  0  0  0  0
    8.6827    1.6512   -0.8466 H   0  0  0  0  0  0  0  0  0  0  0  0
    7.2537    2.6305   -0.9435 H   0  0  0  0  0  0  0  0  0  0  0  0
    7.5402    0.0026    2.2865 H   0  0  0  0  0  0  0  0  0  0  0  0
    8.7213    1.2991    2.2766 H   0  0  0  0  0  0  0  0  0  0  0  0
    9.8072    0.2583    0.2374 H   0  0  0  0  0  0  0  0  0  0  0  0
    8.5821   -1.0256    0.2807 H   0  0  0  0  0  0  0  0  0  0  0  0
   10.6766   -1.7452    1.3818 H   0  0  0  0  0  0  0  0  0  0  0  0
    9.2856   -1.6478    2.5000 H   0  0  0  0  0  0  0  0  0  0  0  0
   10.1944   -2.5367    3.9602 H   0  0  0  0  0  0  0  0  0  0  0  0
   10.8064   -3.0966    6.2250 H   0  0  0  0  0  0  0  0  0  0  0  0
   12.1892    1.3137    4.2625 H   0  0  0  0  0  0  0  0  0  0  0  0
   13.8322    2.5762    6.7034 H   0  0  0  0  0  0  0  0  0  0  0  0
   14.3627   -1.9686   10.0201 H   0  0  0  0  0  0  0  0  0  0  0  0
   14.8157   -2.5742   12.3732 H   0  0  0  0  0  0  0  0  0  0  0  0
   14.1441    2.1525   11.2525 H   0  0  0  0  0  0  0  0  0  0  0  0
   11.5222   -1.5453    8.6681 H   0  0  0  0  0  0  0  0  0  0  0  0
   13.0274   -2.3264    8.0190 H   0  0  0  0  0  0  0  0  0  0  0  0
    5.8079    1.6182    2.2651 H   0  0  0  0  0  0  0  0  0  0  0  0
    5.5514    2.5760    0.8237 H   0  0  0  0  0  0  0  0  0  0  0  0
    7.6638    3.1439    2.9810 H   0  0  0  0  0  0  0  0  0  0  0  0
    6.2087    4.0719    2.6354 H   0  0  0  0  0  0  0  0  0  0  0  0
  1  2  1  0  0  0  0
  1 35  1  0  0  0  0
  1 36  1  0  0  0  0
  1 37  1  0  0  0  0
  2  3  1  0  0  0  0
  2 38  1  0  0  0  0
  3  4  2  0  0  0  0
  3  5  1  0  0  0  0
  5  6  1  0  0  0  0
  5 34  1  0  0  0  0
  6  7  1  0  0  0  0
  6 39  1  0  0  0  0
  6 40  1  0  0  0  0
  7  8  1  0  0  0  0
  7 41  1  0  0  0  0
  7 42  1  0  0  0  0
  8  9  1  0  0  0  0
  8 33  1  0  0  0  0
  9 10  1  0  0  0  0
  9 43  1  0  0  0  0
  9 44  1  0  0  0  0
 10 11  1  0  0  0  0
 10 45  1  0  0  0  0
 10 46  1  0  0  0  0
 11 12  1  0  0  0  0
 11 47  1  0  0  0  0
 11 48  1  0  0  0  0
 12 13  1  0  0  0  0
 13 14  1  0  0  0  0
 13 18  2  0  0  0  0
 14 15  2  0  0  0  0
 14 49  1  0  0  0  0
 15 16  1  0  0  0  0
 15 50  1  0  0  0  0
 16 17  2  0  0  0  0
 16 32  1  0  0  0  0
 17 18  1  0  0  0  0
 17 19  1  0  0  0  0
 18 51  1  0  0  0  0
 19 20  1  0  0  0  0
 19 31  2  0  0  0  0
 20 21  1  0  0  0  0
 20 52  1  0  0  0  0
 21 22  2  0  0  0  0
 22 23  1  0  0  0  0
 22 31  1  0  0  0  0
 23 24  1  0  0  0  0
 23 30  2  0  0  0  0
 24 25  2  0  0  0  0
 24 53  1  0  0  0  0
 25 26  1  0  0  0  0
 25 54  1  0  0  0  0
 26 27  1  0  0  0  0
 26 29  2  0  0  0  0
 27 28  3  0  0  0  0
 29 30  1  0  0  0  0
 30 55  1  0  0  0  0
 31 32  1  0  0  0  0
 32 56  1  0  0  0  0
 32 57  1  0  0  0  0
 33 34  1  0  0  0  0
 33 58  1  0  0  0  0
 33 59  1  0  0  0  0
 34 60  1  0  0  0  0
 34 61  1  0  0  0  0
M  END
$$$$
