CHEMBL408565
 OpenBabel04072215383D

 36 39  0  0  1  0  0  0  0  0999 V2000
   -3.1158    0.4422    1.7080 O   0  0  0  0  0  0  0  0  0  0  0  0
   -1.9357    0.2673    1.4820 C   0  0  0  0  0  0  0  0  0  0  0  0
   -0.9039    1.0891    1.9110 N   0  0  0  0  0  0  0  0  0  0  0  0
    0.3358    0.5854    1.5405 C   0  0  0  0  0  0  0  0  0  0  0  0
    1.5639    1.1607    1.8047 C   0  0  0  0  0  0  0  0  0  0  0  0
    2.6939    0.5015    1.3227 C   0  0  0  0  0  0  0  0  0  0  0  0
    2.5712   -0.6992    0.5976 C   0  0  0  0  0  0  0  0  0  0  0  0
    1.3136   -1.2661    0.3474 C   0  0  0  0  0  0  0  0  0  0  0  0
    0.1958   -0.6145    0.8331 C   0  0  0  0  0  0  0  0  0  0  0  0
   -1.2518   -0.8673    0.7506 C   0  0  0  0  0  0  0  0  0  0  0  0
   -1.8401   -1.8868    0.1004 C   0  0  0  0  0  0  0  0  0  0  0  0
   -3.2397   -1.9366   -0.0899 C   0  0  0  0  0  0  0  0  0  0  0  0
   -4.0402   -1.5184   -1.1309 C   0  0  0  0  0  0  0  0  0  0  0  0
   -5.3896   -1.6622   -0.7159 C   0  0  0  0  0  0  0  0  0  0  0  0
   -5.3692   -2.2375    0.5302 C   0  0  0  0  0  0  0  0  0  0  0  0
   -4.0589   -2.4181    0.9018 N   0  0  0  0  0  0  0  0  0  0  0  0
   -6.5245   -2.5330    1.3998 C   0  0  0  0  0  0  0  0  0  0  0  0
   -7.8741   -2.2257    0.7332 C   0  0  0  0  0  0  0  0  0  0  0  0
   -7.9071   -1.4701   -0.6130 C   0  0  3  0  0  0  0  0  0  0  0  0
   -8.8222    0.2671   -0.3423 Br  0  0  0  0  0  0  0  0  0  0  0  0
   -6.6193   -1.2327   -1.4157 C   0  0  0  0  0  0  0  0  0  0  0  0
   -1.0719    1.9364    2.4274 H   0  0  0  0  0  0  0  0  0  0  0  0
    1.6505    2.0897    2.3566 H   0  0  0  0  0  0  0  0  0  0  0  0
    3.6807    0.9227    1.5029 H   0  0  0  0  0  0  0  0  0  0  0  0
    3.4676   -1.1872    0.2216 H   0  0  0  0  0  0  0  0  0  0  0  0
    1.2346   -2.1856   -0.2234 H   0  0  0  0  0  0  0  0  0  0  0  0
   -1.2435   -2.6379   -0.4036 H   0  0  0  0  0  0  0  0  0  0  0  0
   -3.6943   -1.0721   -2.0540 H   0  0  0  0  0  0  0  0  0  0  0  0
   -3.7496   -2.7599    1.8023 H   0  0  0  0  0  0  0  0  0  0  0  0
   -6.4368   -1.9547    2.3276 H   0  0  0  0  0  0  0  0  0  0  0  0
   -6.5055   -3.5914    1.6897 H   0  0  0  0  0  0  0  0  0  0  0  0
   -8.5076   -1.7333    1.4835 H   0  0  0  0  0  0  0  0  0  0  0  0
   -8.3736   -3.1906    0.5674 H   0  0  0  0  0  0  0  0  0  0  0  0
   -8.6248   -1.9789   -1.2697 H   0  0  0  0  0  0  0  0  0  0  0  0
   -6.5017   -0.1789   -1.6989 H   0  0  0  0  0  0  0  0  0  0  0  0
   -6.6848   -1.7898   -2.3593 H   0  0  0  0  0  0  0  0  0  0  0  0
  1  2  2  0  0  0  0
  2  3  1  0  0  0  0
  2 10  1  0  0  0  0
  3  4  1  0  0  0  0
  3 22  1  0  0  0  0
  4  5  1  0  0  0  0
  4  9  2  0  0  0  0
  5  6  2  0  0  0  0
  5 23  1  0  0  0  0
  6  7  1  0  0  0  0
  6 24  1  0  0  0  0
  7  8  2  0  0  0  0
  7 25  1  0  0  0  0
  8  9  1  0  0  0  0
  8 26  1  0  0  0  0
  9 10  1  0  0  0  0
 10 11  2  0  0  0  0
 11 12  1  0  0  0  0
 11 27  1  0  0  0  0
 12 13  2  0  0  0  0
 12 16  1  0  0  0  0
 13 14  1  0  0  0  0
 13 28  1  0  0  0  0
 14 15  2  0  0  0  0
 14 21  1  0  0  0  0
 15 16  1  0  0  0  0
 15 17  1  0  0  0  0
 16 29  1  0  0  0  0
 17 18  1  0  0  0  0
 17 30  1  0  0  0  0
 17 31  1  0  0  0  0
 18 19  1  0  0  0  0
 18 32  1  0  0  0  0
 18 33  1  0  0  0  0
 19 20  1  0  0  0  0
 19 21  1  0  0  0  0
 19 34  1  0  0  0  0
 21 35  1  0  0  0  0
 21 36  1  0  0  0  0
M  END
$$$$
