CHEMBL3657557
 OpenBabel04072215373D

 61 65  0  0  1  0  0  0  0  0999 V2000
    2.9193   -2.1817   -0.2725 C   0  0  0  0  0  0  0  0  0  0  0  0
    3.3086   -0.8072    0.1402 C   0  0  0  0  0  0  0  0  0  0  0  0
    4.3832   -0.2246   -0.4093 N   0  0  0  0  0  0  0  0  0  0  0  0
    4.5138    0.9532    0.2552 N   0  0  0  0  0  0  0  0  0  0  0  0
    5.6167    1.8395    0.0513 C   0  0  0  0  0  0  0  0  0  0  0  0
    6.5559    1.5155   -0.9040 C   0  0  0  0  0  0  0  0  0  0  0  0
    7.6300    2.3653   -0.9746 C   0  0  0  0  0  0  0  0  0  0  0  0
    7.7886    3.4303   -0.1692 N   0  0  0  0  0  0  0  0  0  0  0  0
    6.8277    3.6828    0.7288 C   0  0  0  0  0  0  0  0  0  0  0  0
    6.9280    4.7584    1.6137 N   0  0  0  0  0  0  0  0  0  0  0  0
    8.0495    5.3293    2.2487 C   0  0  0  0  0  0  0  0  0  0  0  0
    9.3712    4.9754    1.9760 C   0  0  0  0  0  0  0  0  0  0  0  0
   10.4593    5.5536    2.6547 C   0  0  0  0  0  0  0  0  0  0  0  0
   10.1920    6.5237    3.6312 C   0  0  0  0  0  0  0  0  0  0  0  0
    8.8885    6.9462    3.8968 C   0  0  0  0  0  0  0  0  0  0  0  0
    7.8223    6.3622    3.1753 C   0  0  0  0  0  0  0  0  0  0  0  0
    8.9690    7.9234    4.9227 C   0  0  0  0  0  0  0  0  0  0  0  0
    7.6247    8.7342    5.5881 Cl  0  0  0  0  0  0  0  0  0  0  0  0
   10.2904    8.0588    5.3011 C   0  0  0  0  0  0  0  0  0  0  0  0
   10.8846    8.8958    6.3789 C   0  0  0  0  0  0  0  0  0  0  0  0
   11.0297    7.2299    4.4807 N   0  0  0  0  0  0  0  0  0  0  0  0
   12.4719    7.0788    4.4974 C   0  0  0  0  0  0  0  0  0  0  0  0
    5.7189    2.9352    0.8491 N   0  0  0  0  0  0  0  0  0  0  0  0
    3.5116    1.1202    1.1792 C   0  0  0  0  0  0  0  0  0  0  0  0
    2.6914    0.0110    1.1301 C   0  0  0  0  0  0  0  0  0  0  0  0
    1.5026   -0.3133    1.9856 C   0  0  0  0  0  0  0  0  0  0  0  0
    0.3857    0.6181    1.7539 N   0  0  0  0  0  0  0  0  0  0  0  0
    0.6812    1.9895    2.2118 C   0  0  0  0  0  0  0  0  0  0  0  0
   -0.6280    2.5905    2.7251 C   0  0  2  0  0  0  0  0  0  0  0  0
   -0.5235    2.9514    4.1016 O   0  0  0  0  0  0  0  0  0  0  0  0
   -1.6636    1.4969    2.5438 C   0  0  0  0  0  0  0  0  0  0  0  0
   -0.8426    0.2089    2.4564 C   0  0  1  0  0  0  0  0  0  0  0  0
   -1.6165   -0.8692    1.7027 C   0  0  0  0  0  0  0  0  0  0  0  0
    3.6024   -2.5883   -1.0256 H   0  0  0  0  0  0  0  0  0  0  0  0
    1.9074   -2.1890   -0.6887 H   0  0  0  0  0  0  0  0  0  0  0  0
    2.9420   -2.8538    0.5925 H   0  0  0  0  0  0  0  0  0  0  0  0
    6.4777    0.6510   -1.5470 H   0  0  0  0  0  0  0  0  0  0  0  0
    8.4300    2.2050   -1.6911 H   0  0  0  0  0  0  0  0  0  0  0  0
    6.0810    4.7926    2.1652 H   0  0  0  0  0  0  0  0  0  0  0  0
    9.5953    4.2097    1.2385 H   0  0  0  0  0  0  0  0  0  0  0  0
   11.4718    5.2320    2.4314 H   0  0  0  0  0  0  0  0  0  0  0  0
    6.8110    6.7036    3.3761 H   0  0  0  0  0  0  0  0  0  0  0  0
   10.1154    9.4402    6.9355 H   0  0  0  0  0  0  0  0  0  0  0  0
   11.5776    9.6338    5.9633 H   0  0  0  0  0  0  0  0  0  0  0  0
   11.4223    8.2695    7.0986 H   0  0  0  0  0  0  0  0  0  0  0  0
   12.9137    7.6916    5.2844 H   0  0  0  0  0  0  0  0  0  0  0  0
   12.8607    7.3984    3.5269 H   0  0  0  0  0  0  0  0  0  0  0  0
   12.7078    6.0277    4.6821 H   0  0  0  0  0  0  0  0  0  0  0  0
    3.4887    2.0064    1.7965 H   0  0  0  0  0  0  0  0  0  0  0  0
    1.8038   -0.3226    3.0413 H   0  0  0  0  0  0  0  0  0  0  0  0
    1.1805   -1.3344    1.7484 H   0  0  0  0  0  0  0  0  0  0  0  0
    1.0410    2.5726    1.3568 H   0  0  0  0  0  0  0  0  0  0  0  0
    1.4390    2.0187    3.0036 H   0  0  0  0  0  0  0  0  0  0  0  0
   -0.9020    3.4920    2.1681 H   0  0  0  0  0  0  0  0  0  0  0  0
   -0.4050    2.1392    4.6218 H   0  0  0  0  0  0  0  0  0  0  0  0
   -2.2133    1.6698    1.6107 H   0  0  0  0  0  0  0  0  0  0  0  0
   -2.3836    1.4572    3.3682 H   0  0  0  0  0  0  0  0  0  0  0  0
   -0.6132   -0.1379    3.4734 H   0  0  0  0  0  0  0  0  0  0  0  0
   -1.8799   -0.5382    0.6914 H   0  0  0  0  0  0  0  0  0  0  0  0
   -2.5484   -1.1078    2.2266 H   0  0  0  0  0  0  0  0  0  0  0  0
   -1.0407   -1.7949    1.6116 H   0  0  0  0  0  0  0  0  0  0  0  0
  1  2  1  0  0  0  0
  1 34  1  0  0  0  0
  1 35  1  0  0  0  0
  1 36  1  0  0  0  0
  2  3  2  0  0  0  0
  2 25  1  0  0  0  0
  3  4  1  0  0  0  0
  4  5  1  0  0  0  0
  4 24  1  0  0  0  0
  5  6  1  0  0  0  0
  5 23  2  0  0  0  0
  6  7  2  0  0  0  0
  6 37  1  0  0  0  0
  7  8  1  0  0  0  0
  7 38  1  0  0  0  0
  8  9  2  0  0  0  0
  9 10  1  0  0  0  0
  9 23  1  0  0  0  0
 10 11  1  0  0  0  0
 10 39  1  0  0  0  0
 11 12  1  0  0  0  0
 11 16  2  0  0  0  0
 12 13  2  0  0  0  0
 12 40  1  0  0  0  0
 13 14  1  0  0  0  0
 13 41  1  0  0  0  0
 14 15  2  0  0  0  0
 14 21  1  0  0  0  0
 15 16  1  0  0  0  0
 15 17  1  0  0  0  0
 16 42  1  0  0  0  0
 17 18  1  0  0  0  0
 17 19  2  0  0  0  0
 19 20  1  0  0  0  0
 19 21  1  0  0  0  0
 20 43  1  0  0  0  0
 20 44  1  0  0  0  0
 20 45  1  0  0  0  0
 21 22  1  0  0  0  0
 22 46  1  0  0  0  0
 22 47  1  0  0  0  0
 22 48  1  0  0  0  0
 24 25  2  0  0  0  0
 24 49  1  0  0  0  0
 25 26  1  0  0  0  0
 26 27  1  0  0  0  0
 26 50  1  0  0  0  0
 26 51  1  0  0  0  0
 27 28  1  0  0  0  0
 27 32  1  0  0  0  0
 28 29  1  0  0  0  0
 28 52  1  0  0  0  0
 28 53  1  0  0  0  0
 29 31  1  0  0  0  0
 29 30  1  0  0  0  0
 29 54  1  6  0  0  0
 30 55  1  0  0  0  0
 31 32  1  0  0  0  0
 31 56  1  0  0  0  0
 31 57  1  0  0  0  0
 32 33  1  0  0  0  0
 32 58  1  1  0  0  0
 33 59  1  0  0  0  0
 33 60  1  0  0  0  0
 33 61  1  0  0  0  0
M  END
$$$$
