CHEMBL3642830
 OpenBabel04072215373D

 59 62  0  0  0  0  0  0  0  0999 V2000
    2.3101   -0.9999    1.1252 C   0  0  0  0  0  0  0  0  0  0  0  0
    3.5708   -0.6272    0.8676 C   0  0  0  0  0  0  0  0  0  0  0  0
    3.9025    0.8224    0.7803 C   0  0  0  0  0  0  0  0  0  0  0  0
    3.0554    1.6727    1.0182 O   0  0  0  0  0  0  0  0  0  0  0  0
    5.2069    1.0411    0.3794 N   0  0  0  0  0  0  0  0  0  0  0  0
    5.8321    2.2995    0.1993 C   0  0  0  0  0  0  0  0  0  0  0  0
    5.2558    3.4821    0.6976 C   0  0  0  0  0  0  0  0  0  0  0  0
    5.8320    4.7390    0.4747 C   0  0  0  0  0  0  0  0  0  0  0  0
    7.0213    4.8302   -0.2353 C   0  0  0  0  0  0  0  0  0  0  0  0
    7.6426    6.1167   -0.6365 C   0  0  0  0  0  0  0  0  0  0  0  0
    8.3666    6.0926   -1.6287 O   0  0  0  0  0  0  0  0  0  0  0  0
    7.4015    7.2246    0.1622 N   0  0  0  0  0  0  0  0  0  0  0  0
    7.8998    8.5186   -0.1073 C   0  0  0  0  0  0  0  0  0  0  0  0
    8.3783    8.9029   -1.3546 C   0  0  0  0  0  0  0  0  0  0  0  0
    8.9772   10.1475   -1.5293 C   0  0  0  0  0  0  0  0  0  0  0  0
    9.0753   11.0585   -0.4674 C   0  0  0  0  0  0  0  0  0  0  0  0
    9.8418   12.3280   -0.7101 C   0  0  0  0  0  0  0  0  0  0  0  0
    8.4554   10.7519    0.7604 C   0  0  0  0  0  0  0  0  0  0  0  0
    8.3690   11.7014    1.7985 N   0  0  0  0  0  0  0  0  0  0  0  0
    7.3485   11.8644    2.7427 C   0  0  0  0  0  0  0  0  0  0  0  0
    7.4676   12.8754    3.6112 N   0  0  0  0  0  0  0  0  0  0  0  0
    6.4499   13.0540    4.4763 C   0  0  0  0  0  0  0  0  0  0  0  0
    5.3038   12.2925    4.4838 C   0  0  0  0  0  0  0  0  0  0  0  0
    5.2470   11.2817    3.5514 C   0  0  0  0  0  0  0  0  0  0  0  0
    4.1007   10.3742    3.3675 C   0  0  0  0  0  0  0  0  0  0  0  0
    3.1758   10.0756    4.3772 C   0  0  0  0  0  0  0  0  0  0  0  0
    2.1182    9.1963    4.1343 C   0  0  0  0  0  0  0  0  0  0  0  0
    2.0078    8.6241    2.8795 C   0  0  0  0  0  0  0  0  0  0  0  0
    2.8686    8.8701    1.8746 N   0  0  0  0  0  0  0  0  0  0  0  0
    3.8817    9.7340    2.1410 C   0  0  0  0  0  0  0  0  0  0  0  0
    6.2719   11.0667    2.7052 N   0  0  0  0  0  0  0  0  0  0  0  0
    7.9142    9.4568    0.9262 C   0  0  0  0  0  0  0  0  0  0  0  0
    7.6279    3.6532   -0.7020 C   0  0  0  0  0  0  0  0  0  0  0  0
    7.0486    2.3860   -0.5015 C   0  0  0  0  0  0  0  0  0  0  0  0
    7.7592    1.2135   -1.1280 C   0  0  0  0  0  0  0  0  0  0  0  0
    7.1170    0.0197   -0.9602 F   0  0  0  0  0  0  0  0  0  0  0  0
    7.9218    1.3556   -2.4722 F   0  0  0  0  0  0  0  0  0  0  0  0
    9.0084    1.0272   -0.6176 F   0  0  0  0  0  0  0  0  0  0  0  0
    2.0383   -2.0470    1.2065 H   0  0  0  0  0  0  0  0  0  0  0  0
    1.5185   -0.2662    1.2604 H   0  0  0  0  0  0  0  0  0  0  0  0
    4.3523   -1.3615    0.7385 H   0  0  0  0  0  0  0  0  0  0  0  0
    5.7312    0.2222    0.0790 H   0  0  0  0  0  0  0  0  0  0  0  0
    4.3286    3.4659    1.2629 H   0  0  0  0  0  0  0  0  0  0  0  0
    5.3022    5.6235    0.8240 H   0  0  0  0  0  0  0  0  0  0  0  0
    6.9798    7.0802    1.0690 H   0  0  0  0  0  0  0  0  0  0  0  0
    8.3137    8.2471   -2.2166 H   0  0  0  0  0  0  0  0  0  0  0  0
    9.3832   10.3885   -2.5092 H   0  0  0  0  0  0  0  0  0  0  0  0
   10.4288   12.2585   -1.6346 H   0  0  0  0  0  0  0  0  0  0  0  0
   10.5612   12.4987    0.0973 H   0  0  0  0  0  0  0  0  0  0  0  0
    9.1672   13.1826   -0.7997 H   0  0  0  0  0  0  0  0  0  0  0  0
    8.8323   12.5872    1.6649 H   0  0  0  0  0  0  0  0  0  0  0  0
    6.5818   13.8680    5.1841 H   0  0  0  0  0  0  0  0  0  0  0  0
    4.4986   12.5080    5.1716 H   0  0  0  0  0  0  0  0  0  0  0  0
    3.2714   10.5049    5.3704 H   0  0  0  0  0  0  0  0  0  0  0  0
    1.4001    8.9586    4.9113 H   0  0  0  0  0  0  0  0  0  0  0  0
    1.2040    7.9325    2.6439 H   0  0  0  0  0  0  0  0  0  0  0  0
    4.5435    9.9087    1.2931 H   0  0  0  0  0  0  0  0  0  0  0  0
    7.5307    9.1683    1.9016 H   0  0  0  0  0  0  0  0  0  0  0  0
    8.5581    3.7280   -1.2702 H   0  0  0  0  0  0  0  0  0  0  0  0
  1  2  2  0  0  0  0
  1 39  1  0  0  0  0
  1 40  1  0  0  0  0
  2  3  1  0  0  0  0
  2 41  1  0  0  0  0
  3  4  2  0  0  0  0
  3  5  1  0  0  0  0
  5  6  1  0  0  0  0
  5 42  1  0  0  0  0
  6  7  1  0  0  0  0
  6 34  2  0  0  0  0
  7  8  2  0  0  0  0
  7 43  1  0  0  0  0
  8  9  1  0  0  0  0
  8 44  1  0  0  0  0
  9 10  1  0  0  0  0
  9 33  2  0  0  0  0
 10 11  2  0  0  0  0
 10 12  1  0  0  0  0
 12 13  1  0  0  0  0
 12 45  1  0  0  0  0
 13 14  1  0  0  0  0
 13 32  2  0  0  0  0
 14 15  2  0  0  0  0
 14 46  1  0  0  0  0
 15 16  1  0  0  0  0
 15 47  1  0  0  0  0
 16 17  1  0  0  0  0
 16 18  2  0  0  0  0
 17 48  1  0  0  0  0
 17 49  1  0  0  0  0
 17 50  1  0  0  0  0
 18 19  1  0  0  0  0
 18 32  1  0  0  0  0
 19 20  1  0  0  0  0
 19 51  1  0  0  0  0
 20 21  1  0  0  0  0
 20 31  2  0  0  0  0
 21 22  2  0  0  0  0
 22 23  1  0  0  0  0
 22 52  1  0  0  0  0
 23 24  2  0  0  0  0
 23 53  1  0  0  0  0
 24 25  1  0  0  0  0
 24 31  1  0  0  0  0
 25 26  1  0  0  0  0
 25 30  2  0  0  0  0
 26 27  2  0  0  0  0
 26 54  1  0  0  0  0
 27 28  1  0  0  0  0
 27 55  1  0  0  0  0
 28 29  2  0  0  0  0
 28 56  1  0  0  0  0
 29 30  1  0  0  0  0
 30 57  1  0  0  0  0
 32 58  1  0  0  0  0
 33 34  1  0  0  0  0
 33 59  1  0  0  0  0
 34 35  1  0  0  0  0
 35 36  1  0  0  0  0
 35 37  1  0  0  0  0
 35 38  1  0  0  0  0
M  END
$$$$
