CHEMBL3893363
 OpenBabel04072215373D

 50 54  0  0  1  0  0  0  0  0999 V2000
   -3.0261   -5.0162    2.3261 C   0  0  0  0  0  0  0  0  0  0  0  0
   -1.9977   -4.1986    1.7698 O   0  0  0  0  0  0  0  0  0  0  0  0
   -0.7967   -4.8115    1.5215 C   0  0  0  0  0  0  0  0  0  0  0  0
   -0.5804   -6.1797    1.6917 C   0  0  0  0  0  0  0  0  0  0  0  0
    0.6760   -6.7590    1.4277 C   0  0  0  0  0  0  0  0  0  0  0  0
    0.9538   -8.1246    1.5525 C   0  0  0  0  0  0  0  0  0  0  0  0
   -0.1018   -9.0309    1.8700 N   0  0  0  0  0  0  0  0  0  0  0  0
    0.1307  -10.3459    2.3346 C   0  0  0  0  0  0  0  0  0  0  0  0
    1.0252  -10.5643    3.3899 C   0  0  0  0  0  0  0  0  0  0  0  0
    1.3823  -11.8560    3.7715 C   0  0  0  0  0  0  0  0  0  0  0  0
    0.8307  -12.9521    3.1073 C   0  0  0  0  0  0  0  0  0  0  0  0
    1.4614  -14.6728    3.5999 Br  0  0  0  0  0  0  0  0  0  0  0  0
   -0.1223  -12.7480    2.1032 C   0  0  0  0  0  0  0  0  0  0  0  0
   -0.8715  -14.0551    1.2558 Cl  0  0  0  0  0  0  0  0  0  0  0  0
   -0.4797  -11.4462    1.7271 C   0  0  0  0  0  0  0  0  0  0  0  0
    2.1913   -8.6166    1.3505 N   0  0  0  0  0  0  0  0  0  0  0  0
    3.1392   -7.7486    1.0078 C   0  0  0  0  0  0  0  0  0  0  0  0
    2.9781   -6.4310    0.8324 N   0  0  0  0  0  0  0  0  0  0  0  0
    1.7503   -5.9491    1.0452 C   0  0  0  0  0  0  0  0  0  0  0  0
    1.5252   -4.5895    0.8677 C   0  0  0  0  0  0  0  0  0  0  0  0
    0.2600   -4.0152    1.0523 C   0  0  0  0  0  0  0  0  0  0  0  0
   -0.0126   -2.6900    0.7942 O   0  0  0  0  0  0  0  0  0  0  0  0
    0.7873   -2.0366   -0.2069 C   0  0  1  0  0  0  0  0  0  0  0  0
    0.6456   -2.6729   -1.5950 C   0  0  0  0  0  0  0  0  0  0  0  0
    0.2297   -1.6722   -2.5370 O   0  0  0  0  0  0  0  0  0  0  0  0
    0.3912   -0.4000   -1.9166 C   0  0  2  0  0  0  0  0  0  0  0  0
    1.7979    0.1600   -2.0862 C   0  0  1  0  0  0  0  0  0  0  0  0
    1.9730    0.9417   -3.2600 O   0  0  0  0  0  0  0  0  0  0  0  0
    1.9688    0.9690   -0.8121 C   0  0  0  0  0  0  0  0  0  0  0  0
    1.1426    0.3677    0.2002 O   0  0  0  0  0  0  0  0  0  0  0  0
    0.2853   -0.6068   -0.4232 C   0  0  2  0  0  0  0  0  0  0  0  0
   -3.8781   -4.3770    2.5783 H   0  0  0  0  0  0  0  0  0  0  0  0
   -2.7003   -5.5039    3.2519 H   0  0  0  0  0  0  0  0  0  0  0  0
   -3.3674   -5.7554    1.5928 H   0  0  0  0  0  0  0  0  0  0  0  0
   -1.3751   -6.8280    2.0449 H   0  0  0  0  0  0  0  0  0  0  0  0
   -0.7975   -8.9922    1.1356 H   0  0  0  0  0  0  0  0  0  0  0  0
    1.4824   -9.7156    3.8959 H   0  0  0  0  0  0  0  0  0  0  0  0
    2.1145  -11.9884    4.5636 H   0  0  0  0  0  0  0  0  0  0  0  0
   -1.2047  -11.3014    0.9304 H   0  0  0  0  0  0  0  0  0  0  0  0
    4.1359   -8.1465    0.8495 H   0  0  0  0  0  0  0  0  0  0  0  0
    2.3807   -3.9880    0.5789 H   0  0  0  0  0  0  0  0  0  0  0  0
    1.8313   -2.0022    0.1277 H   0  0  0  0  0  0  0  0  0  0  0  0
   -0.0682   -3.5012   -1.6350 H   0  0  0  0  0  0  0  0  0  0  0  0
    1.6187   -3.0476   -1.9343 H   0  0  0  0  0  0  0  0  0  0  0  0
   -0.3643    0.2910   -2.3044 H   0  0  0  0  0  0  0  0  0  0  0  0
    2.5388   -0.6463   -2.1271 H   0  0  0  0  0  0  0  0  0  0  0  0
    1.2075    1.5325   -3.3627 H   0  0  0  0  0  0  0  0  0  0  0  0
    1.6637    2.0128   -0.9432 H   0  0  0  0  0  0  0  0  0  0  0  0
    3.0092    0.9656   -0.4714 H   0  0  0  0  0  0  0  0  0  0  0  0
   -0.7368   -0.4755   -0.0511 H   0  0  0  0  0  0  0  0  0  0  0  0
  1  2  1  0  0  0  0
  1 32  1  0  0  0  0
  1 33  1  0  0  0  0
  1 34  1  0  0  0  0
  2  3  1  0  0  0  0
  3  4  1  0  0  0  0
  3 21  2  0  0  0  0
  4  5  2  0  0  0  0
  4 35  1  0  0  0  0
  5  6  1  0  0  0  0
  5 19  1  0  0  0  0
  6  7  1  0  0  0  0
  6 16  2  0  0  0  0
  7  8  1  0  0  0  0
  7 36  1  0  0  0  0
  8  9  1  0  0  0  0
  8 15  2  0  0  0  0
  9 10  2  0  0  0  0
  9 37  1  0  0  0  0
 10 11  1  0  0  0  0
 10 38  1  0  0  0  0
 11 12  1  0  0  0  0
 11 13  2  0  0  0  0
 13 14  1  0  0  0  0
 13 15  1  0  0  0  0
 15 39  1  0  0  0  0
 16 17  1  0  0  0  0
 17 18  2  0  0  0  0
 17 40  1  0  0  0  0
 18 19  1  0  0  0  0
 19 20  2  0  0  0  0
 20 21  1  0  0  0  0
 20 41  1  0  0  0  0
 21 22  1  0  0  0  0
 23 24  1  0  0  0  0
 23 31  1  0  0  0  0
 23 22  1  0  0  0  0
 23 42  1  1  0  0  0
 24 25  1  0  0  0  0
 24 43  1  0  0  0  0
 24 44  1  0  0  0  0
 25 26  1  0  0  0  0
 26 27  1  0  0  0  0
 26 31  1  0  0  0  0
 26 45  1  6  0  0  0
 27 28  1  0  0  0  0
 27 29  1  0  0  0  0
 27 46  1  6  0  0  0
 28 47  1  0  0  0  0
 29 30  1  0  0  0  0
 29 48  1  0  0  0  0
 29 49  1  0  0  0  0
 30 31  1  0  0  0  0
 31 50  1  1  0  0  0
M  END
$$$$
