CHEMBL460746
 OpenBabel04072215383D

 45 48  0  0  0  0  0  0  0  0999 V2000
    1.9194   -1.4234   -1.1730 O   0  0  0  0  0  0  0  0  0  0  0  0
    3.0805   -1.6246   -0.8276 C   0  0  0  0  0  0  0  0  0  0  0  0
    4.1596   -1.6399   -1.6967 N   0  0  0  0  0  0  0  0  0  0  0  0
    4.1209   -1.5680   -3.0779 C   0  0  0  0  0  0  0  0  0  0  0  0
    5.5715   -1.7433   -3.8946 S   0  0  0  0  0  0  0  0  0  0  0  0
    2.8847   -1.3171   -3.6226 N   0  0  0  0  0  0  0  0  0  0  0  0
    2.3487   -1.7132   -4.8632 C   0  0  0  0  0  0  0  0  0  0  0  0
    1.2505   -1.0096   -5.3604 C   0  0  0  0  0  0  0  0  0  0  0  0
    0.6433   -1.4051   -6.5531 C   0  0  0  0  0  0  0  0  0  0  0  0
    1.1099   -2.5339   -7.2321 C   0  0  0  0  0  0  0  0  0  0  0  0
    0.5141   -2.8806   -8.4139 O   0  0  0  0  0  0  0  0  0  0  0  0
    2.1846   -3.2895   -6.7357 C   0  0  0  0  0  0  0  0  0  0  0  0
    2.6312   -4.5254   -7.4062 C   0  0  0  0  0  0  0  0  0  0  0  0
    1.8381   -5.3686   -8.0366 N   0  0  0  0  0  0  0  0  0  0  0  0
    2.5730   -6.3633   -8.6516 C   0  0  0  0  0  0  0  0  0  0  0  0
    2.0559   -7.3768   -9.4834 C   0  0  0  0  0  0  0  0  0  0  0  0
    2.9212   -8.3127  -10.0583 C   0  0  0  0  0  0  0  0  0  0  0  0
    4.2867   -8.2628   -9.7961 C   0  0  0  0  0  0  0  0  0  0  0  0
    4.8219   -7.2738   -8.9647 C   0  0  0  0  0  0  0  0  0  0  0  0
    3.9458   -6.3231   -8.4155 C   0  0  0  0  0  0  0  0  0  0  0  0
    4.2999   -4.9699   -7.4181 S   0  0  0  0  0  0  0  0  0  0  0  0
    2.7931   -2.8526   -5.5429 C   0  0  0  0  0  0  0  0  0  0  0  0
    3.3676   -1.8375    0.6140 C   0  0  0  0  0  0  0  0  0  0  0  0
    2.3879   -2.4849    1.3830 C   0  0  0  0  0  0  0  0  0  0  0  0
    2.5263   -2.5862    2.7695 C   0  0  0  0  0  0  0  0  0  0  0  0
    3.6503   -2.0291    3.3897 C   0  0  0  0  0  0  0  0  0  0  0  0
    3.7602   -2.0610    4.8532 N   0  3  0  0  0  0  0  0  0  0  0  0
    2.8501   -2.6071    5.4931 O   0  0  0  0  0  0  0  0  0  0  0  0
    4.7593   -1.5408    5.3657 O   0  5  0  0  0  0  0  0  0  0  0  0
    4.6521   -1.4091    2.6254 C   0  0  0  0  0  0  0  0  0  0  0  0
    4.5104   -1.3152    1.2343 C   0  0  0  0  0  0  0  0  0  0  0  0
    5.0761   -1.8692   -1.3369 H   0  0  0  0  0  0  0  0  0  0  0  0
    2.2328   -0.8356   -3.0027 H   0  0  0  0  0  0  0  0  0  0  0  0
    0.8753   -0.1296   -4.8447 H   0  0  0  0  0  0  0  0  0  0  0  0
   -0.1851   -0.8216   -6.9439 H   0  0  0  0  0  0  0  0  0  0  0  0
   -0.3199   -2.3973   -8.5152 H   0  0  0  0  0  0  0  0  0  0  0  0
    0.9899   -7.4070   -9.6843 H   0  0  0  0  0  0  0  0  0  0  0  0
    2.5208   -9.0797  -10.7167 H   0  0  0  0  0  0  0  0  0  0  0  0
    4.9496   -8.9965  -10.2497 H   0  0  0  0  0  0  0  0  0  0  0  0
    5.8880   -7.2309   -8.7652 H   0  0  0  0  0  0  0  0  0  0  0  0
    3.5746   -3.4615   -5.0993 H   0  0  0  0  0  0  0  0  0  0  0  0
    1.4958   -2.8883    0.9038 H   0  0  0  0  0  0  0  0  0  0  0  0
    1.7392   -3.0696    3.3459 H   0  0  0  0  0  0  0  0  0  0  0  0
    5.5264   -0.9662    3.1003 H   0  0  0  0  0  0  0  0  0  0  0  0
    5.2693   -0.7814    0.6672 H   0  0  0  0  0  0  0  0  0  0  0  0
  1  2  2  0  0  0  0
  2  3  1  0  0  0  0
  2 23  1  0  0  0  0
  3  4  1  0  0  0  0
  3 32  1  0  0  0  0
  4  5  2  0  0  0  0
  4  6  1  0  0  0  0
  6  7  1  0  0  0  0
  6 33  1  0  0  0  0
  7  8  1  0  0  0  0
  7 22  2  0  0  0  0
  8  9  2  0  0  0  0
  8 34  1  0  0  0  0
  9 10  1  0  0  0  0
  9 35  1  0  0  0  0
 10 11  1  0  0  0  0
 10 12  2  0  0  0  0
 11 36  1  0  0  0  0
 12 13  1  0  0  0  0
 12 22  1  0  0  0  0
 13 14  2  0  0  0  0
 13 21  1  0  0  0  0
 14 15  1  0  0  0  0
 15 16  1  0  0  0  0
 15 20  2  0  0  0  0
 16 17  2  0  0  0  0
 16 37  1  0  0  0  0
 17 18  1  0  0  0  0
 17 38  1  0  0  0  0
 18 19  2  0  0  0  0
 18 39  1  0  0  0  0
 19 20  1  0  0  0  0
 19 40  1  0  0  0  0
 20 21  1  0  0  0  0
 22 41  1  0  0  0  0
 23 24  1  0  0  0  0
 23 31  2  0  0  0  0
 24 25  2  0  0  0  0
 24 42  1  0  0  0  0
 25 26  1  0  0  0  0
 25 43  1  0  0  0  0
 26 27  1  0  0  0  0
 26 30  2  0  0  0  0
 27 28  2  0  0  0  0
 27 29  1  0  0  0  0
 30 31  1  0  0  0  0
 30 44  1  0  0  0  0
 31 45  1  0  0  0  0
M  CHG  2  27   1  29  -1
M  END
$$$$
