CHEMBL2063331
 OpenBabel04072215363D

 70 74  0  0  0  0  0  0  0  0999 V2000
   -8.5321   -2.4709   -4.4360 C   0  0  0  0  0  0  0  0  0  0  0  0
   -7.0928   -2.7825   -4.4379 C   0  0  0  0  0  0  0  0  0  0  0  0
   -6.3692   -3.9395   -4.3060 C   0  0  0  0  0  0  0  0  0  0  0  0
   -5.0190   -3.5245   -4.3885 C   0  0  0  0  0  0  0  0  0  0  0  0
   -3.7947   -4.3756   -4.3142 C   0  0  0  0  0  0  0  0  0  0  0  0
   -3.2894   -4.5402   -2.9761 O   0  0  0  0  0  0  0  0  0  0  0  0
   -3.9444   -5.4589   -2.2275 C   0  0  0  0  0  0  0  0  0  0  0  0
   -4.8908   -6.1362   -2.6072 O   0  0  0  0  0  0  0  0  0  0  0  0
   -3.3965   -5.5086   -0.9825 N   0  0  0  0  0  0  0  0  0  0  0  0
   -3.9381   -6.3213    0.0689 C   0  0  0  0  0  0  0  0  0  0  0  0
   -3.2964   -7.6845    0.1237 C   0  0  0  0  0  0  0  0  0  0  0  0
   -2.1365   -7.8948    0.8755 C   0  0  0  0  0  0  0  0  0  0  0  0
   -1.5521   -9.1630    0.9319 C   0  0  0  0  0  0  0  0  0  0  0  0
   -2.1067  -10.2471    0.2319 C   0  0  0  0  0  0  0  0  0  0  0  0
   -1.4909  -11.5710    0.3311 C   0  0  0  0  0  0  0  0  0  0  0  0
   -0.7951  -12.0810    1.4544 C   0  0  0  0  0  0  0  0  0  0  0  0
   -0.3473  -13.3332    1.1093 C   0  0  0  0  0  0  0  0  0  0  0  0
    0.4023  -14.2274    1.8749 N   0  0  0  0  0  0  0  0  0  0  0  0
    0.7952  -13.9250    3.2283 C   0  0  0  0  0  0  0  0  0  0  0  0
    0.4489  -12.8875    3.7731 O   0  0  0  0  0  0  0  0  0  0  0  0
    1.6137  -14.9018    3.9746 C   0  0  0  0  0  0  0  0  0  0  0  0
    2.4569  -15.8195    3.3566 C   0  0  0  0  0  0  0  0  0  0  0  0
    3.2656  -16.6421    4.1504 C   0  0  0  0  0  0  0  0  0  0  0  0
    3.2612  -16.5771    5.5564 C   0  0  0  0  0  0  0  0  0  0  0  0
    4.1318  -17.3510    6.2901 N   0  0  0  0  0  0  0  0  0  0  0  0
    4.5819  -16.9877    7.6460 C   0  0  0  0  0  0  0  0  0  0  0  0
    6.0599  -17.4210    7.8225 C   0  0  0  0  0  0  0  0  0  0  0  0
    6.2676  -18.8612    7.5440 N   0  0  0  0  0  0  0  0  0  0  0  0
    7.6765  -19.2185    7.6830 C   0  0  0  0  0  0  0  0  0  0  0  0
    5.7858  -19.1704    6.1792 C   0  0  0  0  0  0  0  0  0  0  0  0
    4.3045  -18.7822    5.9846 C   0  0  0  0  0  0  0  0  0  0  0  0
    2.4009  -15.6490    6.1480 C   0  0  0  0  0  0  0  0  0  0  0  0
    1.5860  -14.8224    5.3722 C   0  0  0  0  0  0  0  0  0  0  0  0
   -0.7959  -13.5148   -0.1729 N   0  0  0  0  0  0  0  0  0  0  0  0
   -1.5096  -12.4802   -0.6565 N   0  0  0  0  0  0  0  0  0  0  0  0
   -3.2576  -10.0342   -0.5321 C   0  0  0  0  0  0  0  0  0  0  0  0
   -3.8448   -8.7635   -0.5871 C   0  0  0  0  0  0  0  0  0  0  0  0
   -4.9319   -2.1993   -4.5685 N   0  0  0  0  0  0  0  0  0  0  0  0
   -6.2385   -1.7371   -4.5986 O   0  0  0  0  0  0  0  0  0  0  0  0
   -9.1264   -3.3792   -4.2935 H   0  0  0  0  0  0  0  0  0  0  0  0
   -8.8306   -2.0161   -5.3853 H   0  0  0  0  0  0  0  0  0  0  0  0
   -8.7753   -1.7768   -3.6258 H   0  0  0  0  0  0  0  0  0  0  0  0
   -6.7503   -4.9396   -4.1596 H   0  0  0  0  0  0  0  0  0  0  0  0
   -2.9891   -3.9122   -4.8955 H   0  0  0  0  0  0  0  0  0  0  0  0
   -3.9718   -5.3556   -4.7759 H   0  0  0  0  0  0  0  0  0  0  0  0
   -2.5925   -4.9173   -0.8208 H   0  0  0  0  0  0  0  0  0  0  0  0
   -5.0232   -6.4204   -0.0562 H   0  0  0  0  0  0  0  0  0  0  0  0
   -3.7751   -5.7905    1.0137 H   0  0  0  0  0  0  0  0  0  0  0  0
   -1.6810   -7.0765    1.4289 H   0  0  0  0  0  0  0  0  0  0  0  0
   -0.6500   -9.2864    1.5267 H   0  0  0  0  0  0  0  0  0  0  0  0
   -0.6595  -11.5577    2.3890 H   0  0  0  0  0  0  0  0  0  0  0  0
    0.6400  -15.1228    1.4723 H   0  0  0  0  0  0  0  0  0  0  0  0
    2.5641  -15.8833    2.2785 H   0  0  0  0  0  0  0  0  0  0  0  0
    3.9707  -17.3040    3.6503 H   0  0  0  0  0  0  0  0  0  0  0  0
    3.9500  -17.4781    8.3975 H   0  0  0  0  0  0  0  0  0  0  0  0
    4.5314  -15.9058    7.8152 H   0  0  0  0  0  0  0  0  0  0  0  0
    6.3705  -17.1918    8.8485 H   0  0  0  0  0  0  0  0  0  0  0  0
    6.6813  -16.8149    7.1481 H   0  0  0  0  0  0  0  0  0  0  0  0
    8.0209  -19.0241    8.7043 H   0  0  0  0  0  0  0  0  0  0  0  0
    8.3181  -18.6641    6.9888 H   0  0  0  0  0  0  0  0  0  0  0  0
    7.8162  -20.2897    7.5010 H   0  0  0  0  0  0  0  0  0  0  0  0
    5.8907  -20.2434    5.9825 H   0  0  0  0  0  0  0  0  0  0  0  0
    6.3900  -18.6358    5.4328 H   0  0  0  0  0  0  0  0  0  0  0  0
    3.6692  -19.3753    6.6556 H   0  0  0  0  0  0  0  0  0  0  0  0
    4.0055  -19.0401    4.9637 H   0  0  0  0  0  0  0  0  0  0  0  0
    2.3460  -15.5513    7.2297 H   0  0  0  0  0  0  0  0  0  0  0  0
    0.9446  -14.0995    5.8766 H   0  0  0  0  0  0  0  0  0  0  0  0
   -0.6563  -14.3108   -0.7844 H   0  0  0  0  0  0  0  0  0  0  0  0
   -3.7134  -10.8556   -1.0810 H   0  0  0  0  0  0  0  0  0  0  0  0
   -4.7407   -8.6186   -1.1897 H   0  0  0  0  0  0  0  0  0  0  0  0
  1  2  1  0  0  0  0
  1 40  1  0  0  0  0
  1 41  1  0  0  0  0
  1 42  1  0  0  0  0
  2  3  2  0  0  0  0
  2 39  1  0  0  0  0
  3  4  1  0  0  0  0
  3 43  1  0  0  0  0
  4  5  1  0  0  0  0
  4 38  2  0  0  0  0
  5  6  1  0  0  0  0
  5 44  1  0  0  0  0
  5 45  1  0  0  0  0
  6  7  1  0  0  0  0
  7  8  2  0  0  0  0
  7  9  1  0  0  0  0
  9 10  1  0  0  0  0
  9 46  1  0  0  0  0
 10 11  1  0  0  0  0
 10 47  1  0  0  0  0
 10 48  1  0  0  0  0
 11 12  1  0  0  0  0
 11 37  2  0  0  0  0
 12 13  2  0  0  0  0
 12 49  1  0  0  0  0
 13 14  1  0  0  0  0
 13 50  1  0  0  0  0
 14 15  1  0  0  0  0
 14 36  2  0  0  0  0
 15 16  1  0  0  0  0
 15 35  2  0  0  0  0
 16 17  2  0  0  0  0
 16 51  1  0  0  0  0
 17 18  1  0  0  0  0
 17 34  1  0  0  0  0
 18 19  1  0  0  0  0
 18 52  1  0  0  0  0
 19 20  2  0  0  0  0
 19 21  1  0  0  0  0
 21 22  1  0  0  0  0
 21 33  2  0  0  0  0
 22 23  2  0  0  0  0
 22 53  1  0  0  0  0
 23 24  1  0  0  0  0
 23 54  1  0  0  0  0
 24 25  1  0  0  0  0
 24 32  2  0  0  0  0
 25 26  1  0  0  0  0
 25 31  1  0  0  0  0
 26 27  1  0  0  0  0
 26 55  1  0  0  0  0
 26 56  1  0  0  0  0
 27 28  1  0  0  0  0
 27 57  1  0  0  0  0
 27 58  1  0  0  0  0
 28 29  1  0  0  0  0
 28 30  1  0  0  0  0
 29 59  1  0  0  0  0
 29 60  1  0  0  0  0
 29 61  1  0  0  0  0
 30 31  1  0  0  0  0
 30 62  1  0  0  0  0
 30 63  1  0  0  0  0
 31 64  1  0  0  0  0
 31 65  1  0  0  0  0
 32 33  1  0  0  0  0
 32 66  1  0  0  0  0
 33 67  1  0  0  0  0
 34 35  1  0  0  0  0
 34 68  1  0  0  0  0
 36 37  1  0  0  0  0
 36 69  1  0  0  0  0
 37 70  1  0  0  0  0
 38 39  1  0  0  0  0
M  END
$$$$
