CHEMBL4218563
 OpenBabel04072215383D

 63 65  0  0  0  0  0  0  0  0999 V2000
    1.9954   -0.9444   13.3521 C   0  0  0  0  0  0  0  0  0  0  0  0
    2.6536   -2.1571   12.7242 C   0  0  0  0  0  0  0  0  0  0  0  0
    2.8746   -1.8804   11.3423 O   0  0  0  0  0  0  0  0  0  0  0  0
    3.4348   -2.8794   10.5723 C   0  0  0  0  0  0  0  0  0  0  0  0
    3.8438   -4.0871   11.0159 C   0  0  0  0  0  0  0  0  0  0  0  0
    4.4101   -5.0757   10.0682 C   0  0  0  0  0  0  0  0  0  0  0  0
    4.7737   -6.1804   10.4500 O   0  0  0  0  0  0  0  0  0  0  0  0
    4.4884   -4.6729    8.7614 N   0  0  0  0  0  0  0  0  0  0  0  0
    4.0729   -3.4421    8.3074 C   0  0  0  0  0  0  0  0  0  0  0  0
    3.5485   -2.5342    9.1556 C   0  0  0  0  0  0  0  0  0  0  0  0
    3.0707   -1.2563    8.5761 C   0  0  0  0  0  0  0  0  0  0  0  0
    3.9394   -0.1826    8.3363 C   0  0  0  0  0  0  0  0  0  0  0  0
    3.4587    1.0195    7.7911 C   0  0  0  0  0  0  0  0  0  0  0  0
    2.0992    1.1727    7.4864 C   0  0  0  0  0  0  0  0  0  0  0  0
    1.5668    2.4148    6.8093 C   0  0  0  0  0  0  0  0  0  0  0  0
    1.8162    3.7152    7.5554 C   0  0  0  0  0  0  0  0  0  0  0  0
    2.7581    4.4488    7.2616 O   0  0  0  0  0  0  0  0  0  0  0  0
    0.9142    3.9533    8.5811 N   0  0  0  0  0  0  0  0  0  0  0  0
    0.9672    5.0993    9.4016 C   0  0  0  0  0  0  0  0  0  0  0  0
    0.8178    4.9295   10.7714 C   0  0  0  0  0  0  0  0  0  0  0  0
    0.9010    6.0301   11.6271 C   0  0  0  0  0  0  0  0  0  0  0  0
    1.0722    7.3421   11.1385 C   0  0  0  0  0  0  0  0  0  0  0  0
    1.1293    8.4647   12.1654 C   0  0  0  0  0  0  0  0  0  0  0  0
   -0.2210    9.1195   12.5983 C   0  0  0  0  0  0  0  0  0  0  0  0
   -1.0383    9.6708   11.4225 C   0  0  0  0  0  0  0  0  0  0  0  0
   -1.0843    8.1438   13.4133 C   0  0  0  0  0  0  0  0  0  0  0  0
    0.0634   10.2648   13.4875 N   0  0  0  0  0  0  0  0  0  0  0  0
    1.2041    7.5263    9.7411 C   0  0  0  0  0  0  0  0  0  0  0  0
    1.4057    8.8632    9.0488 C   0  0  0  0  0  0  0  0  0  0  0  0
    1.5360    9.9395    9.8701 F   0  0  0  0  0  0  0  0  0  0  0  0
    2.5214    8.8783    8.2660 F   0  0  0  0  0  0  0  0  0  0  0  0
    0.3681    9.1701    8.2179 F   0  0  0  0  0  0  0  0  0  0  0  0
    1.1531    6.3876    8.8927 C   0  0  0  0  0  0  0  0  0  0  0  0
    1.2451    0.0955    7.7471 C   0  0  0  0  0  0  0  0  0  0  0  0
   -0.0630    0.2046    7.4727 F   0  0  0  0  0  0  0  0  0  0  0  0
    1.7136   -1.1040    8.2803 C   0  0  0  0  0  0  0  0  0  0  0  0
    1.8212   -1.1050   14.4199 H   0  0  0  0  0  0  0  0  0  0  0  0
    1.0366   -0.7337   12.8663 H   0  0  0  0  0  0  0  0  0  0  0  0
    2.6209   -0.0550   13.2239 H   0  0  0  0  0  0  0  0  0  0  0  0
    1.9909   -3.0236   12.8335 H   0  0  0  0  0  0  0  0  0  0  0  0
    3.6082   -2.3506   13.2264 H   0  0  0  0  0  0  0  0  0  0  0  0
    3.7884   -4.4153   12.0438 H   0  0  0  0  0  0  0  0  0  0  0  0
    4.8627   -5.3558    8.1148 H   0  0  0  0  0  0  0  0  0  0  0  0
    4.1770   -3.2744    7.2403 H   0  0  0  0  0  0  0  0  0  0  0  0
    4.9985   -0.2752    8.5699 H   0  0  0  0  0  0  0  0  0  0  0  0
    4.1612    1.8292    7.5960 H   0  0  0  0  0  0  0  0  0  0  0  0
    0.4879    2.3323    6.6298 H   0  0  0  0  0  0  0  0  0  0  0  0
    2.0274    2.4975    5.8169 H   0  0  0  0  0  0  0  0  0  0  0  0
    0.4739    3.1296    8.9751 H   0  0  0  0  0  0  0  0  0  0  0  0
    0.7049    3.9364   11.1974 H   0  0  0  0  0  0  0  0  0  0  0  0
    0.8447    5.8492   12.6999 H   0  0  0  0  0  0  0  0  0  0  0  0
    1.8393    9.2283   11.8320 H   0  0  0  0  0  0  0  0  0  0  0  0
    1.6170    8.0598   13.0661 H   0  0  0  0  0  0  0  0  0  0  0  0
   -1.2718    8.8937   10.6883 H   0  0  0  0  0  0  0  0  0  0  0  0
   -0.5103   10.4800   10.9066 H   0  0  0  0  0  0  0  0  0  0  0  0
   -1.9953   10.0850   11.7639 H   0  0  0  0  0  0  0  0  0  0  0  0
   -1.3431    7.2514   12.8357 H   0  0  0  0  0  0  0  0  0  0  0  0
   -2.0288    8.6085   13.7224 H   0  0  0  0  0  0  0  0  0  0  0  0
   -0.5675    7.8175   14.3238 H   0  0  0  0  0  0  0  0  0  0  0  0
    0.6101   10.9652   12.9850 H   0  0  0  0  0  0  0  0  0  0  0  0
    0.6357    9.9674   14.2766 H   0  0  0  0  0  0  0  0  0  0  0  0
    1.2383    6.5306    7.8142 H   0  0  0  0  0  0  0  0  0  0  0  0
    1.0119   -1.9131    8.4591 H   0  0  0  0  0  0  0  0  0  0  0  0
  1  2  1  0  0  0  0
  1 37  1  0  0  0  0
  1 38  1  0  0  0  0
  1 39  1  0  0  0  0
  2  3  1  0  0  0  0
  2 40  1  0  0  0  0
  2 41  1  0  0  0  0
  3  4  1  0  0  0  0
  4  5  2  0  0  0  0
  4 10  1  0  0  0  0
  5  6  1  0  0  0  0
  5 42  1  0  0  0  0
  6  7  2  0  0  0  0
  6  8  1  0  0  0  0
  8  9  1  0  0  0  0
  8 43  1  0  0  0  0
  9 10  2  0  0  0  0
  9 44  1  0  0  0  0
 10 11  1  0  0  0  0
 11 12  1  0  0  0  0
 11 36  2  0  0  0  0
 12 13  2  0  0  0  0
 12 45  1  0  0  0  0
 13 14  1  0  0  0  0
 13 46  1  0  0  0  0
 14 15  1  0  0  0  0
 14 34  2  0  0  0  0
 15 16  1  0  0  0  0
 15 47  1  0  0  0  0
 15 48  1  0  0  0  0
 16 17  2  0  0  0  0
 16 18  1  0  0  0  0
 18 19  1  0  0  0  0
 18 49  1  0  0  0  0
 19 20  1  0  0  0  0
 19 33  2  0  0  0  0
 20 21  2  0  0  0  0
 20 50  1  0  0  0  0
 21 22  1  0  0  0  0
 21 51  1  0  0  0  0
 22 23  1  0  0  0  0
 22 28  2  0  0  0  0
 23 24  1  0  0  0  0
 23 52  1  0  0  0  0
 23 53  1  0  0  0  0
 24 25  1  0  0  0  0
 24 26  1  0  0  0  0
 24 27  1  0  0  0  0
 25 54  1  0  0  0  0
 25 55  1  0  0  0  0
 25 56  1  0  0  0  0
 26 57  1  0  0  0  0
 26 58  1  0  0  0  0
 26 59  1  0  0  0  0
 27 60  1  0  0  0  0
 27 61  1  0  0  0  0
 28 29  1  0  0  0  0
 28 33  1  0  0  0  0
 29 30  1  0  0  0  0
 29 31  1  0  0  0  0
 29 32  1  0  0  0  0
 33 62  1  0  0  0  0
 34 35  1  0  0  0  0
 34 36  1  0  0  0  0
 36 63  1  0  0  0  0
M  END
$$$$
