CHEMBL3754556
 OpenBabel04072215373D

 35 37  0  0  0  0  0  0  0  0999 V2000
    1.3074    0.4274    0.7090 O   0  0  0  0  0  0  0  0  0  0  0  0
    2.4124    0.1438    0.2478 C   0  0  0  0  0  0  0  0  0  0  0  0
    2.8985    0.5528   -0.9679 N   0  0  0  0  0  0  0  0  0  0  0  0
    2.2870    1.4140   -1.8954 C   0  0  0  0  0  0  0  0  0  0  0  0
    1.1923    2.2270   -1.5835 C   0  0  0  0  0  0  0  0  0  0  0  0
    0.5862    3.0644   -2.5397 C   0  0  0  0  0  0  0  0  0  0  0  0
   -0.5383    3.9540   -2.1804 C   0  0  0  0  0  0  0  0  0  0  0  0
   -0.7714    5.1751   -2.8000 C   0  0  0  0  0  0  0  0  0  0  0  0
   -1.7709    6.0307   -2.4901 N   0  0  0  0  0  0  0  0  0  0  0  0
   -2.5757    5.6397   -1.4944 C   0  0  0  0  0  0  0  0  0  0  0  0
   -2.4707    4.4955   -0.8080 N   0  0  0  0  0  0  0  0  0  0  0  0
   -1.4523    3.6818   -1.1730 C   0  0  0  0  0  0  0  0  0  0  0  0
    1.1145    3.0372   -3.8432 C   0  0  0  0  0  0  0  0  0  0  0  0
    2.2390    2.2612   -4.1726 C   0  0  0  0  0  0  0  0  0  0  0  0
    2.8164    2.2829   -5.5657 C   0  0  0  0  0  0  0  0  0  0  0  0
    2.1366    3.0940   -6.4237 F   0  0  0  0  0  0  0  0  0  0  0  0
    4.1061    2.7196   -5.5854 F   0  0  0  0  0  0  0  0  0  0  0  0
    2.8285    1.0518   -6.1458 F   0  0  0  0  0  0  0  0  0  0  0  0
    2.8266    1.4628   -3.1823 C   0  0  0  0  0  0  0  0  0  0  0  0
    3.2293   -0.6504    1.0008 N   0  0  0  0  0  0  0  0  0  0  0  0
    4.4866   -1.0535    0.6657 C   0  0  0  0  0  0  0  0  0  0  0  0
    5.1271   -0.8362   -0.4585 N   0  0  0  0  0  0  0  0  0  0  0  0
    6.3887   -1.3947   -0.3640 C   0  0  0  0  0  0  0  0  0  0  0  0
    6.6749   -2.0223    0.8310 C   0  0  0  0  0  0  0  0  0  0  0  0
    5.3092   -1.9356    1.8678 S   0  0  0  0  0  0  0  0  0  0  0  0
    3.7657    0.1014   -1.2532 H   0  0  0  0  0  0  0  0  0  0  0  0
    0.8260    2.2477   -0.5609 H   0  0  0  0  0  0  0  0  0  0  0  0
   -0.1256    5.5392   -3.5954 H   0  0  0  0  0  0  0  0  0  0  0  0
   -3.3810    6.3105   -1.2190 H   0  0  0  0  0  0  0  0  0  0  0  0
   -1.4055    2.7621   -0.5941 H   0  0  0  0  0  0  0  0  0  0  0  0
    0.6507    3.6315   -4.6309 H   0  0  0  0  0  0  0  0  0  0  0  0
    3.6983    0.8596   -3.4336 H   0  0  0  0  0  0  0  0  0  0  0  0
    2.8638   -0.9250    1.9001 H   0  0  0  0  0  0  0  0  0  0  0  0
    7.0706   -1.3111   -1.2022 H   0  0  0  0  0  0  0  0  0  0  0  0
    7.5881   -2.5142    1.1335 H   0  0  0  0  0  0  0  0  0  0  0  0
  1  2  2  0  0  0  0
  2  3  1  0  0  0  0
  2 20  1  0  0  0  0
  3  4  1  0  0  0  0
  3 26  1  0  0  0  0
  4  5  1  0  0  0  0
  4 19  2  0  0  0  0
  5  6  2  0  0  0  0
  5 27  1  0  0  0  0
  6  7  1  0  0  0  0
  6 13  1  0  0  0  0
  7  8  1  0  0  0  0
  7 12  2  0  0  0  0
  8  9  2  0  0  0  0
  8 28  1  0  0  0  0
  9 10  1  0  0  0  0
 10 11  2  0  0  0  0
 10 29  1  0  0  0  0
 11 12  1  0  0  0  0
 12 30  1  0  0  0  0
 13 14  2  0  0  0  0
 13 31  1  0  0  0  0
 14 15  1  0  0  0  0
 14 19  1  0  0  0  0
 15 16  1  0  0  0  0
 15 17  1  0  0  0  0
 15 18  1  0  0  0  0
 19 32  1  0  0  0  0
 20 21  1  0  0  0  0
 20 33  1  0  0  0  0
 21 22  2  0  0  0  0
 21 25  1  0  0  0  0
 22 23  1  0  0  0  0
 23 24  2  0  0  0  0
 23 34  1  0  0  0  0
 24 25  1  0  0  0  0
 24 35  1  0  0  0  0
M  END
$$$$
