CHEMBL3758749
 OpenBabel04072215373D

 73 77  0  0  0  0  0  0  0  0999 V2000
    2.4695   -0.0771    1.2359 C   0  0  0  0  0  0  0  0  0  0  0  0
    2.4514    0.1181   -0.1894 O   0  0  0  0  0  0  0  0  0  0  0  0
    3.1438   -0.7642   -0.9653 C   0  0  0  0  0  0  0  0  0  0  0  0
    4.2110   -1.4794   -0.4485 C   0  0  0  0  0  0  0  0  0  0  0  0
    4.8471   -2.5161   -1.1445 C   0  0  0  0  0  0  0  0  0  0  0  0
    5.8228   -3.3547   -0.5779 C   0  0  0  0  0  0  0  0  0  0  0  0
    6.1704   -3.2210    0.8017 N   0  0  0  0  0  0  0  0  0  0  0  0
    6.8185   -4.2100    1.5800 C   0  0  0  0  0  0  0  0  0  0  0  0
    7.7477   -3.8492    2.5580 C   0  0  0  0  0  0  0  0  0  0  0  0
    8.4611   -4.8303    3.2585 C   0  0  0  0  0  0  0  0  0  0  0  0
    8.2386   -6.1957    3.0462 C   0  0  0  0  0  0  0  0  0  0  0  0
    9.0073   -7.2187    3.6640 N   0  0  0  0  0  0  0  0  0  0  0  0
   10.0929   -7.0087    4.5033 C   0  0  0  0  0  0  0  0  0  0  0  0
   10.5081   -5.9295    4.9080 O   0  0  0  0  0  0  0  0  0  0  0  0
   10.8844   -8.2004    4.8993 C   0  0  0  0  0  0  0  0  0  0  0  0
   10.3165   -9.4524    5.1585 C   0  0  0  0  0  0  0  0  0  0  0  0
   11.1480  -10.5354    5.4645 C   0  0  0  0  0  0  0  0  0  0  0  0
   12.5357  -10.3706    5.5067 C   0  0  0  0  0  0  0  0  0  0  0  0
   13.0925   -9.1140    5.2822 C   0  0  0  0  0  0  0  0  0  0  0  0
   14.8012   -8.9153    5.2859 Cl  0  0  0  0  0  0  0  0  0  0  0  0
   12.2740   -8.0275    5.0038 C   0  0  0  0  0  0  0  0  0  0  0  0
    7.2307   -6.5561    2.1491 C   0  0  0  0  0  0  0  0  0  0  0  0
    6.5271   -5.5729    1.4378 C   0  0  0  0  0  0  0  0  0  0  0  0
    6.4159   -4.3087   -1.3101 N   0  0  0  0  0  0  0  0  0  0  0  0
    6.0220   -4.4289   -2.5818 C   0  0  0  0  0  0  0  0  0  0  0  0
    5.0709   -3.7129   -3.1924 N   0  0  0  0  0  0  0  0  0  0  0  0
    4.4755   -2.7626   -2.4693 C   0  0  0  0  0  0  0  0  0  0  0  0
    3.4873   -1.9614   -3.0474 C   0  0  0  0  0  0  0  0  0  0  0  0
    2.8345   -0.9403   -2.3371 C   0  0  0  0  0  0  0  0  0  0  0  0
    1.9939   -0.1730   -3.1148 O   0  0  0  0  0  0  0  0  0  0  0  0
    1.8537    1.1686   -2.6528 C   0  0  0  0  0  0  0  0  0  0  0  0
    1.5923    2.2019   -3.7483 C   0  0  0  0  0  0  0  0  0  0  0  0
    1.5439    3.5815   -3.0568 C   0  0  0  0  0  0  0  0  0  0  0  0
    1.3175    4.7166   -3.9487 N   0  0  0  0  0  0  0  0  0  0  0  0
    0.0330    4.6426   -4.6648 C   0  0  0  0  0  0  0  0  0  0  0  0
   -0.1182    5.8336   -5.6356 C   0  0  0  0  0  0  0  0  0  0  0  0
   -0.0190    7.1659   -5.0059 N   0  0  0  0  0  0  0  0  0  0  0  0
   -1.2276    7.4918   -4.2548 C   0  0  0  0  0  0  0  0  0  0  0  0
    1.1860    7.2089   -4.1499 C   0  0  0  0  0  0  0  0  0  0  0  0
    1.3666    5.9956   -3.2043 C   0  0  0  0  0  0  0  0  0  0  0  0
    2.7050    0.8758    1.7189 H   0  0  0  0  0  0  0  0  0  0  0  0
    3.1748   -0.8121    1.6310 H   0  0  0  0  0  0  0  0  0  0  0  0
    1.4818   -0.4121    1.5642 H   0  0  0  0  0  0  0  0  0  0  0  0
    4.6108   -1.2373    0.5379 H   0  0  0  0  0  0  0  0  0  0  0  0
    6.5448   -2.2924    0.9733 H   0  0  0  0  0  0  0  0  0  0  0  0
    7.9786   -2.8091    2.7640 H   0  0  0  0  0  0  0  0  0  0  0  0
    9.2236   -4.4805    3.9419 H   0  0  0  0  0  0  0  0  0  0  0  0
    8.8094   -8.1637    3.3616 H   0  0  0  0  0  0  0  0  0  0  0  0
    9.2402   -9.5973    5.1383 H   0  0  0  0  0  0  0  0  0  0  0  0
   10.7196  -11.5174    5.6537 H   0  0  0  0  0  0  0  0  0  0  0  0
   13.1792  -11.2245    5.7038 H   0  0  0  0  0  0  0  0  0  0  0  0
   12.7130   -7.0452    4.8344 H   0  0  0  0  0  0  0  0  0  0  0  0
    6.9911   -7.5989    1.9554 H   0  0  0  0  0  0  0  0  0  0  0  0
    5.7557   -5.8824    0.7339 H   0  0  0  0  0  0  0  0  0  0  0  0
    6.5303   -5.1844   -3.1764 H   0  0  0  0  0  0  0  0  0  0  0  0
    3.2399   -2.1210   -4.0948 H   0  0  0  0  0  0  0  0  0  0  0  0
    2.7801    1.4906   -2.1639 H   0  0  0  0  0  0  0  0  0  0  0  0
    1.0125    1.1966   -1.9513 H   0  0  0  0  0  0  0  0  0  0  0  0
    0.6562    1.9618   -4.2670 H   0  0  0  0  0  0  0  0  0  0  0  0
    2.3853    2.1756   -4.5070 H   0  0  0  0  0  0  0  0  0  0  0  0
    2.5179    3.7299   -2.5684 H   0  0  0  0  0  0  0  0  0  0  0  0
    0.7939    3.5642   -2.2553 H   0  0  0  0  0  0  0  0  0  0  0  0
   -0.8058    4.6158   -3.9566 H   0  0  0  0  0  0  0  0  0  0  0  0
   -0.0225    3.7305   -5.2658 H   0  0  0  0  0  0  0  0  0  0  0  0
   -1.0633    5.7408   -6.1846 H   0  0  0  0  0  0  0  0  0  0  0  0
    0.6714    5.7590   -6.3960 H   0  0  0  0  0  0  0  0  0  0  0  0
   -2.1035    7.4612   -4.9125 H   0  0  0  0  0  0  0  0  0  0  0  0
   -1.1668    8.5143   -3.8670 H   0  0  0  0  0  0  0  0  0  0  0  0
   -1.4122    6.8180   -3.4124 H   0  0  0  0  0  0  0  0  0  0  0  0
    1.2030    8.1390   -3.5678 H   0  0  0  0  0  0  0  0  0  0  0  0
    2.0629    7.2595   -4.8094 H   0  0  0  0  0  0  0  0  0  0  0  0
    0.5936    6.0202   -2.4236 H   0  0  0  0  0  0  0  0  0  0  0  0
    2.3337    6.0992   -2.6969 H   0  0  0  0  0  0  0  0  0  0  0  0
  1  2  1  0  0  0  0
  1 41  1  0  0  0  0
  1 42  1  0  0  0  0
  1 43  1  0  0  0  0
  2  3  1  0  0  0  0
  3  4  1  0  0  0  0
  3 29  2  0  0  0  0
  4  5  2  0  0  0  0
  4 44  1  0  0  0  0
  5  6  1  0  0  0  0
  5 27  1  0  0  0  0
  6  7  1  0  0  0  0
  6 24  2  0  0  0  0
  7  8  1  0  0  0  0
  7 45  1  0  0  0  0
  8  9  1  0  0  0  0
  8 23  2  0  0  0  0
  9 10  2  0  0  0  0
  9 46  1  0  0  0  0
 10 11  1  0  0  0  0
 10 47  1  0  0  0  0
 11 12  1  0  0  0  0
 11 22  2  0  0  0  0
 12 13  1  0  0  0  0
 12 48  1  0  0  0  0
 13 14  2  0  0  0  0
 13 15  1  0  0  0  0
 15 16  1  0  0  0  0
 15 21  2  0  0  0  0
 16 17  2  0  0  0  0
 16 49  1  0  0  0  0
 17 18  1  0  0  0  0
 17 50  1  0  0  0  0
 18 19  2  0  0  0  0
 18 51  1  0  0  0  0
 19 20  1  0  0  0  0
 19 21  1  0  0  0  0
 21 52  1  0  0  0  0
 22 23  1  0  0  0  0
 22 53  1  0  0  0  0
 23 54  1  0  0  0  0
 24 25  1  0  0  0  0
 25 26  2  0  0  0  0
 25 55  1  0  0  0  0
 26 27  1  0  0  0  0
 27 28  2  0  0  0  0
 28 29  1  0  0  0  0
 28 56  1  0  0  0  0
 29 30  1  0  0  0  0
 30 31  1  0  0  0  0
 31 32  1  0  0  0  0
 31 57  1  0  0  0  0
 31 58  1  0  0  0  0
 32 33  1  0  0  0  0
 32 59  1  0  0  0  0
 32 60  1  0  0  0  0
 33 34  1  0  0  0  0
 33 61  1  0  0  0  0
 33 62  1  0  0  0  0
 34 35  1  0  0  0  0
 34 40  1  0  0  0  0
 35 36  1  0  0  0  0
 35 63  1  0  0  0  0
 35 64  1  0  0  0  0
 36 37  1  0  0  0  0
 36 65  1  0  0  0  0
 36 66  1  0  0  0  0
 37 38  1  0  0  0  0
 37 39  1  0  0  0  0
 38 67  1  0  0  0  0
 38 68  1  0  0  0  0
 38 69  1  0  0  0  0
 39 40  1  0  0  0  0
 39 70  1  0  0  0  0
 39 71  1  0  0  0  0
 40 72  1  0  0  0  0
 40 73  1  0  0  0  0
M  END
$$$$
