CHEMBL448276
 OpenBabel04072215383D

 76 82  0  0  0  0  0  0  0  0999 V2000
   -1.4869   -0.3003    0.7336 O   0  0  0  0  0  0  0  0  0  0  0  0
   -0.4026   -0.6407    1.2029 C   0  0  0  0  0  0  0  0  0  0  0  0
    0.5451   -1.4101    0.5568 N   0  0  0  0  0  0  0  0  0  0  0  0
    0.4519   -1.9471   -0.7409 C   0  0  0  0  0  0  0  0  0  0  0  0
   -0.5259   -1.5448   -1.6455 C   0  0  0  0  0  0  0  0  0  0  0  0
   -0.6777   -2.2088   -2.8586 C   0  0  0  0  0  0  0  0  0  0  0  0
    0.1601   -3.2656   -3.1864 C   0  0  0  0  0  0  0  0  0  0  0  0
   -0.1200   -3.8736   -4.3817 O   0  0  0  0  0  0  0  0  0  0  0  0
   -0.0136   -5.2323   -4.5277 C   0  0  0  0  0  0  0  0  0  0  0  0
   -0.0423   -6.1704   -3.4953 C   0  0  0  0  0  0  0  0  0  0  0  0
    0.1518   -7.5047   -3.7997 C   0  0  0  0  0  0  0  0  0  0  0  0
    0.3145   -8.0043   -5.0382 N   0  0  0  0  0  0  0  0  0  0  0  0
    0.2386   -7.0990   -6.0503 C   0  0  0  0  0  0  0  0  0  0  0  0
    0.3225   -7.4121   -7.4376 C   0  0  0  0  0  0  0  0  0  0  0  0
    0.1305   -6.3225   -8.2703 C   0  0  0  0  0  0  0  0  0  0  0  0
    0.0094   -6.2998   -9.7459 C   0  0  0  0  0  0  0  0  0  0  0  0
   -0.3532   -7.4745  -10.4239 C   0  0  0  0  0  0  0  0  0  0  0  0
   -0.5774   -7.4825  -11.8049 C   0  0  0  0  0  0  0  0  0  0  0  0
   -0.4614   -6.3082  -12.5561 C   0  0  0  0  0  0  0  0  0  0  0  0
   -0.8396   -6.3044  -14.0279 C   0  0  0  0  0  0  0  0  0  0  0  0
   -2.2873   -6.4596  -14.2580 N   0  0  0  0  0  0  0  0  0  0  0  0
   -2.6012   -6.6923  -15.6772 C   0  0  0  0  0  0  0  0  0  0  0  0
   -2.4790   -5.4458  -16.5782 C   0  0  0  0  0  0  0  0  0  0  0  0
   -3.2588   -4.2834  -16.1405 N   0  0  0  0  0  0  0  0  0  0  0  0
   -3.2171   -4.0847  -14.6835 C   0  0  0  0  0  0  0  0  0  0  0  0
   -3.1134   -5.3388  -13.7767 C   0  0  0  0  0  0  0  0  0  0  0  0
   -0.0353   -5.1445  -11.9038 C   0  0  0  0  0  0  0  0  0  0  0  0
    0.1979   -5.1419  -10.5180 C   0  0  0  0  0  0  0  0  0  0  0  0
   -0.0471   -4.8939   -7.3338 S   0  0  0  0  0  0  0  0  0  0  0  0
    0.0624   -5.7368   -5.8376 C   0  0  0  0  0  0  0  0  0  0  0  0
    1.2214   -3.5742   -2.3365 C   0  0  0  0  0  0  0  0  0  0  0  0
    2.1136   -4.5209   -2.6610 F   0  0  0  0  0  0  0  0  0  0  0  0
    1.3594   -2.9389   -1.1032 C   0  0  0  0  0  0  0  0  0  0  0  0
   -0.0755   -0.3124    2.5058 N   0  0  0  0  0  0  0  0  0  0  0  0
   -0.9559    0.4656    3.3439 C   0  0  0  0  0  0  0  0  0  0  0  0
   -0.7027   -0.0877    4.7341 C   0  0  0  0  0  0  0  0  0  0  0  0
    0.6375   -0.6181    4.6396 N   0  0  0  0  0  0  0  0  0  0  0  0
    1.4046   -1.0595    5.7397 C   0  0  0  0  0  0  0  0  0  0  0  0
    2.7727   -1.3221    5.5858 C   0  0  0  0  0  0  0  0  0  0  0  0
    3.5423   -1.7823    6.6534 C   0  0  0  0  0  0  0  0  0  0  0  0
    2.9511   -1.9873    7.8963 C   0  0  0  0  0  0  0  0  0  0  0  0
    1.5951   -1.7076    8.0668 C   0  0  0  0  0  0  0  0  0  0  0  0
    0.8294   -1.2351    7.0018 C   0  0  0  0  0  0  0  0  0  0  0  0
    0.9425   -0.8833    3.2904 C   0  0  0  0  0  0  0  0  0  0  0  0
    1.8871   -1.5122    2.8316 O   0  0  0  0  0  0  0  0  0  0  0  0
    1.3220   -1.7271    1.1362 H   0  0  0  0  0  0  0  0  0  0  0  0
   -1.1946   -0.7157   -1.4357 H   0  0  0  0  0  0  0  0  0  0  0  0
   -1.4617   -1.8918   -3.5449 H   0  0  0  0  0  0  0  0  0  0  0  0
   -0.1863   -5.8839   -2.4598 H   0  0  0  0  0  0  0  0  0  0  0  0
    0.1880   -8.2459   -3.0038 H   0  0  0  0  0  0  0  0  0  0  0  0
    0.4760   -8.4222   -7.7896 H   0  0  0  0  0  0  0  0  0  0  0  0
   -0.5082   -8.4036   -9.8815 H   0  0  0  0  0  0  0  0  0  0  0  0
   -0.8780   -8.4100  -12.2872 H   0  0  0  0  0  0  0  0  0  0  0  0
   -0.3234   -7.1702  -14.4685 H   0  0  0  0  0  0  0  0  0  0  0  0
   -0.4262   -5.4212  -14.5284 H   0  0  0  0  0  0  0  0  0  0  0  0
   -3.6336   -7.0634  -15.7363 H   0  0  0  0  0  0  0  0  0  0  0  0
   -1.9793   -7.5009  -16.0793 H   0  0  0  0  0  0  0  0  0  0  0  0
   -2.8170   -5.7132  -17.5870 H   0  0  0  0  0  0  0  0  0  0  0  0
   -1.4272   -5.1564  -16.6779 H   0  0  0  0  0  0  0  0  0  0  0  0
   -4.2271   -4.3999  -16.4338 H   0  0  0  0  0  0  0  0  0  0  0  0
   -4.1373   -3.5523  -14.4064 H   0  0  0  0  0  0  0  0  0  0  0  0
   -2.3928   -3.4023  -14.4510 H   0  0  0  0  0  0  0  0  0  0  0  0
   -4.1296   -5.7384  -13.6582 H   0  0  0  0  0  0  0  0  0  0  0  0
   -2.8239   -5.0262  -12.7669 H   0  0  0  0  0  0  0  0  0  0  0  0
    0.0947   -4.2199  -12.4622 H   0  0  0  0  0  0  0  0  0  0  0  0
    0.5109   -4.2079  -10.0560 H   0  0  0  0  0  0  0  0  0  0  0  0
    2.1642   -3.2579   -0.4395 H   0  0  0  0  0  0  0  0  0  0  0  0
   -2.0046    0.4123    3.0378 H   0  0  0  0  0  0  0  0  0  0  0  0
   -0.6234    1.5084    3.2723 H   0  0  0  0  0  0  0  0  0  0  0  0
   -1.3916   -0.9153    4.9410 H   0  0  0  0  0  0  0  0  0  0  0  0
   -0.7919    0.6829    5.5052 H   0  0  0  0  0  0  0  0  0  0  0  0
    3.2762   -1.1536    4.6392 H   0  0  0  0  0  0  0  0  0  0  0  0
    4.6015   -1.9787    6.5019 H   0  0  0  0  0  0  0  0  0  0  0  0
    3.5479   -2.3577    8.7195 H   0  0  0  0  0  0  0  0  0  0  0  0
    1.1366   -1.8730    9.0375 H   0  0  0  0  0  0  0  0  0  0  0  0
   -0.2282   -1.0528    7.1747 H   0  0  0  0  0  0  0  0  0  0  0  0
  1  2  2  0  0  0  0
  2  3  1  0  0  0  0
  2 34  1  0  0  0  0
  3  4  1  0  0  0  0
  3 46  1  0  0  0  0
  4  5  1  0  0  0  0
  4 33  2  0  0  0  0
  5  6  2  0  0  0  0
  5 47  1  0  0  0  0
  6  7  1  0  0  0  0
  6 48  1  0  0  0  0
  7  8  1  0  0  0  0
  7 31  2  0  0  0  0
  8  9  1  0  0  0  0
  9 10  1  0  0  0  0
  9 30  2  0  0  0  0
 10 11  2  0  0  0  0
 10 49  1  0  0  0  0
 11 12  1  0  0  0  0
 11 50  1  0  0  0  0
 12 13  2  0  0  0  0
 13 14  1  0  0  0  0
 13 30  1  0  0  0  0
 14 15  2  0  0  0  0
 14 51  1  0  0  0  0
 15 16  1  0  0  0  0
 15 29  1  0  0  0  0
 16 17  1  0  0  0  0
 16 28  2  0  0  0  0
 17 18  2  0  0  0  0
 17 52  1  0  0  0  0
 18 19  1  0  0  0  0
 18 53  1  0  0  0  0
 19 20  1  0  0  0  0
 19 27  2  0  0  0  0
 20 21  1  0  0  0  0
 20 54  1  0  0  0  0
 20 55  1  0  0  0  0
 21 22  1  0  0  0  0
 21 26  1  0  0  0  0
 22 23  1  0  0  0  0
 22 56  1  0  0  0  0
 22 57  1  0  0  0  0
 23 24  1  0  0  0  0
 23 58  1  0  0  0  0
 23 59  1  0  0  0  0
 24 25  1  0  0  0  0
 24 60  1  0  0  0  0
 25 26  1  0  0  0  0
 25 61  1  0  0  0  0
 25 62  1  0  0  0  0
 26 63  1  0  0  0  0
 26 64  1  0  0  0  0
 27 28  1  0  0  0  0
 27 65  1  0  0  0  0
 28 66  1  0  0  0  0
 29 30  1  0  0  0  0
 31 32  1  0  0  0  0
 31 33  1  0  0  0  0
 33 67  1  0  0  0  0
 34 35  1  0  0  0  0
 34 44  1  0  0  0  0
 35 36  1  0  0  0  0
 35 68  1  0  0  0  0
 35 69  1  0  0  0  0
 36 37  1  0  0  0  0
 36 70  1  0  0  0  0
 36 71  1  0  0  0  0
 37 38  1  0  0  0  0
 37 44  1  0  0  0  0
 38 39  1  0  0  0  0
 38 43  2  0  0  0  0
 39 40  2  0  0  0  0
 39 72  1  0  0  0  0
 40 41  1  0  0  0  0
 40 73  1  0  0  0  0
 41 42  2  0  0  0  0
 41 74  1  0  0  0  0
 42 43  1  0  0  0  0
 42 75  1  0  0  0  0
 43 76  1  0  0  0  0
 44 45  2  0  0  0  0
M  END
$$$$
