CHEMBL184918
 OpenBabel04072215363D

 49 52  0  0  0  0  0  0  0  0999 V2000
    2.3556    0.1103    0.8247 C   0  0  0  0  0  0  0  0  0  0  0  0
    0.9072   -0.0409    1.1856 C   0  0  0  0  0  0  0  0  0  0  0  0
    0.2636    0.9230    1.9610 C   0  0  0  0  0  0  0  0  0  0  0  0
   -1.0770    0.7636    2.2845 C   0  0  0  0  0  0  0  0  0  0  0  0
   -1.7792   -0.3594    1.8353 C   0  0  0  0  0  0  0  0  0  0  0  0
   -1.1761   -1.3414    1.0308 C   0  0  0  0  0  0  0  0  0  0  0  0
   -1.9245   -2.4879    0.5593 N   0  0  0  0  0  0  0  0  0  0  0  0
   -1.2075   -3.6831    0.1172 C   0  0  0  0  0  0  0  0  0  0  0  0
   -3.3295   -2.4105    0.4064 C   0  0  0  0  0  0  0  0  0  0  0  0
   -3.9780   -1.3688    0.4918 O   0  0  0  0  0  0  0  0  0  0  0  0
   -3.9453   -3.6336    0.1553 N   0  0  0  0  0  0  0  0  0  0  0  0
   -5.3418   -3.7371   -0.0182 C   0  0  0  0  0  0  0  0  0  0  0  0
   -6.0728   -2.8205   -0.7712 C   0  0  0  0  0  0  0  0  0  0  0  0
   -7.4702   -2.8998   -0.8168 C   0  0  0  0  0  0  0  0  0  0  0  0
   -8.1725   -3.9075   -0.1311 C   0  0  0  0  0  0  0  0  0  0  0  0
   -9.6537   -3.9638   -0.1449 C   0  0  0  0  0  0  0  0  0  0  0  0
  -10.3766   -3.6359   -1.3175 C   0  0  0  0  0  0  0  0  0  0  0  0
  -11.7847   -3.6777   -1.3825 C   0  0  0  0  0  0  0  0  0  0  0  0
  -12.5296   -4.0594   -0.2736 C   0  0  0  0  0  0  0  0  0  0  0  0
  -11.8302   -4.3667    0.8746 C   0  0  0  0  0  0  0  0  0  0  0  0
  -10.4293   -4.3203    0.9633 C   0  0  0  0  0  0  0  0  0  0  0  0
  -10.0306   -4.6714    2.3641 C   0  0  0  0  0  0  0  0  0  0  0  0
  -11.2936   -4.9086    3.0183 N   0  0  0  0  0  0  0  0  0  0  0  0
  -12.3772   -4.7736    2.1791 C   0  0  0  0  0  0  0  0  0  0  0  0
  -13.5464   -4.9694    2.4482 O   0  0  0  0  0  0  0  0  0  0  0  0
   -7.4007   -4.8623    0.5528 C   0  0  0  0  0  0  0  0  0  0  0  0
   -6.0060   -4.7820    0.6135 C   0  0  0  0  0  0  0  0  0  0  0  0
    0.1826   -1.1578    0.7243 C   0  0  0  0  0  0  0  0  0  0  0  0
    2.7885    1.0113    1.2721 H   0  0  0  0  0  0  0  0  0  0  0  0
    2.4675    0.1849   -0.2613 H   0  0  0  0  0  0  0  0  0  0  0  0
    2.9251   -0.7507    1.1893 H   0  0  0  0  0  0  0  0  0  0  0  0
    0.7966    1.8018    2.3146 H   0  0  0  0  0  0  0  0  0  0  0  0
   -1.5871    1.5104    2.8875 H   0  0  0  0  0  0  0  0  0  0  0  0
   -2.8150   -0.4423    2.1539 H   0  0  0  0  0  0  0  0  0  0  0  0
   -0.1248   -3.6270    0.2176 H   0  0  0  0  0  0  0  0  0  0  0  0
   -1.4639   -3.8889   -0.9272 H   0  0  0  0  0  0  0  0  0  0  0  0
   -1.5208   -4.5337    0.7315 H   0  0  0  0  0  0  0  0  0  0  0  0
   -3.5130   -4.4208    0.6109 H   0  0  0  0  0  0  0  0  0  0  0  0
   -5.5701   -2.0251   -1.3175 H   0  0  0  0  0  0  0  0  0  0  0  0
   -7.9994   -2.1376   -1.3856 H   0  0  0  0  0  0  0  0  0  0  0  0
   -9.8433   -3.3419   -2.2214 H   0  0  0  0  0  0  0  0  0  0  0  0
  -12.2888   -3.4094   -2.3082 H   0  0  0  0  0  0  0  0  0  0  0  0
  -13.6126   -4.1065   -0.2977 H   0  0  0  0  0  0  0  0  0  0  0  0
   -9.5148   -3.8533    2.8744 H   0  0  0  0  0  0  0  0  0  0  0  0
   -9.4625   -5.6013    2.4300 H   0  0  0  0  0  0  0  0  0  0  0  0
  -11.4076   -5.2523    3.9608 H   0  0  0  0  0  0  0  0  0  0  0  0
   -7.8696   -5.6991    1.0583 H   0  0  0  0  0  0  0  0  0  0  0  0
   -5.4641   -5.5118    1.2079 H   0  0  0  0  0  0  0  0  0  0  0  0
    0.7150   -1.8481    0.0789 H   0  0  0  0  0  0  0  0  0  0  0  0
  1  2  1  0  0  0  0
  1 29  1  0  0  0  0
  1 30  1  0  0  0  0
  1 31  1  0  0  0  0
  2  3  1  0  0  0  0
  2 28  2  0  0  0  0
  3  4  2  0  0  0  0
  3 32  1  0  0  0  0
  4  5  1  0  0  0  0
  4 33  1  0  0  0  0
  5  6  2  0  0  0  0
  5 34  1  0  0  0  0
  6  7  1  0  0  0  0
  6 28  1  0  0  0  0
  7  8  1  0  0  0  0
  7  9  1  0  0  0  0
  8 35  1  0  0  0  0
  8 36  1  0  0  0  0
  8 37  1  0  0  0  0
  9 10  2  0  0  0  0
  9 11  1  0  0  0  0
 11 12  1  0  0  0  0
 11 38  1  0  0  0  0
 12 13  1  0  0  0  0
 12 27  2  0  0  0  0
 13 14  2  0  0  0  0
 13 39  1  0  0  0  0
 14 15  1  0  0  0  0
 14 40  1  0  0  0  0
 15 16  1  0  0  0  0
 15 26  2  0  0  0  0
 16 17  1  0  0  0  0
 16 21  2  0  0  0  0
 17 18  2  0  0  0  0
 17 41  1  0  0  0  0
 18 19  1  0  0  0  0
 18 42  1  0  0  0  0
 19 20  2  0  0  0  0
 19 43  1  0  0  0  0
 20 21  1  0  0  0  0
 20 24  1  0  0  0  0
 21 22  1  0  0  0  0
 22 23  1  0  0  0  0
 22 44  1  0  0  0  0
 22 45  1  0  0  0  0
 23 24  1  0  0  0  0
 23 46  1  0  0  0  0
 24 25  2  0  0  0  0
 26 27  1  0  0  0  0
 26 47  1  0  0  0  0
 27 48  1  0  0  0  0
 28 49  1  0  0  0  0
M  END
$$$$
