CHEMBL546797
 OpenBabel04072215383D

 32 35  0  0  0  0  0  0  0  0999 V2000
    1.0780    0.0197   -0.0121 O   0  0  0  0  0  0  0  0  0  0  0  0
    2.4777    0.0384    0.0599 N   0  0  0  0  0  0  0  0  0  0  0  0
    3.0884   -0.6732   -0.8494 C   0  0  0  0  0  0  0  0  0  0  0  0
    2.4391   -1.4598   -1.8973 C   0  0  0  0  0  0  0  0  0  0  0  0
    3.0807   -2.1573   -2.8281 N   0  0  0  0  0  0  0  0  0  0  0  0
    2.1114   -2.7280   -3.6144 C   0  0  0  0  0  0  0  0  0  0  0  0
    2.2439   -3.5510   -4.7411 C   0  0  0  0  0  0  0  0  0  0  0  0
    1.0821   -4.0047   -5.3766 C   0  0  0  0  0  0  0  0  0  0  0  0
   -0.1813   -3.6484   -4.8972 C   0  0  0  0  0  0  0  0  0  0  0  0
   -0.3309   -2.8292   -3.7714 C   0  0  0  0  0  0  0  0  0  0  0  0
    0.8446   -2.3895   -3.1601 C   0  0  0  0  0  0  0  0  0  0  0  0
    1.0807   -1.5932   -2.0733 N   0  0  0  0  0  0  0  0  0  0  0  0
    4.5486   -0.7163   -0.8478 C   0  0  0  0  0  0  0  0  0  0  0  0
    5.3204   -0.0559    0.0042 N   0  0  0  0  0  0  0  0  0  0  0  0
    6.6150   -0.3823   -0.3246 C   0  0  0  0  0  0  0  0  0  0  0  0
    7.8232    0.0299    0.2553 C   0  0  0  0  0  0  0  0  0  0  0  0
    9.0245   -0.4634   -0.2724 C   0  0  0  0  0  0  0  0  0  0  0  0
    9.0229   -1.3472   -1.3551 C   0  0  0  0  0  0  0  0  0  0  0  0
    7.8274   -1.7669   -1.9480 C   0  0  0  0  0  0  0  0  0  0  0  0
    6.6487   -1.2592   -1.4003 C   0  0  0  0  0  0  0  0  0  0  0  0
    5.3332   -1.4468   -1.7151 N   0  0  0  0  0  0  0  0  0  0  0  0
    0.8361    0.5982    0.7394 H   0  0  0  0  0  0  0  0  0  0  0  0
    3.2265   -3.8234   -5.1095 H   0  0  0  0  0  0  0  0  0  0  0  0
    1.1669   -4.6410   -6.2543 H   0  0  0  0  0  0  0  0  0  0  0  0
   -1.0685   -4.0143   -5.4108 H   0  0  0  0  0  0  0  0  0  0  0  0
   -1.3116   -2.5534   -3.4009 H   0  0  0  0  0  0  0  0  0  0  0  0
    0.3950   -1.1493   -1.4772 H   0  0  0  0  0  0  0  0  0  0  0  0
    7.8168    0.7143    1.0959 H   0  0  0  0  0  0  0  0  0  0  0  0
    9.9688   -0.1534    0.1693 H   0  0  0  0  0  0  0  0  0  0  0  0
    9.9691   -1.7168   -1.7453 H   0  0  0  0  0  0  0  0  0  0  0  0
    7.8223   -2.4527   -2.7880 H   0  0  0  0  0  0  0  0  0  0  0  0
    4.9565   -2.0264   -2.4569 H   0  0  0  0  0  0  0  0  0  0  0  0
  1  2  1  0  0  0  0
  1 22  1  0  0  0  0
  2  3  2  0  0  0  0
  3  4  1  0  0  0  0
  3 13  1  0  0  0  0
  4  5  2  0  0  0  0
  4 12  1  0  0  0  0
  5  6  1  0  0  0  0
  6  7  1  0  0  0  0
  6 11  2  0  0  0  0
  7  8  2  0  0  0  0
  7 23  1  0  0  0  0
  8  9  1  0  0  0  0
  8 24  1  0  0  0  0
  9 10  2  0  0  0  0
  9 25  1  0  0  0  0
 10 11  1  0  0  0  0
 10 26  1  0  0  0  0
 11 12  1  0  0  0  0
 12 27  1  0  0  0  0
 13 14  2  0  0  0  0
 13 21  1  0  0  0  0
 14 15  1  0  0  0  0
 15 16  1  0  0  0  0
 15 20  2  0  0  0  0
 16 17  2  0  0  0  0
 16 28  1  0  0  0  0
 17 18  1  0  0  0  0
 17 29  1  0  0  0  0
 18 19  2  0  0  0  0
 18 30  1  0  0  0  0
 19 20  1  0  0  0  0
 19 31  1  0  0  0  0
 20 21  1  0  0  0  0
 21 32  1  0  0  0  0
M  END
$$$$
