CHEMBL3288508
 OpenBabel04072215363D

 50 54  0  0  0  0  0  0  0  0999 V2000
   -1.3303   -0.9734   -5.1621 C   0  0  0  0  0  0  0  0  0  0  0  0
   -1.2994   -0.6742   -3.6916 C   0  0  0  0  0  0  0  0  0  0  0  0
   -0.7793   -1.6084   -2.7934 C   0  0  0  0  0  0  0  0  0  0  0  0
   -0.7300   -1.3105   -1.4358 C   0  0  0  0  0  0  0  0  0  0  0  0
   -1.2152   -0.0916   -0.9616 C   0  0  0  0  0  0  0  0  0  0  0  0
   -1.0489    0.1357    0.3452 F   0  0  0  0  0  0  0  0  0  0  0  0
   -1.7932    0.8462   -1.8267 C   0  0  0  0  0  0  0  0  0  0  0  0
   -2.3948    2.0755   -1.4472 N   0  0  0  0  0  0  0  0  0  0  0  0
   -2.7285    2.4910   -0.1677 C   0  0  0  0  0  0  0  0  0  0  0  0
   -2.5202    1.8968    0.8797 O   0  0  0  0  0  0  0  0  0  0  0  0
   -3.4624    3.7936   -0.0999 C   0  0  0  0  0  0  0  0  0  0  0  0
   -2.9836    4.8703   -0.8631 C   0  0  0  0  0  0  0  0  0  0  0  0
   -3.6271    6.1022   -0.8092 C   0  0  0  0  0  0  0  0  0  0  0  0
   -4.7189    6.2792    0.0406 C   0  0  0  0  0  0  0  0  0  0  0  0
   -5.2048    5.2261    0.8348 C   0  0  0  0  0  0  0  0  0  0  0  0
   -6.2932    5.4333    1.7135 C   0  0  0  0  0  0  0  0  0  0  0  0
   -6.8685    4.3969    2.4753 C   0  0  0  0  0  0  0  0  0  0  0  0
   -8.0121    4.6358    3.3884 C   0  0  0  0  0  0  0  0  0  0  0  0
   -9.0412    5.5444    3.0199 C   0  0  0  0  0  0  0  0  0  0  0  0
  -10.1523    5.7941    3.8241 C   0  0  0  0  0  0  0  0  0  0  0  0
  -10.3067    5.1386    5.0378 C   0  0  0  0  0  0  0  0  0  0  0  0
   -9.3029    4.2405    5.4124 C   0  0  0  0  0  0  0  0  0  0  0  0
   -9.2070    3.4552    6.5270 N   0  0  0  0  0  0  0  0  0  0  0  0
   -8.1009    2.7126    6.5838 N   0  0  0  0  0  0  0  0  0  0  0  0
   -7.4479    3.0285    5.4705 C   0  0  0  0  0  0  0  0  0  0  0  0
   -6.2547    2.4729    5.2176 N   0  0  0  0  0  0  0  0  0  0  0  0
   -8.1600    3.9735    4.6501 C   0  0  0  0  0  0  0  0  0  0  0  0
   -6.3311    3.1242    2.2842 C   0  0  0  0  0  0  0  0  0  0  0  0
   -5.1977    2.9135    1.4915 C   0  0  0  0  0  0  0  0  0  0  0  0
   -4.5995    3.9520    0.7474 C   0  0  0  0  0  0  0  0  0  0  0  0
   -1.8023    0.5458   -3.2018 C   0  0  0  0  0  0  0  0  0  0  0  0
   -0.8929   -1.9541   -5.3792 H   0  0  0  0  0  0  0  0  0  0  0  0
   -0.7538   -0.2236   -5.7129 H   0  0  0  0  0  0  0  0  0  0  0  0
   -2.3622   -0.9796   -5.5262 H   0  0  0  0  0  0  0  0  0  0  0  0
   -0.4001   -2.5667   -3.1406 H   0  0  0  0  0  0  0  0  0  0  0  0
   -0.3095   -2.0187   -0.7281 H   0  0  0  0  0  0  0  0  0  0  0  0
   -2.7388    2.6458   -2.2084 H   0  0  0  0  0  0  0  0  0  0  0  0
   -2.0978    4.7650   -1.4843 H   0  0  0  0  0  0  0  0  0  0  0  0
   -3.2702    6.9329   -1.4134 H   0  0  0  0  0  0  0  0  0  0  0  0
   -5.1991    7.2562    0.0734 H   0  0  0  0  0  0  0  0  0  0  0  0
   -6.6997    6.4405    1.7999 H   0  0  0  0  0  0  0  0  0  0  0  0
   -8.9884    6.0620    2.0635 H   0  0  0  0  0  0  0  0  0  0  0  0
  -10.9106    6.4994    3.4917 H   0  0  0  0  0  0  0  0  0  0  0  0
  -11.1746    5.3145    5.6635 H   0  0  0  0  0  0  0  0  0  0  0  0
   -9.8708    3.3809    7.2887 H   0  0  0  0  0  0  0  0  0  0  0  0
   -5.8538    1.9124    5.9609 H   0  0  0  0  0  0  0  0  0  0  0  0
   -5.5614    2.9624    4.6641 H   0  0  0  0  0  0  0  0  0  0  0  0
   -6.7755    2.2580    2.7708 H   0  0  0  0  0  0  0  0  0  0  0  0
   -4.7963    1.9018    1.4655 H   0  0  0  0  0  0  0  0  0  0  0  0
   -2.2202    1.2559   -3.9128 H   0  0  0  0  0  0  0  0  0  0  0  0
  1  2  1  0  0  0  0
  1 32  1  0  0  0  0
  1 33  1  0  0  0  0
  1 34  1  0  0  0  0
  2  3  1  0  0  0  0
  2 31  2  0  0  0  0
  3  4  2  0  0  0  0
  3 35  1  0  0  0  0
  4  5  1  0  0  0  0
  4 36  1  0  0  0  0
  5  6  1  0  0  0  0
  5  7  2  0  0  0  0
  7  8  1  0  0  0  0
  7 31  1  0  0  0  0
  8  9  1  0  0  0  0
  8 37  1  0  0  0  0
  9 10  2  0  0  0  0
  9 11  1  0  0  0  0
 11 12  1  0  0  0  0
 11 30  2  0  0  0  0
 12 13  2  0  0  0  0
 12 38  1  0  0  0  0
 13 14  1  0  0  0  0
 13 39  1  0  0  0  0
 14 15  2  0  0  0  0
 14 40  1  0  0  0  0
 15 16  1  0  0  0  0
 15 30  1  0  0  0  0
 16 17  2  0  0  0  0
 16 41  1  0  0  0  0
 17 18  1  0  0  0  0
 17 28  1  0  0  0  0
 18 19  1  0  0  0  0
 18 27  2  0  0  0  0
 19 20  2  0  0  0  0
 19 42  1  0  0  0  0
 20 21  1  0  0  0  0
 20 43  1  0  0  0  0
 21 22  2  0  0  0  0
 21 44  1  0  0  0  0
 22 23  1  0  0  0  0
 22 27  1  0  0  0  0
 23 24  1  0  0  0  0
 23 45  1  0  0  0  0
 24 25  2  0  0  0  0
 25 26  1  0  0  0  0
 25 27  1  0  0  0  0
 26 46  1  0  0  0  0
 26 47  1  0  0  0  0
 28 29  2  0  0  0  0
 28 48  1  0  0  0  0
 29 30  1  0  0  0  0
 29 49  1  0  0  0  0
 31 50  1  0  0  0  0
M  END
$$$$
