CHEMBL3775164
 OpenBabel04072215373D

 37 39  0  0  0  0  0  0  0  0999 V2000
    2.6168    1.6711    0.0564 C   0  0  0  0  0  0  0  0  0  0  0  0
    2.4434    0.2473    0.0271 O   0  0  0  0  0  0  0  0  0  0  0  0
    3.0229   -0.3483    1.1191 C   0  0  0  0  0  0  0  0  0  0  0  0
    4.1210    0.2696    1.7515 C   0  0  0  0  0  0  0  0  0  0  0  0
    4.7193   -0.1876    2.9082 C   0  0  0  0  0  0  0  0  0  0  0  0
    5.7155    0.4935    3.4453 N   0  0  0  0  0  0  0  0  0  0  0  0
    6.2475    0.0142    4.5761 C   0  0  0  0  0  0  0  0  0  0  0  0
    5.8949   -1.1247    5.1815 N   0  0  0  0  0  0  0  0  0  0  0  0
    4.9137   -1.8325    4.6219 C   0  0  0  0  0  0  0  0  0  0  0  0
    4.5982   -3.1055    5.1830 N   0  0  0  0  0  0  0  0  0  0  0  0
    4.9066   -3.5144    6.5180 C   0  0  0  0  0  0  0  0  0  0  0  0
    4.7441   -2.6036    7.5728 C   0  0  0  0  0  0  0  0  0  0  0  0
    5.2267   -2.8790    8.8546 C   0  0  0  0  0  0  0  0  0  0  0  0
    5.8338   -4.1053    9.1188 C   0  0  0  0  0  0  0  0  0  0  0  0
    5.9104   -5.0679    8.1108 C   0  0  0  0  0  0  0  0  0  0  0  0
    6.5067   -6.2718    8.3819 O   0  0  0  0  0  0  0  0  0  0  0  0
    5.4410   -4.7846    6.8117 C   0  0  0  0  0  0  0  0  0  0  0  0
    5.6488   -6.0812    5.4313 Br  0  0  0  0  0  0  0  0  0  0  0  0
    4.2083   -1.3738    3.4808 C   0  0  0  0  0  0  0  0  0  0  0  0
    3.0664   -1.9551    2.8802 C   0  0  0  0  0  0  0  0  0  0  0  0
    2.5066   -1.5265    1.6686 C   0  0  0  0  0  0  0  0  0  0  0  0
    1.4947   -2.3329    1.2648 O   0  0  0  0  0  0  0  0  0  0  0  0
    1.1931   -2.4903   -0.1100 C   0  0  0  0  0  0  0  0  0  0  0  0
    1.7757    2.1266   -0.4672 H   0  0  0  0  0  0  0  0  0  0  0  0
    3.5501    1.9537   -0.4503 H   0  0  0  0  0  0  0  0  0  0  0  0
    2.6172    2.0856    1.0732 H   0  0  0  0  0  0  0  0  0  0  0  0
    4.5289    1.1879    1.3247 H   0  0  0  0  0  0  0  0  0  0  0  0
    7.0323    0.5792    5.0469 H   0  0  0  0  0  0  0  0  0  0  0  0
    4.7391   -3.8399    4.4993 H   0  0  0  0  0  0  0  0  0  0  0  0
    4.3149   -1.6220    7.3752 H   0  0  0  0  0  0  0  0  0  0  0  0
    5.1893   -2.1101    9.6228 H   0  0  0  0  0  0  0  0  0  0  0  0
    6.2618   -4.2793   10.1005 H   0  0  0  0  0  0  0  0  0  0  0  0
    6.7774   -6.2924    9.3137 H   0  0  0  0  0  0  0  0  0  0  0  0
    2.5445   -2.7684    3.3925 H   0  0  0  0  0  0  0  0  0  0  0  0
    0.8789   -3.5308   -0.2669 H   0  0  0  0  0  0  0  0  0  0  0  0
    2.0362   -2.3008   -0.7842 H   0  0  0  0  0  0  0  0  0  0  0  0
    0.3335   -1.8609   -0.3582 H   0  0  0  0  0  0  0  0  0  0  0  0
  1  2  1  0  0  0  0
  1 24  1  0  0  0  0
  1 25  1  0  0  0  0
  1 26  1  0  0  0  0
  2  3  1  0  0  0  0
  3  4  1  0  0  0  0
  3 21  2  0  0  0  0
  4  5  2  0  0  0  0
  4 27  1  0  0  0  0
  5  6  1  0  0  0  0
  5 19  1  0  0  0  0
  6  7  2  0  0  0  0
  7  8  1  0  0  0  0
  7 28  1  0  0  0  0
  8  9  2  0  0  0  0
  9 10  1  0  0  0  0
  9 19  1  0  0  0  0
 10 11  1  0  0  0  0
 10 29  1  0  0  0  0
 11 12  1  0  0  0  0
 11 17  2  0  0  0  0
 12 13  2  0  0  0  0
 12 30  1  0  0  0  0
 13 14  1  0  0  0  0
 13 31  1  0  0  0  0
 14 15  2  0  0  0  0
 14 32  1  0  0  0  0
 15 16  1  0  0  0  0
 15 17  1  0  0  0  0
 16 33  1  0  0  0  0
 17 18  1  0  0  0  0
 19 20  2  0  0  0  0
 20 21  1  0  0  0  0
 20 34  1  0  0  0  0
 21 22  1  0  0  0  0
 22 23  1  0  0  0  0
 23 35  1  0  0  0  0
 23 36  1  0  0  0  0
 23 37  1  0  0  0  0
M  END
$$$$
