CHEMBL1290177
 OpenBabel04072215363D

 35 38  0  0  0  0  0  0  0  0999 V2000
   -2.0390   -0.1128   -1.0137 Cl  0  0  0  0  0  0  0  0  0  0  0  0
   -0.3254   -0.0377   -0.8778 C   0  0  0  0  0  0  0  0  0  0  0  0
    0.3923    0.8714   -1.6508 C   0  0  0  0  0  0  0  0  0  0  0  0
    1.7852    0.9219   -1.5466 C   0  0  0  0  0  0  0  0  0  0  0  0
    2.4691    0.0637   -0.6689 C   0  0  0  0  0  0  0  0  0  0  0  0
    3.9796    0.0843   -0.5970 C   0  0  0  0  0  0  0  0  0  0  0  0
    4.4406    1.3838   -0.1339 N   0  0  0  0  0  0  0  0  0  0  0  0
    5.8042    1.6384    0.0310 C   0  0  0  0  0  0  0  0  0  0  0  0
    6.7826    1.0007   -0.7511 C   0  0  0  0  0  0  0  0  0  0  0  0
    8.1282    1.3060   -0.5932 C   0  0  0  0  0  0  0  0  0  0  0  0
    8.6273    2.2101    0.2644 N   0  0  0  0  0  0  0  0  0  0  0  0
    7.6766    2.8279    0.9865 C   0  0  0  0  0  0  0  0  0  0  0  0
    7.9832    3.7959    1.8893 O   0  0  0  0  0  0  0  0  0  0  0  0
    6.8190    4.2129    2.4434 C   0  0  0  0  0  0  0  0  0  0  0  0
    6.7143    5.2051    3.4169 C   0  0  0  0  0  0  0  0  0  0  0  0
    5.4301    5.4934    3.8835 C   0  0  0  0  0  0  0  0  0  0  0  0
    4.3174    4.8151    3.3847 C   0  0  0  0  0  0  0  0  0  0  0  0
    4.4539    3.8285    2.3957 C   0  0  0  0  0  0  0  0  0  0  0  0
    5.7400    3.5150    1.9086 C   0  0  0  0  0  0  0  0  0  0  0  0
    6.2957    2.6108    0.9417 C   0  0  0  0  0  0  0  0  0  0  0  0
    1.7290   -0.8400    0.1075 C   0  0  0  0  0  0  0  0  0  0  0  0
    0.3365   -0.8916    0.0020 C   0  0  0  0  0  0  0  0  0  0  0  0
   -0.1224    1.5366   -2.3391 H   0  0  0  0  0  0  0  0  0  0  0  0
    2.3417    1.6313   -2.1574 H   0  0  0  0  0  0  0  0  0  0  0  0
    4.3572   -0.1386   -1.6019 H   0  0  0  0  0  0  0  0  0  0  0  0
    4.3361   -0.7021    0.0786 H   0  0  0  0  0  0  0  0  0  0  0  0
    3.8566    1.7945    0.5863 H   0  0  0  0  0  0  0  0  0  0  0  0
    6.5161    0.2645   -1.5005 H   0  0  0  0  0  0  0  0  0  0  0  0
    8.8755    0.7990   -1.1997 H   0  0  0  0  0  0  0  0  0  0  0  0
    7.5913    5.7215    3.7892 H   0  0  0  0  0  0  0  0  0  0  0  0
    5.2979    6.2581    4.6460 H   0  0  0  0  0  0  0  0  0  0  0  0
    3.3273    5.0558    3.7664 H   0  0  0  0  0  0  0  0  0  0  0  0
    3.5683    3.3246    2.0247 H   0  0  0  0  0  0  0  0  0  0  0  0
    2.2318   -1.5192    0.7930 H   0  0  0  0  0  0  0  0  0  0  0  0
   -0.2237   -1.6038    0.6024 H   0  0  0  0  0  0  0  0  0  0  0  0
  1  2  1  0  0  0  0
  2  3  1  0  0  0  0
  2 22  2  0  0  0  0
  3  4  2  0  0  0  0
  3 23  1  0  0  0  0
  4  5  1  0  0  0  0
  4 24  1  0  0  0  0
  5  6  1  0  0  0  0
  5 21  2  0  0  0  0
  6  7  1  0  0  0  0
  6 25  1  0  0  0  0
  6 26  1  0  0  0  0
  7  8  1  0  0  0  0
  7 27  1  0  0  0  0
  8  9  1  0  0  0  0
  8 20  2  0  0  0  0
  9 10  2  0  0  0  0
  9 28  1  0  0  0  0
 10 11  1  0  0  0  0
 10 29  1  0  0  0  0
 11 12  2  0  0  0  0
 12 13  1  0  0  0  0
 12 20  1  0  0  0  0
 13 14  1  0  0  0  0
 14 15  1  0  0  0  0
 14 19  2  0  0  0  0
 15 16  2  0  0  0  0
 15 30  1  0  0  0  0
 16 17  1  0  0  0  0
 16 31  1  0  0  0  0
 17 18  2  0  0  0  0
 17 32  1  0  0  0  0
 18 19  1  0  0  0  0
 18 33  1  0  0  0  0
 19 20  1  0  0  0  0
 21 22  1  0  0  0  0
 21 34  1  0  0  0  0
 22 35  1  0  0  0  0
M  END
$$$$
