CHEMBL4226090
 OpenBabel04072215383D

 48 50  0  0  0  0  0  0  0  0999 V2000
    1.9346    1.4808    2.2944 C   0  0  0  0  0  0  0  0  0  0  0  0
    3.1359    1.4005    1.4991 N   0  0  0  0  0  0  0  0  0  0  0  0
    4.3781    1.4507    2.0991 C   0  0  0  0  0  0  0  0  0  0  0  0
    4.5409    1.6090    3.3063 O   0  0  0  0  0  0  0  0  0  0  0  0
    5.5533    1.2541    1.2133 C   0  0  0  0  0  0  0  0  0  0  0  0
    5.5682    1.6130   -0.1332 C   0  0  0  0  0  0  0  0  0  0  0  0
    6.7257    1.3888   -0.8849 C   0  0  0  0  0  0  0  0  0  0  0  0
    7.8348    0.8113   -0.2694 C   0  0  0  0  0  0  0  0  0  0  0  0
    9.3288    0.5587   -1.2203 S   0  0  0  0  0  0  0  0  0  0  0  0
   10.0382   -0.8775   -0.4389 C   0  0  0  0  0  0  0  0  0  0  0  0
    9.6253   -2.1537   -0.8160 C   0  0  0  0  0  0  0  0  0  0  0  0
   10.1454   -3.2893   -0.1793 C   0  0  0  0  0  0  0  0  0  0  0  0
   11.1088   -3.1751    0.8218 C   0  0  0  0  0  0  0  0  0  0  0  0
   11.5896   -4.2719    1.5770 N   0  0  0  0  0  0  0  0  0  0  0  0
   11.5303   -5.6462    1.3367 C   0  0  0  0  0  0  0  0  0  0  0  0
   11.3190   -6.3932   -0.1513 S   0  0  0  0  0  0  0  0  0  0  0  0
   11.6548   -6.3287    2.5571 N   0  0  0  0  0  0  0  0  0  0  0  0
   12.0673   -7.6660    2.7574 C   0  0  0  0  0  0  0  0  0  0  0  0
   11.5393   -8.3874    3.8321 C   0  0  0  0  0  0  0  0  0  0  0  0
   11.9432   -9.7095    4.0505 C   0  0  0  0  0  0  0  0  0  0  0  0
   12.8766  -10.3049    3.2029 C   0  0  0  0  0  0  0  0  0  0  0  0
   13.2309  -11.5758    3.4366 F   0  0  0  0  0  0  0  0  0  0  0  0
   13.4340   -9.5973    2.1455 C   0  0  0  0  0  0  0  0  0  0  0  0
   14.4225  -10.2142    1.2036 C   0  0  0  0  0  0  0  0  0  0  0  0
   14.7894  -11.4889    1.5039 F   0  0  0  0  0  0  0  0  0  0  0  0
   13.9548  -10.2564   -0.0761 F   0  0  0  0  0  0  0  0  0  0  0  0
   15.5845   -9.5015    1.1434 F   0  0  0  0  0  0  0  0  0  0  0  0
   13.0354   -8.2650    1.9469 C   0  0  0  0  0  0  0  0  0  0  0  0
   11.5506   -1.8925    1.1723 C   0  0  0  0  0  0  0  0  0  0  0  0
   11.0233   -0.7530    0.5439 C   0  0  0  0  0  0  0  0  0  0  0  0
    7.8403    0.4792    1.0423 N   0  0  0  0  0  0  0  0  0  0  0  0
    6.7104    0.7115    1.7543 C   0  0  0  0  0  0  0  0  0  0  0  0
    1.0710    1.3155    1.6456 H   0  0  0  0  0  0  0  0  0  0  0  0
    1.8723    2.4713    2.7534 H   0  0  0  0  0  0  0  0  0  0  0  0
    1.9625    0.7186    3.0784 H   0  0  0  0  0  0  0  0  0  0  0  0
    3.0501    1.0892    0.5418 H   0  0  0  0  0  0  0  0  0  0  0  0
    4.7131    2.0922   -0.6011 H   0  0  0  0  0  0  0  0  0  0  0  0
    6.7550    1.6703   -1.9336 H   0  0  0  0  0  0  0  0  0  0  0  0
    8.8745   -2.2881   -1.5905 H   0  0  0  0  0  0  0  0  0  0  0  0
    9.7323   -4.2426   -0.4785 H   0  0  0  0  0  0  0  0  0  0  0  0
   12.1706   -4.0271    2.3704 H   0  0  0  0  0  0  0  0  0  0  0  0
   11.1058   -5.9133    3.3024 H   0  0  0  0  0  0  0  0  0  0  0  0
   10.7894   -7.9553    4.4879 H   0  0  0  0  0  0  0  0  0  0  0  0
   11.5200  -10.2922    4.8650 H   0  0  0  0  0  0  0  0  0  0  0  0
   13.5118   -7.6999    1.1484 H   0  0  0  0  0  0  0  0  0  0  0  0
   12.3055   -1.7507    1.9421 H   0  0  0  0  0  0  0  0  0  0  0  0
   11.3699    0.2328    0.8450 H   0  0  0  0  0  0  0  0  0  0  0  0
    6.7633    0.4332    2.8038 H   0  0  0  0  0  0  0  0  0  0  0  0
  1  2  1  0  0  0  0
  1 33  1  0  0  0  0
  1 34  1  0  0  0  0
  1 35  1  0  0  0  0
  2  3  1  0  0  0  0
  2 36  1  0  0  0  0
  3  4  2  0  0  0  0
  3  5  1  0  0  0  0
  5  6  1  0  0  0  0
  5 32  2  0  0  0  0
  6  7  2  0  0  0  0
  6 37  1  0  0  0  0
  7  8  1  0  0  0  0
  7 38  1  0  0  0  0
  8  9  1  0  0  0  0
  8 31  2  0  0  0  0
  9 10  1  0  0  0  0
 10 11  1  0  0  0  0
 10 30  2  0  0  0  0
 11 12  2  0  0  0  0
 11 39  1  0  0  0  0
 12 13  1  0  0  0  0
 12 40  1  0  0  0  0
 13 14  1  0  0  0  0
 13 29  2  0  0  0  0
 14 15  1  0  0  0  0
 14 41  1  0  0  0  0
 15 16  2  0  0  0  0
 15 17  1  0  0  0  0
 17 18  1  0  0  0  0
 17 42  1  0  0  0  0
 18 19  1  0  0  0  0
 18 28  2  0  0  0  0
 19 20  2  0  0  0  0
 19 43  1  0  0  0  0
 20 21  1  0  0  0  0
 20 44  1  0  0  0  0
 21 22  1  0  0  0  0
 21 23  2  0  0  0  0
 23 24  1  0  0  0  0
 23 28  1  0  0  0  0
 24 25  1  0  0  0  0
 24 26  1  0  0  0  0
 24 27  1  0  0  0  0
 28 45  1  0  0  0  0
 29 30  1  0  0  0  0
 29 46  1  0  0  0  0
 30 47  1  0  0  0  0
 31 32  1  0  0  0  0
 32 48  1  0  0  0  0
M  END
$$$$
