CHEMBL365815
 OpenBabel04072215373D

 53 56  0  0  0  0  0  0  0  0999 V2000
    6.7168   -7.8305    4.3162 C   0  0  0  0  0  0  0  0  0  0  0  0
    6.6650   -6.9437    3.0838 C   0  0  0  0  0  0  0  0  0  0  0  0
    5.5581   -5.5665    3.3287 S   0  0  0  0  0  0  0  0  0  0  0  0
    4.2340   -6.1098    3.5777 O   0  0  0  0  0  0  0  0  0  0  0  0
    6.1683   -4.6407    4.2606 O   0  0  0  0  0  0  0  0  0  0  0  0
    5.4942   -4.7484    1.7534 C   0  0  0  0  0  0  0  0  0  0  0  0
    4.3058   -4.6723    1.0355 C   0  0  0  0  0  0  0  0  0  0  0  0
    4.2856   -4.0016   -0.1901 C   0  0  0  0  0  0  0  0  0  0  0  0
    5.4554   -3.4277   -0.7124 C   0  0  0  0  0  0  0  0  0  0  0  0
    5.5248   -2.7594   -1.9147 O   0  0  0  0  0  0  0  0  0  0  0  0
    4.3510   -2.7707   -2.7235 C   0  0  0  0  0  0  0  0  0  0  0  0
    6.6699   -3.5174    0.0098 C   0  0  0  0  0  0  0  0  0  0  0  0
    7.8586   -2.9818   -0.5490 N   0  0  0  0  0  0  0  0  0  0  0  0
    9.1116   -3.2547   -0.1375 C   0  0  0  0  0  0  0  0  0  0  0  0
    9.5305   -3.7971    0.9853 N   0  0  0  0  0  0  0  0  0  0  0  0
   10.8776   -3.9154    0.8358 C   0  0  0  0  0  0  0  0  0  0  0  0
   11.2575   -3.4459   -0.3978 C   0  0  0  0  0  0  0  0  0  0  0  0
   12.5257   -3.3597   -1.1024 C   0  0  0  0  0  0  0  0  0  0  0  0
   13.7032   -3.8097   -0.4898 C   0  0  0  0  0  0  0  0  0  0  0  0
   14.9237   -3.7327   -1.1562 C   0  0  0  0  0  0  0  0  0  0  0  0
   14.9821   -3.1931   -2.4401 C   0  0  0  0  0  0  0  0  0  0  0  0
   13.8217   -2.7368   -3.0819 C   0  0  0  0  0  0  0  0  0  0  0  0
   13.9027   -2.2030   -4.4440 C   0  0  0  0  0  0  0  0  0  0  0  0
   14.7220   -2.5941   -5.4936 C   0  0  0  0  0  0  0  0  0  0  0  0
   14.5139   -1.8407   -6.6168 N   0  0  0  0  0  0  0  0  0  0  0  0
   13.5827   -0.9833   -6.2782 C   0  0  0  0  0  0  0  0  0  0  0  0
   13.1799   -1.1552   -4.9817 N   0  0  0  0  0  0  0  0  0  0  0  0
   12.2027   -0.3153   -4.3314 C   0  0  0  0  0  0  0  0  0  0  0  0
   12.5999   -2.8482   -2.4048 C   0  0  0  0  0  0  0  0  0  0  0  0
   10.1216   -2.9899   -1.0275 O   0  0  0  0  0  0  0  0  0  0  0  0
    6.6530   -4.1512    1.2625 C   0  0  0  0  0  0  0  0  0  0  0  0
    7.4160   -8.6587    4.1675 H   0  0  0  0  0  0  0  0  0  0  0  0
    5.7307   -8.2531    4.5361 H   0  0  0  0  0  0  0  0  0  0  0  0
    7.0391   -7.2636    5.1956 H   0  0  0  0  0  0  0  0  0  0  0  0
    6.3080   -7.5167    2.2224 H   0  0  0  0  0  0  0  0  0  0  0  0
    7.6633   -6.5477    2.8627 H   0  0  0  0  0  0  0  0  0  0  0  0
    3.3899   -5.1118    1.4251 H   0  0  0  0  0  0  0  0  0  0  0  0
    3.3354   -3.9432   -0.7113 H   0  0  0  0  0  0  0  0  0  0  0  0
    4.5545   -2.1829   -3.6239 H   0  0  0  0  0  0  0  0  0  0  0  0
    3.5029   -2.3011   -2.2134 H   0  0  0  0  0  0  0  0  0  0  0  0
    4.1074   -3.7913   -3.0379 H   0  0  0  0  0  0  0  0  0  0  0  0
    7.7213   -2.6126   -1.4837 H   0  0  0  0  0  0  0  0  0  0  0  0
   11.4941   -4.3447    1.6122 H   0  0  0  0  0  0  0  0  0  0  0  0
   13.6874   -4.2360    0.5104 H   0  0  0  0  0  0  0  0  0  0  0  0
   15.8298   -4.0958   -0.6751 H   0  0  0  0  0  0  0  0  0  0  0  0
   15.9489   -3.1337   -2.9359 H   0  0  0  0  0  0  0  0  0  0  0  0
   15.4524   -3.3933   -5.4932 H   0  0  0  0  0  0  0  0  0  0  0  0
   13.1713   -0.2186   -6.9240 H   0  0  0  0  0  0  0  0  0  0  0  0
   11.9811    0.5474   -4.9652 H   0  0  0  0  0  0  0  0  0  0  0  0
   12.6050    0.0296   -3.3762 H   0  0  0  0  0  0  0  0  0  0  0  0
   11.2848   -0.8905   -4.1925 H   0  0  0  0  0  0  0  0  0  0  0  0
   11.6783   -2.5612   -2.8995 H   0  0  0  0  0  0  0  0  0  0  0  0
    7.5410   -4.1832    1.8846 H   0  0  0  0  0  0  0  0  0  0  0  0
  1  2  1  0  0  0  0
  1 32  1  0  0  0  0
  1 33  1  0  0  0  0
  1 34  1  0  0  0  0
  2  3  1  0  0  0  0
  2 35  1  0  0  0  0
  2 36  1  0  0  0  0
  3  4  2  0  0  0  0
  3  5  2  0  0  0  0
  3  6  1  0  0  0  0
  6  7  1  0  0  0  0
  6 31  2  0  0  0  0
  7  8  2  0  0  0  0
  7 37  1  0  0  0  0
  8  9  1  0  0  0  0
  8 38  1  0  0  0  0
  9 10  1  0  0  0  0
  9 12  2  0  0  0  0
 10 11  1  0  0  0  0
 11 39  1  0  0  0  0
 11 40  1  0  0  0  0
 11 41  1  0  0  0  0
 12 13  1  0  0  0  0
 12 31  1  0  0  0  0
 13 14  1  0  0  0  0
 13 42  1  0  0  0  0
 14 15  2  0  0  0  0
 14 30  1  0  0  0  0
 15 16  1  0  0  0  0
 16 17  2  0  0  0  0
 16 43  1  0  0  0  0
 17 18  1  0  0  0  0
 17 30  1  0  0  0  0
 18 19  1  0  0  0  0
 18 29  2  0  0  0  0
 19 20  2  0  0  0  0
 19 44  1  0  0  0  0
 20 21  1  0  0  0  0
 20 45  1  0  0  0  0
 21 22  2  0  0  0  0
 21 46  1  0  0  0  0
 22 23  1  0  0  0  0
 22 29  1  0  0  0  0
 23 24  2  0  0  0  0
 23 27  1  0  0  0  0
 24 25  1  0  0  0  0
 24 47  1  0  0  0  0
 25 26  2  0  0  0  0
 26 27  1  0  0  0  0
 26 48  1  0  0  0  0
 27 28  1  0  0  0  0
 28 49  1  0  0  0  0
 28 50  1  0  0  0  0
 28 51  1  0  0  0  0
 29 52  1  0  0  0  0
 31 53  1  0  0  0  0
M  END
$$$$
