CHEMBL3916527
 OpenBabel04072215373D

 70 74  0  0  0  0  0  0  0  0999 V2000
    3.2904    5.7588    1.9873 C   0  0  0  0  0  0  0  0  0  0  0  0
    1.9104    6.2101    1.5978 C   0  0  0  0  0  0  0  0  0  0  0  0
    1.5938    7.5716    1.6502 C   0  0  0  0  0  0  0  0  0  0  0  0
    0.3312    8.0056    1.2683 C   0  0  0  0  0  0  0  0  0  0  0  0
   -0.6288    7.0877    0.8505 C   0  0  0  0  0  0  0  0  0  0  0  0
   -1.7665    7.6002    0.3693 F   0  0  0  0  0  0  0  0  0  0  0  0
   -0.3700    5.7087    0.8402 C   0  0  0  0  0  0  0  0  0  0  0  0
   -1.3308    4.7190    0.4819 N   0  0  0  0  0  0  0  0  0  0  0  0
   -2.7101    4.8943    0.5195 C   0  0  0  0  0  0  0  0  0  0  0  0
   -3.2927    5.8759    0.9663 O   0  0  0  0  0  0  0  0  0  0  0  0
   -3.3896    3.7749    0.0457 N   0  0  0  0  0  0  0  0  0  0  0  0
   -4.8165    3.7931   -0.0718 C   0  0  0  0  0  0  0  0  0  0  0  0
   -5.5034    2.7998    0.6160 C   0  0  0  0  0  0  0  0  0  0  0  0
   -6.8901    2.7118    0.5240 C   0  0  0  0  0  0  0  0  0  0  0  0
   -7.6724    3.6755   -0.1358 C   0  0  0  0  0  0  0  0  0  0  0  0
   -9.1676    3.5303   -0.1030 C   0  0  0  0  0  0  0  0  0  0  0  0
   -9.9405    3.7229   -1.2788 C   0  0  0  0  0  0  0  0  0  0  0  0
  -11.3323    3.7030   -1.2901 C   0  0  0  0  0  0  0  0  0  0  0  0
  -12.0451    3.3863   -0.1420 C   0  0  0  0  0  0  0  0  0  0  0  0
  -13.4178    3.3604   -0.2972 O   0  0  0  0  0  0  0  0  0  0  0  0
  -14.1959    3.6197    0.8691 C   0  0  0  0  0  0  0  0  0  0  0  0
  -15.5521    4.2244    0.4886 C   0  0  0  0  0  0  0  0  0  0  0  0
  -16.4435    3.3698   -0.4472 C   0  0  0  0  0  0  0  0  0  0  0  0
  -16.7628    2.0014    0.1708 C   0  0  0  0  0  0  0  0  0  0  0  0
  -17.7607    4.1138   -0.7198 C   0  0  0  0  0  0  0  0  0  0  0  0
  -15.7918    3.1546   -1.7443 N   0  0  0  0  0  0  0  0  0  0  0  0
  -11.3028    3.0394    0.9969 C   0  0  0  0  0  0  0  0  0  0  0  0
  -11.6960    2.5346    2.2046 N   0  0  0  0  0  0  0  0  0  0  0  0
  -10.7291    2.3730    3.0941 N   0  0  0  0  0  0  0  0  0  0  0  0
   -9.6301    2.7393    2.4301 C   0  0  0  0  0  0  0  0  0  0  0  0
   -8.4473    2.6659    3.0434 N   0  0  0  0  0  0  0  0  0  0  0  0
   -9.9016    3.1334    1.0694 C   0  0  0  0  0  0  0  0  0  0  0  0
   -6.9686    4.7017   -0.8719 C   0  0  0  0  0  0  0  0  0  0  0  0
   -7.6172    5.7105   -1.6389 C   0  0  0  0  0  0  0  0  0  0  0  0
   -6.9406    6.5597   -2.5145 C   0  0  0  0  0  0  0  0  0  0  0  0
   -5.5643    6.5050   -2.5801 C   0  0  0  0  0  0  0  0  0  0  0  0
   -4.8748    5.6209   -1.7507 C   0  0  0  0  0  0  0  0  0  0  0  0
   -5.5353    4.7153   -0.8823 C   0  0  0  0  0  0  0  0  0  0  0  0
    0.9265    5.2839    1.1873 C   0  0  0  0  0  0  0  0  0  0  0  0
    3.9257    6.6113    2.2560 H   0  0  0  0  0  0  0  0  0  0  0  0
    3.7741    5.2411    1.1535 H   0  0  0  0  0  0  0  0  0  0  0  0
    3.2455    5.0956    2.8563 H   0  0  0  0  0  0  0  0  0  0  0  0
    2.3314    8.3046    1.9689 H   0  0  0  0  0  0  0  0  0  0  0  0
    0.0828    9.0633    1.2736 H   0  0  0  0  0  0  0  0  0  0  0  0
   -0.9910    3.7818    0.3328 H   0  0  0  0  0  0  0  0  0  0  0  0
   -3.0103    2.9154    0.4153 H   0  0  0  0  0  0  0  0  0  0  0  0
   -4.9828    2.0964    1.2594 H   0  0  0  0  0  0  0  0  0  0  0  0
   -7.3671    1.8642    1.0136 H   0  0  0  0  0  0  0  0  0  0  0  0
   -9.4470    3.9157   -2.2311 H   0  0  0  0  0  0  0  0  0  0  0  0
  -11.8639    3.9383   -2.2105 H   0  0  0  0  0  0  0  0  0  0  0  0
  -13.6879    4.3279    1.5341 H   0  0  0  0  0  0  0  0  0  0  0  0
  -14.3515    2.6770    1.4010 H   0  0  0  0  0  0  0  0  0  0  0  0
  -15.3686    5.1978    0.0137 H   0  0  0  0  0  0  0  0  0  0  0  0
  -16.0982    4.4286    1.4192 H   0  0  0  0  0  0  0  0  0  0  0  0
  -17.3114    2.1167    1.1129 H   0  0  0  0  0  0  0  0  0  0  0  0
  -15.8597    1.4190    0.3800 H   0  0  0  0  0  0  0  0  0  0  0  0
  -17.3849    1.3975   -0.5002 H   0  0  0  0  0  0  0  0  0  0  0  0
  -18.3363    4.2498    0.2029 H   0  0  0  0  0  0  0  0  0  0  0  0
  -18.3935    3.5580   -1.4224 H   0  0  0  0  0  0  0  0  0  0  0  0
  -17.5815    5.1066   -1.1490 H   0  0  0  0  0  0  0  0  0  0  0  0
  -14.8783    2.7173   -1.5858 H   0  0  0  0  0  0  0  0  0  0  0  0
  -15.5633    4.0576   -2.1616 H   0  0  0  0  0  0  0  0  0  0  0  0
  -12.6284    2.2705    2.4905 H   0  0  0  0  0  0  0  0  0  0  0  0
   -8.4581    2.4293    4.0299 H   0  0  0  0  0  0  0  0  0  0  0  0
   -7.6928    3.3022    2.7917 H   0  0  0  0  0  0  0  0  0  0  0  0
   -8.6936    5.8443   -1.5940 H   0  0  0  0  0  0  0  0  0  0  0  0
   -7.4970    7.2509   -3.1421 H   0  0  0  0  0  0  0  0  0  0  0  0
   -5.0190    7.1605   -3.2525 H   0  0  0  0  0  0  0  0  0  0  0  0
   -3.7890    5.6349   -1.8071 H   0  0  0  0  0  0  0  0  0  0  0  0
    1.1814    4.2259    1.1702 H   0  0  0  0  0  0  0  0  0  0  0  0
  1  2  1  0  0  0  0
  1 40  1  0  0  0  0
  1 41  1  0  0  0  0
  1 42  1  0  0  0  0
  2  3  1  0  0  0  0
  2 39  2  0  0  0  0
  3  4  2  0  0  0  0
  3 43  1  0  0  0  0
  4  5  1  0  0  0  0
  4 44  1  0  0  0  0
  5  6  1  0  0  0  0
  5  7  2  0  0  0  0
  7  8  1  0  0  0  0
  7 39  1  0  0  0  0
  8  9  1  0  0  0  0
  8 45  1  0  0  0  0
  9 10  2  0  0  0  0
  9 11  1  0  0  0  0
 11 12  1  0  0  0  0
 11 46  1  0  0  0  0
 12 13  1  0  0  0  0
 12 38  2  0  0  0  0
 13 14  2  0  0  0  0
 13 47  1  0  0  0  0
 14 15  1  0  0  0  0
 14 48  1  0  0  0  0
 15 16  1  0  0  0  0
 15 33  2  0  0  0  0
 16 17  1  0  0  0  0
 16 32  2  0  0  0  0
 17 18  2  0  0  0  0
 17 49  1  0  0  0  0
 18 19  1  0  0  0  0
 18 50  1  0  0  0  0
 19 20  1  0  0  0  0
 19 27  2  0  0  0  0
 20 21  1  0  0  0  0
 21 22  1  0  0  0  0
 21 51  1  0  0  0  0
 21 52  1  0  0  0  0
 22 23  1  0  0  0  0
 22 53  1  0  0  0  0
 22 54  1  0  0  0  0
 23 24  1  0  0  0  0
 23 25  1  0  0  0  0
 23 26  1  0  0  0  0
 24 55  1  0  0  0  0
 24 56  1  0  0  0  0
 24 57  1  0  0  0  0
 25 58  1  0  0  0  0
 25 59  1  0  0  0  0
 25 60  1  0  0  0  0
 26 61  1  0  0  0  0
 26 62  1  0  0  0  0
 27 28  1  0  0  0  0
 27 32  1  0  0  0  0
 28 29  1  0  0  0  0
 28 63  1  0  0  0  0
 29 30  2  0  0  0  0
 30 31  1  0  0  0  0
 30 32  1  0  0  0  0
 31 64  1  0  0  0  0
 31 65  1  0  0  0  0
 33 34  1  0  0  0  0
 33 38  1  0  0  0  0
 34 35  2  0  0  0  0
 34 66  1  0  0  0  0
 35 36  1  0  0  0  0
 35 67  1  0  0  0  0
 36 37  2  0  0  0  0
 36 68  1  0  0  0  0
 37 38  1  0  0  0  0
 37 69  1  0  0  0  0
 39 70  1  0  0  0  0
M  END
$$$$
