CHEMBL175760
 OpenBabel04072215363D

 44 47  0  0  0  0  0  0  0  0999 V2000
    1.1960   -0.7700    0.2200 C   0  0  0  0  0  0  0  0  0  0  0  0
    2.5014    0.0237    0.0096 C   0  0  0  0  0  0  0  0  0  0  0  0
    3.6395   -0.6001    0.8570 C   0  0  0  0  0  0  0  0  0  0  0  0
    2.9211    0.0414   -1.4004 N   0  0  0  0  0  0  0  0  0  0  0  0
    2.6058   -1.0344   -2.2091 C   0  0  0  0  0  0  0  0  0  0  0  0
    2.5164   -2.2455   -1.6849 N   0  0  0  0  0  0  0  0  0  0  0  0
    2.1984   -3.1944   -2.5298 C   0  0  0  0  0  0  0  0  0  0  0  0
    2.1210   -4.7739   -1.8832 Cl  0  0  0  0  0  0  0  0  0  0  0  0
    2.0209   -3.1032   -3.8332 N   0  0  0  0  0  0  0  0  0  0  0  0
    2.1409   -1.8540   -4.2722 C   0  0  0  0  0  0  0  0  0  0  0  0
    1.9734   -1.6799   -5.6478 N   0  0  0  0  0  0  0  0  0  0  0  0
    1.4915   -0.5349   -6.2987 C   0  0  0  0  0  0  0  0  0  0  0  0
    1.8965   -0.2574   -7.6078 C   0  0  0  0  0  0  0  0  0  0  0  0
    1.5299    0.9371   -8.2421 C   0  0  0  0  0  0  0  0  0  0  0  0
    0.7478    1.8831   -7.5529 C   0  0  0  0  0  0  0  0  0  0  0  0
    0.3458    3.1127   -8.0388 N   0  0  0  0  0  0  0  0  0  0  0  0
   -0.3388    3.7449   -7.1131 C   0  0  0  0  0  0  0  0  0  0  0  0
   -0.5770    2.9139   -5.6372 S   0  0  0  0  0  0  0  0  0  0  0  0
    0.3335    1.5881   -6.2509 C   0  0  0  0  0  0  0  0  0  0  0  0
    0.6807    0.3875   -5.6195 C   0  0  0  0  0  0  0  0  0  0  0  0
    2.4431   -0.8126   -3.5019 N   0  0  0  0  0  0  0  0  0  0  0  0
    2.2113    1.4794    0.4479 C   0  0  0  0  0  0  0  0  0  0  0  0
    2.3601    1.8581    1.7971 C   0  0  0  0  0  0  0  0  0  0  0  0
    2.2509    3.1916    2.1930 C   0  0  0  0  0  0  0  0  0  0  0  0
    1.9566    4.1752    1.2555 C   0  0  0  0  0  0  0  0  0  0  0  0
    1.7257    3.8183   -0.0688 C   0  0  0  0  0  0  0  0  0  0  0  0
    1.8290    2.4804   -0.4655 C   0  0  0  0  0  0  0  0  0  0  0  0
    1.3396   -1.8463    0.1198 H   0  0  0  0  0  0  0  0  0  0  0  0
    0.4268   -0.4642   -0.4941 H   0  0  0  0  0  0  0  0  0  0  0  0
    0.8049   -0.6316    1.2314 H   0  0  0  0  0  0  0  0  0  0  0  0
    3.9032   -1.6090    0.5204 H   0  0  0  0  0  0  0  0  0  0  0  0
    3.3572   -0.7006    1.9099 H   0  0  0  0  0  0  0  0  0  0  0  0
    4.5553    0.0057    0.8109 H   0  0  0  0  0  0  0  0  0  0  0  0
    3.9346    0.1652   -1.4921 H   0  0  0  0  0  0  0  0  0  0  0  0
    1.8869   -2.5596   -6.1312 H   0  0  0  0  0  0  0  0  0  0  0  0
    2.5401   -0.9508   -8.1422 H   0  0  0  0  0  0  0  0  0  0  0  0
    1.8598    1.1537   -9.2538 H   0  0  0  0  0  0  0  0  0  0  0  0
   -0.7346    4.7389   -7.2720 H   0  0  0  0  0  0  0  0  0  0  0  0
    0.3576    0.1954   -4.6001 H   0  0  0  0  0  0  0  0  0  0  0  0
    2.6187    1.1224    2.5533 H   0  0  0  0  0  0  0  0  0  0  0  0
    2.4313    3.4650    3.2289 H   0  0  0  0  0  0  0  0  0  0  0  0
    1.9127    5.2190    1.5535 H   0  0  0  0  0  0  0  0  0  0  0  0
    1.4984    4.5840   -0.8065 H   0  0  0  0  0  0  0  0  0  0  0  0
    1.6644    2.2498   -1.5167 H   0  0  0  0  0  0  0  0  0  0  0  0
  1  2  1  0  0  0  0
  1 28  1  0  0  0  0
  1 29  1  0  0  0  0
  1 30  1  0  0  0  0
  2  3  1  0  0  0  0
  2  4  1  0  0  0  0
  2 22  1  0  0  0  0
  3 31  1  0  0  0  0
  3 32  1  0  0  0  0
  3 33  1  0  0  0  0
  4  5  1  0  0  0  0
  4 34  1  0  0  0  0
  5  6  1  0  0  0  0
  5 21  2  0  0  0  0
  6  7  2  0  0  0  0
  7  8  1  0  0  0  0
  7  9  1  0  0  0  0
  9 10  2  0  0  0  0
 10 11  1  0  0  0  0
 10 21  1  0  0  0  0
 11 12  1  0  0  0  0
 11 35  1  0  0  0  0
 12 13  1  0  0  0  0
 12 20  2  0  0  0  0
 13 14  2  0  0  0  0
 13 36  1  0  0  0  0
 14 15  1  0  0  0  0
 14 37  1  0  0  0  0
 15 16  1  0  0  0  0
 15 19  2  0  0  0  0
 16 17  2  0  0  0  0
 17 18  1  0  0  0  0
 17 38  1  0  0  0  0
 18 19  1  0  0  0  0
 19 20  1  0  0  0  0
 20 39  1  0  0  0  0
 22 23  1  0  0  0  0
 22 27  2  0  0  0  0
 23 24  2  0  0  0  0
 23 40  1  0  0  0  0
 24 25  1  0  0  0  0
 24 41  1  0  0  0  0
 25 26  2  0  0  0  0
 25 42  1  0  0  0  0
 26 27  1  0  0  0  0
 26 43  1  0  0  0  0
 27 44  1  0  0  0  0
M  END
$$$$
