CHEMBL1229517
 OpenBabel04072215363D

 51 54  0  0  0  0  0  0  0  0999 V2000
    2.0694   -1.1687   -0.5502 C   0  0  0  0  0  0  0  0  0  0  0  0
    2.7131    0.2008   -0.6976 C   0  0  0  0  0  0  0  0  0  0  0  0
    3.7753    0.2326   -1.7965 C   0  0  0  0  0  0  0  0  0  0  0  0
    4.5227    1.8645   -1.9088 S   0  0  0  0  0  0  0  0  0  0  0  0
    3.4889    2.8046   -2.2822 O   0  0  0  0  0  0  0  0  0  0  0  0
    5.3645    2.0654   -0.7505 O   0  0  0  0  0  0  0  0  0  0  0  0
    5.4955    1.7021   -3.3032 N   0  0  0  0  0  0  0  0  0  0  0  0
    6.9022    1.9433   -3.1083 C   0  0  0  0  0  0  0  0  0  0  0  0
    7.7108    0.8896   -2.6872 C   0  0  0  0  0  0  0  0  0  0  0  0
    9.0575    1.1249   -2.4189 C   0  0  0  0  0  0  0  0  0  0  0  0
    9.5859    2.4097   -2.5553 C   0  0  0  0  0  0  0  0  0  0  0  0
   10.8692    2.5827   -2.2113 F   0  0  0  0  0  0  0  0  0  0  0  0
    8.8024    3.4757   -3.0015 C   0  0  0  0  0  0  0  0  0  0  0  0
    9.3611    4.8464   -3.1285 C   0  0  0  0  0  0  0  0  0  0  0  0
    8.6391    5.8018   -2.8571 O   0  0  0  0  0  0  0  0  0  0  0  0
   10.7534    5.0503   -3.5473 C   0  0  0  0  0  0  0  0  0  0  0  0
   11.4972    4.2458   -4.4025 C   0  0  0  0  0  0  0  0  0  0  0  0
   12.7573    4.7775   -4.5169 N   0  0  0  0  0  0  0  0  0  0  0  0
   12.8380    5.9362   -3.8018 C   0  0  0  0  0  0  0  0  0  0  0  0
   13.9361    6.7071   -3.7391 N   0  0  0  0  0  0  0  0  0  0  0  0
   13.7629    7.7979   -2.9474 C   0  0  0  0  0  0  0  0  0  0  0  0
   12.6190    8.1500   -2.2190 C   0  0  0  0  0  0  0  0  0  0  0  0
   12.5770    9.3504   -1.3486 C   0  0  0  0  0  0  0  0  0  0  0  0
   11.3829   10.0675   -1.1430 C   0  0  0  0  0  0  0  0  0  0  0  0
   11.3289   11.1781   -0.2911 C   0  0  0  0  0  0  0  0  0  0  0  0
   12.4776   11.6049    0.3640 C   0  0  0  0  0  0  0  0  0  0  0  0
   12.4118   12.9601    1.4206 Cl  0  0  0  0  0  0  0  0  0  0  0  0
   13.6788   10.9334    0.1707 C   0  0  0  0  0  0  0  0  0  0  0  0
   13.7248    9.8157   -0.6732 C   0  0  0  0  0  0  0  0  0  0  0  0
   11.5139    7.2853   -2.3543 C   0  0  0  0  0  0  0  0  0  0  0  0
   11.6162    6.1417   -3.1768 C   0  0  0  0  0  0  0  0  0  0  0  0
    7.4468    3.2325   -3.2563 C   0  0  0  0  0  0  0  0  0  0  0  0
    6.6380    4.2126   -3.6894 F   0  0  0  0  0  0  0  0  0  0  0  0
    1.3112   -1.1440    0.2408 H   0  0  0  0  0  0  0  0  0  0  0  0
    2.8102   -1.9283   -0.2825 H   0  0  0  0  0  0  0  0  0  0  0  0
    1.5757   -1.4766   -1.4773 H   0  0  0  0  0  0  0  0  0  0  0  0
    3.1580    0.4912    0.2613 H   0  0  0  0  0  0  0  0  0  0  0  0
    1.9313    0.9381   -0.9154 H   0  0  0  0  0  0  0  0  0  0  0  0
    3.3271    0.0043   -2.7686 H   0  0  0  0  0  0  0  0  0  0  0  0
    4.5765   -0.4823   -1.5852 H   0  0  0  0  0  0  0  0  0  0  0  0
    5.0883    2.3369   -4.0006 H   0  0  0  0  0  0  0  0  0  0  0  0
    7.3003   -0.1077   -2.5588 H   0  0  0  0  0  0  0  0  0  0  0  0
    9.7032    0.3190   -2.0805 H   0  0  0  0  0  0  0  0  0  0  0  0
   11.2532    3.3309   -4.9255 H   0  0  0  0  0  0  0  0  0  0  0  0
   13.5292    4.3975   -5.0452 H   0  0  0  0  0  0  0  0  0  0  0  0
   14.6492    8.4341   -2.9211 H   0  0  0  0  0  0  0  0  0  0  0  0
   10.4660    9.7721   -1.6506 H   0  0  0  0  0  0  0  0  0  0  0  0
   10.3853   11.6976   -0.1458 H   0  0  0  0  0  0  0  0  0  0  0  0
   14.5816   11.2630    0.6786 H   0  0  0  0  0  0  0  0  0  0  0  0
   14.6785    9.3014   -0.7741 H   0  0  0  0  0  0  0  0  0  0  0  0
   10.5851    7.4646   -1.8233 H   0  0  0  0  0  0  0  0  0  0  0  0
  1  2  1  0  0  0  0
  1 34  1  0  0  0  0
  1 35  1  0  0  0  0
  1 36  1  0  0  0  0
  2  3  1  0  0  0  0
  2 37  1  0  0  0  0
  2 38  1  0  0  0  0
  3  4  1  0  0  0  0
  3 39  1  0  0  0  0
  3 40  1  0  0  0  0
  4  5  2  0  0  0  0
  4  6  2  0  0  0  0
  4  7  1  0  0  0  0
  7  8  1  0  0  0  0
  7 41  1  0  0  0  0
  8  9  1  0  0  0  0
  8 32  2  0  0  0  0
  9 10  2  0  0  0  0
  9 42  1  0  0  0  0
 10 11  1  0  0  0  0
 10 43  1  0  0  0  0
 11 12  1  0  0  0  0
 11 13  2  0  0  0  0
 13 14  1  0  0  0  0
 13 32  1  0  0  0  0
 14 15  2  0  0  0  0
 14 16  1  0  0  0  0
 16 17  2  0  0  0  0
 16 31  1  0  0  0  0
 17 18  1  0  0  0  0
 17 44  1  0  0  0  0
 18 19  1  0  0  0  0
 18 45  1  0  0  0  0
 19 20  1  0  0  0  0
 19 31  2  0  0  0  0
 20 21  2  0  0  0  0
 21 22  1  0  0  0  0
 21 46  1  0  0  0  0
 22 23  1  0  0  0  0
 22 30  2  0  0  0  0
 23 24  1  0  0  0  0
 23 29  2  0  0  0  0
 24 25  2  0  0  0  0
 24 47  1  0  0  0  0
 25 26  1  0  0  0  0
 25 48  1  0  0  0  0
 26 27  1  0  0  0  0
 26 28  2  0  0  0  0
 28 29  1  0  0  0  0
 28 49  1  0  0  0  0
 29 50  1  0  0  0  0
 30 31  1  0  0  0  0
 30 51  1  0  0  0  0
 32 33  1  0  0  0  0
M  END
$$$$
