CHEMBL2071211
 OpenBabel04072215363D

 45 48  0  0  1  0  0  0  0  0999 V2000
    2.7943   -4.7928   -4.6431 C   0  0  0  0  0  0  0  0  0  0  0  0
    3.7211   -4.7125   -3.5409 N   0  0  0  0  0  0  0  0  0  0  0  0
    4.9510   -5.3062   -3.4448 C   0  0  0  0  0  0  0  0  0  0  0  0
    5.4234   -4.9712   -2.2003 C   0  0  0  0  0  0  0  0  0  0  0  0
    6.6089   -5.3176   -1.6637 N   0  0  0  0  0  0  0  0  0  0  0  0
    6.8957   -5.5898   -0.3223 C   0  0  0  0  0  0  0  0  0  0  0  0
    8.1865   -5.6181    0.0272 N   0  0  0  0  0  0  0  0  0  0  0  0
    8.4531   -5.9476    1.3080 C   0  0  0  0  0  0  0  0  0  0  0  0
    7.4958   -6.3304    2.2295 C   0  0  0  0  0  0  0  0  0  0  0  0
    7.9466   -6.8594    3.7954 Cl  0  0  0  0  0  0  0  0  0  0  0  0
    6.1854   -6.3410    1.7689 C   0  0  0  0  0  0  0  0  0  0  0  0
    5.1161   -6.7861    2.6109 N   0  0  0  0  0  0  0  0  0  0  0  0
    3.9415   -7.2235    1.8372 C   0  0  1  0  0  0  0  0  0  0  0  0
    4.2047   -8.4898    0.9784 C   0  0  1  0  0  0  0  0  0  0  0  0
    4.4647   -9.7254    1.8669 C   0  0  0  0  0  0  0  0  0  0  0  0
    3.0618  -10.1118    2.3430 C   0  0  0  0  0  0  0  0  0  0  0  0
    2.2102   -8.9243    1.8611 C   0  0  2  0  0  0  0  0  0  0  0  0
    2.7915   -8.7480    0.4560 C   0  0  0  0  0  0  0  0  0  0  0  0
    2.6372   -7.6055    2.5907 C   0  0  1  0  0  0  0  0  0  0  0  0
    2.5697   -7.7790    4.1011 C   0  0  0  0  0  0  0  0  0  0  0  0
    3.3365   -6.9600    4.8592 N   0  0  0  0  0  0  0  0  0  0  0  0
    1.7814   -8.5402    4.6566 O   0  0  0  0  0  0  0  0  0  0  0  0
    5.8984   -5.9058    0.5236 N   0  0  0  0  0  0  0  0  0  0  0  0
    4.4231   -4.1545   -1.6361 C   0  0  0  0  0  0  0  0  0  0  0  0
    3.3865   -3.9821   -2.4609 N   0  0  0  0  0  0  0  0  0  0  0  0
    3.1371   -5.5450   -5.3568 H   0  0  0  0  0  0  0  0  0  0  0  0
    2.7451   -3.8112   -5.1214 H   0  0  0  0  0  0  0  0  0  0  0  0
    1.8136   -5.0753   -4.2503 H   0  0  0  0  0  0  0  0  0  0  0  0
    5.3461   -5.9284   -4.2345 H   0  0  0  0  0  0  0  0  0  0  0  0
    7.4224   -5.5173   -2.2313 H   0  0  0  0  0  0  0  0  0  0  0  0
    9.5050   -5.9149    1.5758 H   0  0  0  0  0  0  0  0  0  0  0  0
    5.4727   -7.5188    3.2233 H   0  0  0  0  0  0  0  0  0  0  0  0
    3.6489   -6.3991    1.1693 H   0  0  0  0  0  0  0  0  0  0  0  0
    4.9577   -8.3632    0.1983 H   0  0  0  0  0  0  0  0  0  0  0  0
    5.1294   -9.5167    2.7102 H   0  0  0  0  0  0  0  0  0  0  0  0
    4.9065  -10.5450    1.2912 H   0  0  0  0  0  0  0  0  0  0  0  0
    3.0241  -10.2977    3.4183 H   0  0  0  0  0  0  0  0  0  0  0  0
    2.7386  -11.0341    1.8445 H   0  0  0  0  0  0  0  0  0  0  0  0
    1.1352   -9.1172    1.8914 H   0  0  0  0  0  0  0  0  0  0  0  0
    2.3662   -7.8993   -0.0900 H   0  0  0  0  0  0  0  0  0  0  0  0
    2.7224   -9.6483   -0.1639 H   0  0  0  0  0  0  0  0  0  0  0  0
    1.8884   -6.8334    2.3588 H   0  0  0  0  0  0  0  0  0  0  0  0
    3.9303   -6.2466    4.4505 H   0  0  0  0  0  0  0  0  0  0  0  0
    3.2369   -7.0222    5.8637 H   0  0  0  0  0  0  0  0  0  0  0  0
    4.4254   -3.6566   -0.6758 H   0  0  0  0  0  0  0  0  0  0  0  0
  1  2  1  0  0  0  0
  1 26  1  0  0  0  0
  1 27  1  0  0  0  0
  1 28  1  0  0  0  0
  2  3  1  0  0  0  0
  2 25  1  0  0  0  0
  3  4  2  0  0  0  0
  3 29  1  0  0  0  0
  4  5  1  0  0  0  0
  4 24  1  0  0  0  0
  5  6  1  0  0  0  0
  5 30  1  0  0  0  0
  6  7  1  0  0  0  0
  6 23  2  0  0  0  0
  7  8  2  0  0  0  0
  8  9  1  0  0  0  0
  8 31  1  0  0  0  0
  9 10  1  0  0  0  0
  9 11  2  0  0  0  0
 11 12  1  0  0  0  0
 11 23  1  0  0  0  0
 12 32  1  0  0  0  0
 13 14  1  0  0  0  0
 13 19  1  0  0  0  0
 13 12  1  0  0  0  0
 13 33  1  6  0  0  0
 14 15  1  0  0  0  0
 14 18  1  0  0  0  0
 14 34  1  6  0  0  0
 15 16  1  0  0  0  0
 15 35  1  0  0  0  0
 15 36  1  0  0  0  0
 16 17  1  0  0  0  0
 16 37  1  0  0  0  0
 16 38  1  0  0  0  0
 17 18  1  0  0  0  0
 17 19  1  0  0  0  0
 17 39  1  1  0  0  0
 18 40  1  0  0  0  0
 18 41  1  0  0  0  0
 19 20  1  0  0  0  0
 19 42  1  6  0  0  0
 20 21  1  0  0  0  0
 20 22  2  0  0  0  0
 21 43  1  0  0  0  0
 21 44  1  0  0  0  0
 24 25  2  0  0  0  0
 24 45  1  0  0  0  0
M  END
$$$$
