CHEMBL1203981
 OpenBabel04072215363D

 70 73  0  0  0  0  0  0  0  0999 V2000
    1.0240    0.6339   -0.3334 C   0  0  0  0  0  0  0  0  0  0  0  0
    2.4884    0.6312   -0.3631 N   0  0  0  0  0  0  0  0  0  0  0  0
    3.1282    0.7245   -1.6694 C   0  0  0  0  0  0  0  0  0  0  0  0
    3.1799    0.4596    0.8208 C   0  0  0  0  0  0  0  0  0  0  0  0
    2.5406    0.2542    1.8452 O   0  0  0  0  0  0  0  0  0  0  0  0
    4.6842    0.4466    0.9740 C   0  0  0  0  0  0  0  0  0  0  0  0
    5.5509    1.1940    0.1354 C   0  0  0  0  0  0  0  0  0  0  0  0
    6.9364    1.1784    0.3088 C   0  0  0  0  0  0  0  0  0  0  0  0
    7.4770    0.4078    1.3295 C   0  0  0  0  0  0  0  0  0  0  0  0
    6.6602   -0.3244    2.1652 C   0  0  0  0  0  0  0  0  0  0  0  0
    5.2661   -0.3088    2.0267 C   0  0  0  0  0  0  0  0  0  0  0  0
    7.4195   -1.0444    3.1124 N   0  0  0  0  0  0  0  0  0  0  0  0
    8.7249   -0.7872    2.8677 C   0  0  0  0  0  0  0  0  0  0  0  0
    9.6342   -1.2522    3.5379 O   0  0  0  0  0  0  0  0  0  0  0  0
    8.8718    0.1603    1.7402 C   0  0  0  0  0  0  0  0  0  0  0  0
   10.0234    0.6821    1.2414 C   0  0  0  0  0  0  0  0  0  0  0  0
   11.2847    0.2608    1.7409 N   0  0  0  0  0  0  0  0  0  0  0  0
   11.9242   -0.9225    1.2558 C   0  0  0  0  0  0  0  0  0  0  0  0
   11.3235   -1.7394    0.2739 C   0  0  0  0  0  0  0  0  0  0  0  0
   11.9374   -2.9216   -0.1458 C   0  0  0  0  0  0  0  0  0  0  0  0
   13.1598   -3.3168    0.4087 C   0  0  0  0  0  0  0  0  0  0  0  0
   13.7451   -4.6684    0.0757 C   0  0  0  0  0  0  0  0  0  0  0  0
   14.0188   -4.8974   -1.3622 N   0  0  0  0  0  0  0  0  0  0  0  0
   15.1337   -4.0310   -1.8149 C   0  0  0  0  0  0  0  0  0  0  0  0
   15.5556   -4.3590   -3.2557 C   0  0  0  0  0  0  0  0  0  0  0  0
   15.9679   -5.8264   -3.3511 C   0  0  0  0  0  0  0  0  0  0  0  0
   14.7770   -6.6889   -2.9489 C   0  0  0  0  0  0  0  0  0  0  0  0
   14.3506   -6.3386   -1.5206 C   0  0  0  0  0  0  0  0  0  0  0  0
   13.7882   -2.4824    1.3504 C   0  0  0  0  0  0  0  0  0  0  0  0
   13.1764   -1.2943    1.7668 C   0  0  0  0  0  0  0  0  0  0  0  0
   10.0378    1.7265    0.2029 C   0  0  0  0  0  0  0  0  0  0  0  0
   10.0603    3.0718    0.5945 C   0  0  0  0  0  0  0  0  0  0  0  0
   10.0995    4.0832   -0.3681 C   0  0  0  0  0  0  0  0  0  0  0  0
   10.1193    3.7559   -1.7267 C   0  0  0  0  0  0  0  0  0  0  0  0
   10.0985    2.4156   -2.1242 C   0  0  0  0  0  0  0  0  0  0  0  0
   10.0596    1.3995   -1.1637 C   0  0  0  0  0  0  0  0  0  0  0  0
    0.8774   -2.3204    2.2258 Cl  0  0  0  0  0  0  0  0  0  0  0  0
    0.5806    0.8078   -1.3385 H   0  0  0  0  0  0  0  0  0  0  0  0
    0.6675    1.4494    0.3241 H   0  0  0  0  0  0  0  0  0  0  0  0
    0.6453   -0.3398    0.0355 H   0  0  0  0  0  0  0  0  0  0  0  0
    2.3950    0.6267   -2.4982 H   0  0  0  0  0  0  0  0  0  0  0  0
    3.8536   -0.1080   -1.8017 H   0  0  0  0  0  0  0  0  0  0  0  0
    3.5682    1.7196   -1.8294 H   0  0  0  0  0  0  0  0  0  0  0  0
    5.2012    1.8253   -0.6443 H   0  0  0  0  0  0  0  0  0  0  0  0
    7.5448    1.7641   -0.3555 H   0  0  0  0  0  0  0  0  0  0  0  0
    4.6574   -0.9009    2.7042 H   0  0  0  0  0  0  0  0  0  0  0  0
    7.0515   -1.6546    3.8567 H   0  0  0  0  0  0  0  0  0  0  0  0
   11.8034    0.8999    2.3620 H   0  0  0  0  0  0  0  0  0  0  0  0
   10.3673   -1.4848   -0.1573 H   0  0  0  0  0  0  0  0  0  0  0  0
   11.4408   -3.5466   -0.8770 H   0  0  0  0  0  0  0  0  0  0  0  0
   12.9866   -5.4048    0.4237 H   0  0  0  0  0  0  0  0  0  0  0  0
   14.6673   -4.8471    0.6750 H   0  0  0  0  0  0  0  0  0  0  0  0
   16.0180   -4.1530   -1.1499 H   0  0  0  0  0  0  0  0  0  0  0  0
   14.8156   -2.9662   -1.7851 H   0  0  0  0  0  0  0  0  0  0  0  0
   16.4065   -3.7105   -3.5545 H   0  0  0  0  0  0  0  0  0  0  0  0
   14.7082   -4.1685   -3.9513 H   0  0  0  0  0  0  0  0  0  0  0  0
   16.8282   -6.0243   -2.6711 H   0  0  0  0  0  0  0  0  0  0  0  0
   16.2806   -6.0732   -4.3877 H   0  0  0  0  0  0  0  0  0  0  0  0
   15.0533   -7.7649   -3.0011 H   0  0  0  0  0  0  0  0  0  0  0  0
   13.9332   -6.5104   -3.6506 H   0  0  0  0  0  0  0  0  0  0  0  0
   15.1745   -6.6268   -0.8279 H   0  0  0  0  0  0  0  0  0  0  0  0
   13.4587   -6.9577   -1.2737 H   0  0  0  0  0  0  0  0  0  0  0  0
   14.7346   -2.7671    1.7929 H   0  0  0  0  0  0  0  0  0  0  0  0
   13.6653   -0.6795    2.5129 H   0  0  0  0  0  0  0  0  0  0  0  0
   10.0491    3.3344    1.6454 H   0  0  0  0  0  0  0  0  0  0  0  0
   10.1178    5.1201   -0.0594 H   0  0  0  0  0  0  0  0  0  0  0  0
   10.1533    4.5413   -2.4703 H   0  0  0  0  0  0  0  0  0  0  0  0
   10.1153    2.1649   -3.1770 H   0  0  0  0  0  0  0  0  0  0  0  0
   10.0455    0.3688   -1.4893 H   0  0  0  0  0  0  0  0  0  0  0  0
    0.3038   -1.0698    2.2941 H   0  0  0  0  0  0  0  0  0  0  0  0
  1  2  1  0  0  0  0
  1 38  1  0  0  0  0
  1 39  1  0  0  0  0
  1 40  1  0  0  0  0
  2  3  1  0  0  0  0
  2  4  1  0  0  0  0
  3 41  1  0  0  0  0
  3 42  1  0  0  0  0
  3 43  1  0  0  0  0
  4  5  2  0  0  0  0
  4  6  1  0  0  0  0
  6  7  1  0  0  0  0
  6 11  2  0  0  0  0
  7  8  2  0  0  0  0
  7 44  1  0  0  0  0
  8  9  1  0  0  0  0
  8 45  1  0  0  0  0
  9 10  2  0  0  0  0
  9 15  1  0  0  0  0
 10 11  1  0  0  0  0
 10 12  1  0  0  0  0
 11 46  1  0  0  0  0
 12 13  1  0  0  0  0
 12 47  1  0  0  0  0
 13 14  2  0  0  0  0
 13 15  1  0  0  0  0
 15 16  2  0  0  0  0
 16 17  1  0  0  0  0
 16 31  1  0  0  0  0
 17 18  1  0  0  0  0
 17 48  1  0  0  0  0
 18 19  1  0  0  0  0
 18 30  2  0  0  0  0
 19 20  2  0  0  0  0
 19 49  1  0  0  0  0
 20 21  1  0  0  0  0
 20 50  1  0  0  0  0
 21 22  1  0  0  0  0
 21 29  2  0  0  0  0
 22 23  1  0  0  0  0
 22 51  1  0  0  0  0
 22 52  1  0  0  0  0
 23 24  1  0  0  0  0
 23 28  1  0  0  0  0
 24 25  1  0  0  0  0
 24 53  1  0  0  0  0
 24 54  1  0  0  0  0
 25 26  1  0  0  0  0
 25 55  1  0  0  0  0
 25 56  1  0  0  0  0
 26 27  1  0  0  0  0
 26 57  1  0  0  0  0
 26 58  1  0  0  0  0
 27 28  1  0  0  0  0
 27 59  1  0  0  0  0
 27 60  1  0  0  0  0
 28 61  1  0  0  0  0
 28 62  1  0  0  0  0
 29 30  1  0  0  0  0
 29 63  1  0  0  0  0
 30 64  1  0  0  0  0
 31 32  1  0  0  0  0
 31 36  2  0  0  0  0
 32 33  2  0  0  0  0
 32 65  1  0  0  0  0
 33 34  1  0  0  0  0
 33 66  1  0  0  0  0
 34 35  2  0  0  0  0
 34 67  1  0  0  0  0
 35 36  1  0  0  0  0
 35 68  1  0  0  0  0
 36 69  1  0  0  0  0
 37 70  1  0  0  0  0
M  END
$$$$
