CHEMBL202244
 OpenBabel04072215363D

 58 63  0  0  0  0  0  0  0  0999 V2000
    1.2736   -0.4046    1.8484 C   0  0  0  0  0  0  0  0  0  0  0  0
    2.6922   -0.3441    1.6306 O   0  0  0  0  0  0  0  0  0  0  0  0
    3.1368   -1.0553    0.5566 C   0  0  0  0  0  0  0  0  0  0  0  0
    2.4445   -1.7097   -0.2041 O   0  0  0  0  0  0  0  0  0  0  0  0
    4.6237   -1.0157    0.4453 C   0  0  0  0  0  0  0  0  0  0  0  0
    5.3456    0.1369    0.8406 C   0  0  0  0  0  0  0  0  0  0  0  0
    4.5061    1.1836    1.2424 O   0  0  0  0  0  0  0  0  0  0  0  0
    4.9680    2.5083    1.0401 C   0  0  0  0  0  0  0  0  0  0  0  0
    3.9866    3.6416    0.7889 C   0  0  0  0  0  0  0  0  0  0  0  0
    4.7989    4.8742    0.6199 N   0  0  0  0  0  0  0  0  0  0  0  0
    5.6420    5.2643    1.7530 C   0  0  0  0  0  0  0  0  0  0  0  0
    4.8661    6.3539    2.4616 C   0  0  0  0  0  0  0  0  0  0  0  0
    4.2441    7.1171    1.3080 C   0  0  0  0  0  0  0  0  0  0  0  0
    4.0264    6.0626    0.2251 C   0  0  0  0  0  0  0  0  0  0  0  0
    6.7996    0.1856    0.8443 C   0  0  0  0  0  0  0  0  0  0  0  0
    7.5673    1.2538    1.3374 C   0  0  0  0  0  0  0  0  0  0  0  0
    8.9467    1.2591    1.5151 C   0  0  0  0  0  0  0  0  0  0  0  0
    9.8078    0.7023    0.6124 C   0  0  0  0  0  0  0  0  0  0  0  0
    9.1065   -0.4689    0.3032 C   0  0  0  0  0  0  0  0  0  0  0  0
    7.6063   -0.8490    0.3798 C   0  0  0  0  0  0  0  0  0  0  0  0
    6.7727   -2.0714    0.0755 C   0  0  0  0  0  0  0  0  0  0  0  0
    7.2508   -3.3116   -0.3251 O   0  0  0  0  0  0  0  0  0  0  0  0
    6.1859   -4.1467   -0.5468 C   0  0  0  0  0  0  0  0  0  0  0  0
    4.9914   -3.5024   -0.3152 C   0  0  0  0  0  0  0  0  0  0  0  0
    5.3526   -2.1708    0.1048 C   0  0  0  0  0  0  0  0  0  0  0  0
    3.7262   -4.1692   -0.6172 C   0  0  0  0  0  0  0  0  0  0  0  0
    2.6326   -3.6243   -0.6666 O   0  0  0  0  0  0  0  0  0  0  0  0
    3.8135   -5.5860   -1.0548 C   0  0  0  0  0  0  0  0  0  0  0  0
    2.6158   -6.2651   -1.3255 C   0  0  0  0  0  0  0  0  0  0  0  0
    2.6532   -7.5745   -1.7965 C   0  0  0  0  0  0  0  0  0  0  0  0
    3.8700   -8.2058   -2.0272 C   0  0  0  0  0  0  0  0  0  0  0  0
    5.0614   -7.5237   -1.7785 C   0  0  0  0  0  0  0  0  0  0  0  0
    5.0467   -6.2142   -1.2834 C   0  0  0  0  0  0  0  0  0  0  0  0
    6.3387   -5.4997   -1.0380 C   0  0  0  0  0  0  0  0  0  0  0  0
    7.3987   -6.0782   -1.2523 O   0  0  0  0  0  0  0  0  0  0  0  0
    1.0524   -0.0400    2.8589 H   0  0  0  0  0  0  0  0  0  0  0  0
    0.8799   -1.4262    1.7741 H   0  0  0  0  0  0  0  0  0  0  0  0
    0.7715    0.2535    1.1347 H   0  0  0  0  0  0  0  0  0  0  0  0
    5.5827    2.5025    0.1317 H   0  0  0  0  0  0  0  0  0  0  0  0
    5.4584    2.8181    1.9720 H   0  0  0  0  0  0  0  0  0  0  0  0
    3.3221    3.6878    1.6544 H   0  0  0  0  0  0  0  0  0  0  0  0
    3.4027    3.3813   -0.0972 H   0  0  0  0  0  0  0  0  0  0  0  0
    6.5707    5.6975    1.3536 H   0  0  0  0  0  0  0  0  0  0  0  0
    5.9413    4.4433    2.4100 H   0  0  0  0  0  0  0  0  0  0  0  0
    5.5060    6.9935    3.0784 H   0  0  0  0  0  0  0  0  0  0  0  0
    4.0910    5.9180    3.1012 H   0  0  0  0  0  0  0  0  0  0  0  0
    4.9414    7.8846    0.9480 H   0  0  0  0  0  0  0  0  0  0  0  0
    3.3165    7.6197    1.5988 H   0  0  0  0  0  0  0  0  0  0  0  0
    4.3976    6.4370   -0.7368 H   0  0  0  0  0  0  0  0  0  0  0  0
    2.9579    5.8619    0.0984 H   0  0  0  0  0  0  0  0  0  0  0  0
    7.2175    2.2126    1.6441 H   0  0  0  0  0  0  0  0  0  0  0  0
    9.2384    0.7484    2.4555 H   0  0  0  0  0  0  0  0  0  0  0  0
   10.3442    1.6465    0.8649 H   0  0  0  0  0  0  0  0  0  0  0  0
    9.7876   -1.2868    0.0999 H   0  0  0  0  0  0  0  0  0  0  0  0
    1.6484   -5.7836   -1.1735 H   0  0  0  0  0  0  0  0  0  0  0  0
    1.7243   -8.0978   -1.9983 H   0  0  0  0  0  0  0  0  0  0  0  0
    3.8911   -9.2138   -2.4369 H   0  0  0  0  0  0  0  0  0  0  0  0
    6.0045   -8.0233   -1.9726 H   0  0  0  0  0  0  0  0  0  0  0  0
  1  2  1  0  0  0  0
  1 36  1  0  0  0  0
  1 37  1  0  0  0  0
  1 38  1  0  0  0  0
  2  3  1  0  0  0  0
  3  4  2  0  0  0  0
  3  5  1  0  0  0  0
  5  6  1  0  0  0  0
  5 25  2  0  0  0  0
  6  7  1  0  0  0  0
  6 15  2  0  0  0  0
  7  8  1  0  0  0  0
  8  9  1  0  0  0  0
  8 39  1  0  0  0  0
  8 40  1  0  0  0  0
  9 10  1  0  0  0  0
  9 41  1  0  0  0  0
  9 42  1  0  0  0  0
 10 11  1  0  0  0  0
 10 14  1  0  0  0  0
 11 12  1  0  0  0  0
 11 43  1  0  0  0  0
 11 44  1  0  0  0  0
 12 13  1  0  0  0  0
 12 45  1  0  0  0  0
 12 46  1  0  0  0  0
 13 14  1  0  0  0  0
 13 47  1  0  0  0  0
 13 48  1  0  0  0  0
 14 49  1  0  0  0  0
 14 50  1  0  0  0  0
 15 16  1  0  0  0  0
 15 20  1  0  0  0  0
 16 17  2  0  0  0  0
 16 51  1  0  0  0  0
 17 18  1  0  0  0  0
 17 52  1  0  0  0  0
 18 19  2  0  0  0  0
 18 53  1  0  0  0  0
 19 20  1  0  0  0  0
 19 54  1  0  0  0  0
 20 21  2  0  0  0  0
 21 22  1  0  0  0  0
 21 25  1  0  0  0  0
 22 23  1  0  0  0  0
 23 24  2  0  0  0  0
 23 34  1  0  0  0  0
 24 25  1  0  0  0  0
 24 26  1  0  0  0  0
 26 27  2  0  0  0  0
 26 28  1  0  0  0  0
 28 29  1  0  0  0  0
 28 33  2  0  0  0  0
 29 30  2  0  0  0  0
 29 55  1  0  0  0  0
 30 31  1  0  0  0  0
 30 56  1  0  0  0  0
 31 32  2  0  0  0  0
 31 57  1  0  0  0  0
 32 33  1  0  0  0  0
 32 58  1  0  0  0  0
 33 34  1  0  0  0  0
 34 35  2  0  0  0  0
M  END
$$$$
