CHEMBL3962147
 OpenBabel04072215373D

 54 57  0  0  0  0  0  0  0  0999 V2000
    4.5543   -3.4261   -4.6158 C   0  0  0  0  0  0  0  0  0  0  0  0
    3.0482   -3.2576   -4.4682 C   0  0  0  0  0  0  0  0  0  0  0  0
    2.6484   -2.2647   -5.3131 F   0  0  0  0  0  0  0  0  0  0  0  0
    2.4701   -4.3876   -4.9851 F   0  0  0  0  0  0  0  0  0  0  0  0
    2.6439   -3.0309   -3.0258 C   0  0  0  0  0  0  0  0  0  0  0  0
    2.3480   -4.1613   -2.2313 C   0  0  0  0  0  0  0  0  0  0  0  0
    1.9968   -4.0522   -0.8752 C   0  0  0  0  0  0  0  0  0  0  0  0
    1.7318   -5.1847   -0.0671 N   0  0  0  0  0  0  0  0  0  0  0  0
    2.2309   -6.4498   -0.3251 C   0  0  0  0  0  0  0  0  0  0  0  0
    3.0775   -6.6837   -1.1842 O   0  0  0  0  0  0  0  0  0  0  0  0
    1.6537   -7.4275    0.4809 N   0  0  0  0  0  0  0  0  0  0  0  0
    2.0555   -8.7825    0.3299 C   0  0  0  0  0  0  0  0  0  0  0  0
    3.4138   -9.1022    0.2131 C   0  0  0  0  0  0  0  0  0  0  0  0
    3.8111  -10.3950   -0.1163 C   0  0  0  0  0  0  0  0  0  0  0  0
    2.8507  -11.3774   -0.3211 C   0  0  0  0  0  0  0  0  0  0  0  0
    1.4938  -11.1005   -0.1076 C   0  0  0  0  0  0  0  0  0  0  0  0
    0.4996  -12.0430   -0.3203 O   0  0  0  0  0  0  0  0  0  0  0  0
    0.7582  -13.3609    0.0576 C   0  0  0  0  0  0  0  0  0  0  0  0
    0.0462  -14.3641   -0.5741 C   0  0  0  0  0  0  0  0  0  0  0  0
    0.3211  -15.6525   -0.1547 C   0  0  0  0  0  0  0  0  0  0  0  0
   -0.4020  -16.7279   -0.7097 N   0  0  0  0  0  0  0  0  0  0  0  0
   -0.2426  -18.0449   -0.3137 C   0  0  0  0  0  0  0  0  0  0  0  0
    0.5557  -18.4779    0.5033 O   0  0  0  0  0  0  0  0  0  0  0  0
   -1.1485  -19.0513   -0.9477 C   0  0  0  0  0  0  0  0  0  0  0  0
   -1.0250  -19.3338   -2.4258 C   0  0  0  0  0  0  0  0  0  0  0  0
   -2.3068  -18.7834   -1.8692 C   0  0  0  0  0  0  0  0  0  0  0  0
    1.2442  -15.9046    0.7807 N   0  0  0  0  0  0  0  0  0  0  0  0
    1.8672  -14.8657    1.3354 C   0  0  0  0  0  0  0  0  0  0  0  0
    1.6479  -13.5880    1.0400 N   0  0  0  0  0  0  0  0  0  0  0  0
    1.0933   -9.7973    0.2251 C   0  0  0  0  0  0  0  0  0  0  0  0
    1.8918   -2.7817   -0.3160 C   0  0  0  0  0  0  0  0  0  0  0  0
    2.1852   -1.6491   -1.0849 C   0  0  0  0  0  0  0  0  0  0  0  0
    2.5695   -1.7703   -2.4268 C   0  0  0  0  0  0  0  0  0  0  0  0
    2.9553   -0.3126   -3.2677 Cl  0  0  0  0  0  0  0  0  0  0  0  0
    4.8152   -3.5278   -5.6754 H   0  0  0  0  0  0  0  0  0  0  0  0
    4.9048   -4.3298   -4.1052 H   0  0  0  0  0  0  0  0  0  0  0  0
    5.1033   -2.5653   -4.2226 H   0  0  0  0  0  0  0  0  0  0  0  0
    2.3908   -5.1370   -2.7076 H   0  0  0  0  0  0  0  0  0  0  0  0
    1.4373   -5.0197    0.8864 H   0  0  0  0  0  0  0  0  0  0  0  0
    0.6834   -7.2655    0.7074 H   0  0  0  0  0  0  0  0  0  0  0  0
    4.1769   -8.3378    0.3410 H   0  0  0  0  0  0  0  0  0  0  0  0
    4.8661  -10.6226   -0.2447 H   0  0  0  0  0  0  0  0  0  0  0  0
    3.1781  -12.3639   -0.6348 H   0  0  0  0  0  0  0  0  0  0  0  0
   -0.6784  -14.1356   -1.3416 H   0  0  0  0  0  0  0  0  0  0  0  0
   -1.0897  -16.5171   -1.4116 H   0  0  0  0  0  0  0  0  0  0  0  0
   -1.2699  -19.9258   -0.3060 H   0  0  0  0  0  0  0  0  0  0  0  0
   -0.9946  -20.3747   -2.7295 H   0  0  0  0  0  0  0  0  0  0  0  0
   -0.4025  -18.6830   -3.0279 H   0  0  0  0  0  0  0  0  0  0  0  0
   -3.1546  -19.4597   -1.8070 H   0  0  0  0  0  0  0  0  0  0  0  0
   -2.5903  -17.7735   -2.1291 H   0  0  0  0  0  0  0  0  0  0  0  0
    2.6165  -15.0843    2.0870 H   0  0  0  0  0  0  0  0  0  0  0  0
    0.0365   -9.5744    0.3273 H   0  0  0  0  0  0  0  0  0  0  0  0
    1.6167   -2.6482    0.7274 H   0  0  0  0  0  0  0  0  0  0  0  0
    2.1238   -0.6641   -0.6252 H   0  0  0  0  0  0  0  0  0  0  0  0
  1  2  1  0  0  0  0
  1 35  1  0  0  0  0
  1 36  1  0  0  0  0
  1 37  1  0  0  0  0
  2  3  1  0  0  0  0
  2  4  1  0  0  0  0
  2  5  1  0  0  0  0
  5  6  1  0  0  0  0
  5 33  2  0  0  0  0
  6  7  2  0  0  0  0
  6 38  1  0  0  0  0
  7  8  1  0  0  0  0
  7 31  1  0  0  0  0
  8  9  1  0  0  0  0
  8 39  1  0  0  0  0
  9 10  2  0  0  0  0
  9 11  1  0  0  0  0
 11 12  1  0  0  0  0
 11 40  1  0  0  0  0
 12 13  1  0  0  0  0
 12 30  2  0  0  0  0
 13 14  2  0  0  0  0
 13 41  1  0  0  0  0
 14 15  1  0  0  0  0
 14 42  1  0  0  0  0
 15 16  2  0  0  0  0
 15 43  1  0  0  0  0
 16 17  1  0  0  0  0
 16 30  1  0  0  0  0
 17 18  1  0  0  0  0
 18 19  1  0  0  0  0
 18 29  2  0  0  0  0
 19 20  2  0  0  0  0
 19 44  1  0  0  0  0
 20 21  1  0  0  0  0
 20 27  1  0  0  0  0
 21 22  1  0  0  0  0
 21 45  1  0  0  0  0
 22 23  2  0  0  0  0
 22 24  1  0  0  0  0
 24 25  1  0  0  0  0
 24 26  1  0  0  0  0
 24 46  1  0  0  0  0
 25 26  1  0  0  0  0
 25 47  1  0  0  0  0
 25 48  1  0  0  0  0
 26 49  1  0  0  0  0
 26 50  1  0  0  0  0
 27 28  2  0  0  0  0
 28 29  1  0  0  0  0
 28 51  1  0  0  0  0
 30 52  1  0  0  0  0
 31 32  2  0  0  0  0
 31 53  1  0  0  0  0
 32 33  1  0  0  0  0
 32 54  1  0  0  0  0
 33 34  1  0  0  0  0
M  END
$$$$
