CHEMBL201014
 OpenBabel04072215363D

 55 58  0  0  0  0  0  0  0  0999 V2000
    6.3156    1.4554   -0.1889 C   0  0  0  0  0  0  0  0  0  0  0  0
    7.5585    0.5408   -0.2933 C   0  0  0  0  0  0  0  0  0  0  0  0
    8.6473    1.3364   -1.0424 C   0  0  0  0  0  0  0  0  0  0  0  0
    8.0393    0.2530    1.1448 C   0  0  0  0  0  0  0  0  0  0  0  0
    7.2733   -0.7919   -1.0099 C   0  0  0  0  0  0  0  0  0  0  0  0
    5.9935   -1.1274   -1.4740 C   0  0  0  0  0  0  0  0  0  0  0  0
    5.7295   -2.3559   -2.0885 C   0  0  0  0  0  0  0  0  0  0  0  0
    6.7402   -3.2946   -2.2627 C   0  0  0  0  0  0  0  0  0  0  0  0
    6.5385   -4.5603   -2.8586 N   0  0  0  0  0  0  0  0  0  0  0  0
    5.3604   -5.0949   -3.3727 C   0  0  0  0  0  0  0  0  0  0  0  0
    4.2788   -4.5144   -3.3658 O   0  0  0  0  0  0  0  0  0  0  0  0
    5.4961   -6.4345   -3.9433 C   0  0  0  0  0  0  0  0  0  0  0  0
    6.9898   -7.2953   -3.8844 S   0  0  0  0  0  0  0  0  0  0  0  0
    6.2606   -8.6161   -4.6724 C   0  0  0  0  0  0  0  0  0  0  0  0
    4.9911   -8.4786   -4.9770 N   0  0  0  0  0  0  0  0  0  0  0  0
    4.5379   -7.2269   -4.5741 C   0  0  0  0  0  0  0  0  0  0  0  0
    3.0818   -6.9369   -4.8028 C   0  0  0  0  0  0  0  0  0  0  0  0
    2.7648   -5.9792   -5.9556 C   0  0  0  0  0  0  0  0  0  0  0  0
    2.9714   -6.3467   -7.4172 C   0  0  0  0  0  0  0  0  0  0  0  0
    3.4266   -7.5981   -7.8338 C   0  0  0  0  0  0  0  0  0  0  0  0
    3.6339   -7.8175   -9.1871 C   0  0  0  0  0  0  0  0  0  0  0  0
    3.4341   -6.8914  -10.1480 N   0  0  0  0  0  0  0  0  0  0  0  0
    2.9864   -5.6852   -9.7678 C   0  0  0  0  0  0  0  0  0  0  0  0
    2.7939   -4.7124  -10.7426 C   0  0  0  0  0  0  0  0  0  0  0  0
    2.3246   -3.4330  -10.4333 C   0  0  0  0  0  0  0  0  0  0  0  0
    2.0030   -3.1218   -9.1233 C   0  0  0  0  0  0  0  0  0  0  0  0
    2.1864   -4.0783   -8.1280 C   0  0  0  0  0  0  0  0  0  0  0  0
    2.7075   -5.3633   -8.4189 C   0  0  0  0  0  0  0  0  0  0  0  0
    8.0270   -2.9778   -1.8167 C   0  0  0  0  0  0  0  0  0  0  0  0
    8.2887   -1.7426   -1.2035 C   0  0  0  0  0  0  0  0  0  0  0  0
    6.5555    2.4000    0.3120 H   0  0  0  0  0  0  0  0  0  0  0  0
    5.5146    0.9795    0.3894 H   0  0  0  0  0  0  0  0  0  0  0  0
    5.9181    1.7073   -1.1794 H   0  0  0  0  0  0  0  0  0  0  0  0
    8.8119    2.3141   -0.5728 H   0  0  0  0  0  0  0  0  0  0  0  0
    8.3621    1.5141   -2.0860 H   0  0  0  0  0  0  0  0  0  0  0  0
    9.6119    0.8173   -1.0459 H   0  0  0  0  0  0  0  0  0  0  0  0
    8.2131    1.1837    1.6974 H   0  0  0  0  0  0  0  0  0  0  0  0
    8.9782   -0.3118    1.1606 H   0  0  0  0  0  0  0  0  0  0  0  0
    7.2954   -0.3313    1.6993 H   0  0  0  0  0  0  0  0  0  0  0  0
    5.1527   -0.4466   -1.3686 H   0  0  0  0  0  0  0  0  0  0  0  0
    4.7102   -2.5391   -2.4109 H   0  0  0  0  0  0  0  0  0  0  0  0
    7.3542   -5.1547   -2.9235 H   0  0  0  0  0  0  0  0  0  0  0  0
    6.8083   -9.5203   -4.9033 H   0  0  0  0  0  0  0  0  0  0  0  0
    2.6812   -6.4920   -3.8814 H   0  0  0  0  0  0  0  0  0  0  0  0
    2.5336   -7.8779   -4.9320 H   0  0  0  0  0  0  0  0  0  0  0  0
    3.3299   -5.0561   -5.7806 H   0  0  0  0  0  0  0  0  0  0  0  0
    1.6974   -5.7399   -5.8549 H   0  0  0  0  0  0  0  0  0  0  0  0
    3.6350   -8.4037   -7.1395 H   0  0  0  0  0  0  0  0  0  0  0  0
    3.9898   -8.7784   -9.5499 H   0  0  0  0  0  0  0  0  0  0  0  0
    3.0309   -4.9533  -11.7762 H   0  0  0  0  0  0  0  0  0  0  0  0
    2.2093   -2.6889  -11.2163 H   0  0  0  0  0  0  0  0  0  0  0  0
    1.6185   -2.1387   -8.8648 H   0  0  0  0  0  0  0  0  0  0  0  0
    1.9165   -3.8030   -7.1119 H   0  0  0  0  0  0  0  0  0  0  0  0
    8.8482   -3.6809   -1.9362 H   0  0  0  0  0  0  0  0  0  0  0  0
    9.3049   -1.5406   -0.8676 H   0  0  0  0  0  0  0  0  0  0  0  0
  1  2  1  0  0  0  0
  1 31  1  0  0  0  0
  1 32  1  0  0  0  0
  1 33  1  0  0  0  0
  2  3  1  0  0  0  0
  2  4  1  0  0  0  0
  2  5  1  0  0  0  0
  3 34  1  0  0  0  0
  3 35  1  0  0  0  0
  3 36  1  0  0  0  0
  4 37  1  0  0  0  0
  4 38  1  0  0  0  0
  4 39  1  0  0  0  0
  5  6  1  0  0  0  0
  5 30  2  0  0  0  0
  6  7  2  0  0  0  0
  6 40  1  0  0  0  0
  7  8  1  0  0  0  0
  7 41  1  0  0  0  0
  8  9  1  0  0  0  0
  8 29  2  0  0  0  0
  9 10  1  0  0  0  0
  9 42  1  0  0  0  0
 10 11  2  0  0  0  0
 10 12  1  0  0  0  0
 12 13  1  0  0  0  0
 12 16  2  0  0  0  0
 13 14  1  0  0  0  0
 14 15  2  0  0  0  0
 14 43  1  0  0  0  0
 15 16  1  0  0  0  0
 16 17  1  0  0  0  0
 17 18  1  0  0  0  0
 17 44  1  0  0  0  0
 17 45  1  0  0  0  0
 18 19  1  0  0  0  0
 18 46  1  0  0  0  0
 18 47  1  0  0  0  0
 19 20  1  0  0  0  0
 19 28  2  0  0  0  0
 20 21  2  0  0  0  0
 20 48  1  0  0  0  0
 21 22  1  0  0  0  0
 21 49  1  0  0  0  0
 22 23  2  0  0  0  0
 23 24  1  0  0  0  0
 23 28  1  0  0  0  0
 24 25  2  0  0  0  0
 24 50  1  0  0  0  0
 25 26  1  0  0  0  0
 25 51  1  0  0  0  0
 26 27  2  0  0  0  0
 26 52  1  0  0  0  0
 27 28  1  0  0  0  0
 27 53  1  0  0  0  0
 29 30  1  0  0  0  0
 29 54  1  0  0  0  0
 30 55  1  0  0  0  0
M  END
$$$$
