CHEMBL3931682
 OpenBabel04072215373D

 72 76  0  0  0  0  0  0  0  0999 V2000
    1.9454   -1.3755    6.8378 C   0  0  0  0  0  0  0  0  0  0  0  0
    1.2730   -0.5715    5.8187 N   0  0  0  0  0  0  0  0  0  0  0  0
    0.8256   -1.4199    4.6944 C   0  0  0  0  0  0  0  0  0  0  0  0
    0.0489   -0.5952    3.6407 C   0  0  0  0  0  0  0  0  0  0  0  0
   -1.1458    0.1031    4.1668 N   0  0  0  0  0  0  0  0  0  0  0  0
   -2.2452   -0.7877    4.5808 C   0  0  0  0  0  0  0  0  0  0  0  0
   -2.8025   -1.6882    3.4909 C   0  0  0  0  0  0  0  0  0  0  0  0
   -2.1766   -2.9077    3.1908 C   0  0  0  0  0  0  0  0  0  0  0  0
   -2.6409   -3.7008    2.1443 C   0  0  0  0  0  0  0  0  0  0  0  0
   -2.0225   -4.9131    1.8199 N   0  0  0  0  0  0  0  0  0  0  0  0
   -0.7784   -4.9284    1.2175 C   0  0  0  0  0  0  0  0  0  0  0  0
   -0.2139   -3.9500    0.7368 O   0  0  0  0  0  0  0  0  0  0  0  0
   -0.1237   -6.1419    1.2488 N   0  0  0  0  0  0  0  0  0  0  0  0
   -0.6080   -7.3345    1.8039 C   0  0  0  0  0  0  0  0  0  0  0  0
   -1.9134   -7.7663    1.5549 C   0  0  0  0  0  0  0  0  0  0  0  0
   -2.4450   -8.8309    2.2734 C   0  0  0  0  0  0  0  0  0  0  0  0
   -1.6399   -9.5350    3.1724 C   0  0  0  0  0  0  0  0  0  0  0  0
   -2.0873  -10.6111    3.9088 O   0  0  0  0  0  0  0  0  0  0  0  0
   -2.9452  -11.5150    3.3157 C   0  0  0  0  0  0  0  0  0  0  0  0
   -2.9542  -11.7910    1.9519 C   0  0  0  0  0  0  0  0  0  0  0  0
   -3.9042  -12.6656    1.4791 C   0  0  0  0  0  0  0  0  0  0  0  0
   -4.7690  -13.3126    2.2776 N   0  0  0  0  0  0  0  0  0  0  0  0
   -4.7136  -13.1055    3.6023 C   0  0  0  0  0  0  0  0  0  0  0  0
   -5.5902  -13.8054    4.4431 N   0  0  0  0  0  0  0  0  0  0  0  0
   -6.5113  -14.7379    3.9974 C   0  0  0  0  0  0  0  0  0  0  0  0
   -6.7053  -15.1077    2.8465 O   0  0  0  0  0  0  0  0  0  0  0  0
   -7.3723  -15.2907    5.0876 C   0  0  0  0  0  0  0  0  0  0  0  0
   -8.3521  -16.4074    4.7924 C   0  0  0  0  0  0  0  0  0  0  0  0
   -8.8601  -15.0194    5.0473 C   0  0  0  0  0  0  0  0  0  0  0  0
   -3.8156  -12.2037    4.1642 C   0  0  0  0  0  0  0  0  0  0  0  0
   -0.3223   -9.1255    3.3937 C   0  0  0  0  0  0  0  0  0  0  0  0
    0.2042   -8.0376    2.6919 C   0  0  0  0  0  0  0  0  0  0  0  0
   -3.8108   -3.3796    1.4770 C   0  0  0  0  0  0  0  0  0  0  0  0
   -4.5052   -2.2129    1.8081 C   0  0  0  0  0  0  0  0  0  0  0  0
   -5.8293   -1.9277    1.1492 C   0  0  0  0  0  0  0  0  0  0  0  0
   -6.2601   -2.9404    0.3414 F   0  0  0  0  0  0  0  0  0  0  0  0
   -6.8260   -1.7449    2.0601 F   0  0  0  0  0  0  0  0  0  0  0  0
   -5.8137   -0.8113    0.3748 F   0  0  0  0  0  0  0  0  0  0  0  0
   -3.9659   -1.3457    2.7795 C   0  0  0  0  0  0  0  0  0  0  0  0
   -0.6901    0.9331    5.3113 C   0  0  0  0  0  0  0  0  0  0  0  0
    0.1345    0.1738    6.3875 C   0  0  0  0  0  0  0  0  0  0  0  0
    2.7959   -1.9194    6.4022 H   0  0  0  0  0  0  0  0  0  0  0  0
    1.2770   -2.1123    7.2996 H   0  0  0  0  0  0  0  0  0  0  0  0
    2.3540   -0.7366    7.6258 H   0  0  0  0  0  0  0  0  0  0  0  0
    0.2052   -2.2397    5.0690 H   0  0  0  0  0  0  0  0  0  0  0  0
    1.6964   -1.8690    4.2069 H   0  0  0  0  0  0  0  0  0  0  0  0
   -0.2026   -1.2225    2.7809 H   0  0  0  0  0  0  0  0  0  0  0  0
    0.7289    0.1624    3.2268 H   0  0  0  0  0  0  0  0  0  0  0  0
   -3.0735   -0.1573    4.9344 H   0  0  0  0  0  0  0  0  0  0  0  0
   -1.9748   -1.4149    5.4386 H   0  0  0  0  0  0  0  0  0  0  0  0
   -1.3023   -3.2242    3.7523 H   0  0  0  0  0  0  0  0  0  0  0  0
   -2.0580   -5.5740    2.5850 H   0  0  0  0  0  0  0  0  0  0  0  0
    0.8729   -6.0375    1.0996 H   0  0  0  0  0  0  0  0  0  0  0  0
   -2.5331   -7.2667    0.8121 H   0  0  0  0  0  0  0  0  0  0  0  0
   -3.4838   -9.1041    2.1081 H   0  0  0  0  0  0  0  0  0  0  0  0
   -2.2687  -11.3234    1.2551 H   0  0  0  0  0  0  0  0  0  0  0  0
   -4.0092  -12.8724    0.4187 H   0  0  0  0  0  0  0  0  0  0  0  0
   -5.5469  -13.6098    5.4315 H   0  0  0  0  0  0  0  0  0  0  0  0
   -6.9073  -15.3329    6.0677 H   0  0  0  0  0  0  0  0  0  0  0  0
   -8.5170  -17.1614    5.5529 H   0  0  0  0  0  0  0  0  0  0  0  0
   -8.4088  -16.7907    3.7778 H   0  0  0  0  0  0  0  0  0  0  0  0
   -9.3745  -14.8296    5.9808 H   0  0  0  0  0  0  0  0  0  0  0  0
   -9.2573  -14.4710    4.1986 H   0  0  0  0  0  0  0  0  0  0  0  0
   -3.7865  -12.0180    5.2310 H   0  0  0  0  0  0  0  0  0  0  0  0
    0.2912   -9.6415    4.1275 H   0  0  0  0  0  0  0  0  0  0  0  0
    1.2160   -7.7028    2.9057 H   0  0  0  0  0  0  0  0  0  0  0  0
   -4.1916   -4.0556    0.7140 H   0  0  0  0  0  0  0  0  0  0  0  0
   -4.4750   -0.4071    2.9977 H   0  0  0  0  0  0  0  0  0  0  0  0
   -1.5449    1.4274    5.7875 H   0  0  0  0  0  0  0  0  0  0  0  0
   -0.0673    1.7441    4.9114 H   0  0  0  0  0  0  0  0  0  0  0  0
   -0.5288   -0.5037    6.9402 H   0  0  0  0  0  0  0  0  0  0  0  0
    0.5163    0.9053    7.1099 H   0  0  0  0  0  0  0  0  0  0  0  0
  1  2  1  0  0  0  0
  1 42  1  0  0  0  0
  1 43  1  0  0  0  0
  1 44  1  0  0  0  0
  2  3  1  0  0  0  0
  2 41  1  0  0  0  0
  3  4  1  0  0  0  0
  3 45  1  0  0  0  0
  3 46  1  0  0  0  0
  4  5  1  0  0  0  0
  4 47  1  0  0  0  0
  4 48  1  0  0  0  0
  5  6  1  0  0  0  0
  5 40  1  0  0  0  0
  6  7  1  0  0  0  0
  6 49  1  0  0  0  0
  6 50  1  0  0  0  0
  7  8  1  0  0  0  0
  7 39  2  0  0  0  0
  8  9  2  0  0  0  0
  8 51  1  0  0  0  0
  9 10  1  0  0  0  0
  9 33  1  0  0  0  0
 10 11  1  0  0  0  0
 10 52  1  0  0  0  0
 11 12  2  0  0  0  0
 11 13  1  0  0  0  0
 13 14  1  0  0  0  0
 13 53  1  0  0  0  0
 14 15  1  0  0  0  0
 14 32  2  0  0  0  0
 15 16  2  0  0  0  0
 15 54  1  0  0  0  0
 16 17  1  0  0  0  0
 16 55  1  0  0  0  0
 17 18  1  0  0  0  0
 17 31  2  0  0  0  0
 18 19  1  0  0  0  0
 19 20  1  0  0  0  0
 19 30  2  0  0  0  0
 20 21  2  0  0  0  0
 20 56  1  0  0  0  0
 21 22  1  0  0  0  0
 21 57  1  0  0  0  0
 22 23  2  0  0  0  0
 23 24  1  0  0  0  0
 23 30  1  0  0  0  0
 24 25  1  0  0  0  0
 24 58  1  0  0  0  0
 25 26  2  0  0  0  0
 25 27  1  0  0  0  0
 27 28  1  0  0  0  0
 27 29  1  0  0  0  0
 27 59  1  0  0  0  0
 28 29  1  0  0  0  0
 28 60  1  0  0  0  0
 28 61  1  0  0  0  0
 29 62  1  0  0  0  0
 29 63  1  0  0  0  0
 30 64  1  0  0  0  0
 31 32  1  0  0  0  0
 31 65  1  0  0  0  0
 32 66  1  0  0  0  0
 33 34  2  0  0  0  0
 33 67  1  0  0  0  0
 34 35  1  0  0  0  0
 34 39  1  0  0  0  0
 35 36  1  0  0  0  0
 35 37  1  0  0  0  0
 35 38  1  0  0  0  0
 39 68  1  0  0  0  0
 40 41  1  0  0  0  0
 40 69  1  0  0  0  0
 40 70  1  0  0  0  0
 41 71  1  0  0  0  0
 41 72  1  0  0  0  0
M  END
$$$$
