CHEMBL317438
 OpenBabel04072215363D

 53 57  0  0  0  0  0  0  0  0999 V2000
   -2.2565   -0.7891   -0.0360 C   0  0  0  0  0  0  0  0  0  0  0  0
   -2.2659    0.5987    0.0062 C   0  0  0  0  0  0  0  0  0  0  0  0
   -1.0712    1.3272    0.0309 C   0  0  0  0  0  0  0  0  0  0  0  0
    0.1444    0.6195    0.0322 C   0  0  0  0  0  0  0  0  0  0  0  0
    0.1784   -0.7824    0.0064 C   0  0  0  0  0  0  0  0  0  0  0  0
   -1.0464   -1.4853   -0.0498 C   0  0  0  0  0  0  0  0  0  0  0  0
    1.5540   -1.1830    0.0297 C   0  0  0  0  0  0  0  0  0  0  0  0
    2.1483   -2.5103   -0.0286 C   0  0  0  0  0  0  0  0  0  0  0  0
    1.5367   -3.6164    0.5529 C   0  0  0  0  0  0  0  0  0  0  0  0
    1.9999   -4.8860    0.4578 N   0  0  0  0  0  0  0  0  0  0  0  0
    3.1514   -5.0565   -0.2339 C   0  0  0  0  0  0  0  0  0  0  0  0
    3.8774   -4.0239   -0.8216 C   0  0  0  0  0  0  0  0  0  0  0  0
    5.1259   -4.2837   -1.5311 C   0  0  0  0  0  0  0  0  0  0  0  0
    5.4641   -5.4504   -2.2948 C   0  0  0  0  0  0  0  0  0  0  0  0
    6.7322   -5.3898   -2.8269 C   0  0  0  0  0  0  0  0  0  0  0  0
    7.5302   -3.9354   -2.4183 S   0  0  0  0  0  0  0  0  0  0  0  0
    6.1789   -3.3862   -1.5204 C   0  0  0  0  0  0  0  0  0  0  0  0
    3.3480   -2.7337   -0.7152 C   0  0  0  0  0  0  0  0  0  0  0  0
    2.3043   -0.0269    0.1026 C   0  0  0  0  0  0  0  0  0  0  0  0
    1.4538    1.0505    0.0481 N   0  0  0  0  0  0  0  0  0  0  0  0
    1.9236    2.4332    0.0694 C   0  0  0  0  0  0  0  0  0  0  0  0
    2.8203    2.7767   -1.1374 C   0  0  0  0  0  0  0  0  0  0  0  0
    3.3383    4.1633   -1.1488 N   0  0  0  0  0  0  0  0  0  0  0  0
    4.1885    4.4548    0.0174 C   0  0  0  0  0  0  0  0  0  0  0  0
    4.6385    5.9160    0.0131 C   0  0  0  0  0  0  0  0  0  0  0  0
    5.3846    6.2647   -1.2671 C   0  0  0  0  0  0  0  0  0  0  0  0
    4.5708    5.8554   -2.4891 C   0  0  0  0  0  0  0  0  0  0  0  0
    4.0972    4.4032   -2.3932 C   0  0  0  0  0  0  0  0  0  0  0  0
   -3.1922   -1.3417   -0.0616 H   0  0  0  0  0  0  0  0  0  0  0  0
   -3.2163    1.1268    0.0129 H   0  0  0  0  0  0  0  0  0  0  0  0
   -1.1010    2.4109    0.0536 H   0  0  0  0  0  0  0  0  0  0  0  0
   -1.0646   -2.5698   -0.0998 H   0  0  0  0  0  0  0  0  0  0  0  0
    0.6264   -3.5208    1.1371 H   0  0  0  0  0  0  0  0  0  0  0  0
    3.4845   -6.0891   -0.2891 H   0  0  0  0  0  0  0  0  0  0  0  0
    4.8065   -6.2963   -2.4555 H   0  0  0  0  0  0  0  0  0  0  0  0
    7.2319   -6.1283   -3.4415 H   0  0  0  0  0  0  0  0  0  0  0  0
    6.2397   -2.4273   -1.0226 H   0  0  0  0  0  0  0  0  0  0  0  0
    3.8516   -1.9000   -1.1965 H   0  0  0  0  0  0  0  0  0  0  0  0
    3.3744    0.1202    0.1669 H   0  0  0  0  0  0  0  0  0  0  0  0
    2.4598    2.5371    1.0186 H   0  0  0  0  0  0  0  0  0  0  0  0
    1.0577    3.1016    0.0992 H   0  0  0  0  0  0  0  0  0  0  0  0
    2.2189    2.6214   -2.0444 H   0  0  0  0  0  0  0  0  0  0  0  0
    3.6584    2.0709   -1.1988 H   0  0  0  0  0  0  0  0  0  0  0  0
    5.0640    3.7921    0.0381 H   0  0  0  0  0  0  0  0  0  0  0  0
    3.6377    4.2976    0.9495 H   0  0  0  0  0  0  0  0  0  0  0  0
    5.2801    6.1080    0.8805 H   0  0  0  0  0  0  0  0  0  0  0  0
    3.7611    6.5677    0.1151 H   0  0  0  0  0  0  0  0  0  0  0  0
    6.3513    5.7467   -1.2788 H   0  0  0  0  0  0  0  0  0  0  0  0
    5.5951    7.3396   -1.2974 H   0  0  0  0  0  0  0  0  0  0  0  0
    5.1760    5.9890   -3.3933 H   0  0  0  0  0  0  0  0  0  0  0  0
    3.7012    6.5173   -2.5859 H   0  0  0  0  0  0  0  0  0  0  0  0
    4.9644    3.7315   -2.4540 H   0  0  0  0  0  0  0  0  0  0  0  0
    3.4645    4.1949   -3.2647 H   0  0  0  0  0  0  0  0  0  0  0  0
  1  2  1  0  0  0  0
  1  6  2  0  0  0  0
  1 29  1  0  0  0  0
  2  3  2  0  0  0  0
  2 30  1  0  0  0  0
  3  4  1  0  0  0  0
  3 31  1  0  0  0  0
  4  5  2  0  0  0  0
  4 20  1  0  0  0  0
  5  6  1  0  0  0  0
  5  7  1  0  0  0  0
  6 32  1  0  0  0  0
  7  8  1  0  0  0  0
  7 19  2  0  0  0  0
  8  9  1  0  0  0  0
  8 18  2  0  0  0  0
  9 10  2  0  0  0  0
  9 33  1  0  0  0  0
 10 11  1  0  0  0  0
 11 12  2  0  0  0  0
 11 34  1  0  0  0  0
 12 13  1  0  0  0  0
 12 18  1  0  0  0  0
 13 14  1  0  0  0  0
 13 17  2  0  0  0  0
 14 15  2  0  0  0  0
 14 35  1  0  0  0  0
 15 16  1  0  0  0  0
 15 36  1  0  0  0  0
 16 17  1  0  0  0  0
 17 37  1  0  0  0  0
 18 38  1  0  0  0  0
 19 20  1  0  0  0  0
 19 39  1  0  0  0  0
 20 21  1  0  0  0  0
 21 22  1  0  0  0  0
 21 40  1  0  0  0  0
 21 41  1  0  0  0  0
 22 23  1  0  0  0  0
 22 42  1  0  0  0  0
 22 43  1  0  0  0  0
 23 24  1  0  0  0  0
 23 28  1  0  0  0  0
 24 25  1  0  0  0  0
 24 44  1  0  0  0  0
 24 45  1  0  0  0  0
 25 26  1  0  0  0  0
 25 46  1  0  0  0  0
 25 47  1  0  0  0  0
 26 27  1  0  0  0  0
 26 48  1  0  0  0  0
 26 49  1  0  0  0  0
 27 28  1  0  0  0  0
 27 50  1  0  0  0  0
 27 51  1  0  0  0  0
 28 52  1  0  0  0  0
 28 53  1  0  0  0  0
M  END
$$$$
