CHEMBL3671519
 OpenBabel04072215373D

 54 56  0  0  0  0  0  0  0  0999 V2000
    3.3242   -3.7280    0.9423 C   0  0  0  0  0  0  0  0  0  0  0  0
    3.4646   -3.0002   -0.1721 C   0  0  0  0  0  0  0  0  0  0  0  0
    3.6799   -1.5308   -0.0662 C   0  0  0  0  0  0  0  0  0  0  0  0
    3.2164   -0.8689    0.8577 O   0  0  0  0  0  0  0  0  0  0  0  0
    4.4715   -0.9335   -1.0235 N   0  0  0  0  0  0  0  0  0  0  0  0
    5.3355   -1.6744   -1.8524 C   0  0  0  0  0  0  0  0  0  0  0  0
    6.4075   -2.3337   -1.2495 C   0  0  0  0  0  0  0  0  0  0  0  0
    7.0723   -3.3726   -1.9320 C   0  0  0  0  0  0  0  0  0  0  0  0
    8.0230   -4.2209   -1.3447 C   0  0  0  0  0  0  0  0  0  0  0  0
    8.3352   -4.0905    0.0350 N   0  0  0  0  0  0  0  0  0  0  0  0
    8.9396   -5.1225    0.7924 C   0  0  0  0  0  0  0  0  0  0  0  0
    8.5014   -6.4492    0.6722 C   0  0  0  0  0  0  0  0  0  0  0  0
    9.1881   -7.4882    1.3003 C   0  0  0  0  0  0  0  0  0  0  0  0
   10.3059   -7.2000    2.0803 C   0  0  0  0  0  0  0  0  0  0  0  0
   11.3062   -8.6183    2.8281 Br  0  0  0  0  0  0  0  0  0  0  0  0
   10.7066   -5.8821    2.2859 C   0  0  0  0  0  0  0  0  0  0  0  0
   10.0135   -4.8557    1.6491 C   0  0  0  0  0  0  0  0  0  0  0  0
   10.4185   -3.5877    1.8243 F   0  0  0  0  0  0  0  0  0  0  0  0
    8.5964   -5.2242   -2.0353 N   0  0  0  0  0  0  0  0  0  0  0  0
    8.2030   -5.3984   -3.2962 C   0  0  0  0  0  0  0  0  0  0  0  0
    7.2794   -4.6771   -3.9381 N   0  0  0  0  0  0  0  0  0  0  0  0
    6.7134   -3.6803   -3.2531 C   0  0  0  0  0  0  0  0  0  0  0  0
    5.6967   -2.9504   -3.8586 C   0  0  0  0  0  0  0  0  0  0  0  0
    5.0082   -1.9354   -3.1877 C   0  0  0  0  0  0  0  0  0  0  0  0
    4.0058   -1.3363   -3.9108 O   0  0  0  0  0  0  0  0  0  0  0  0
    3.7925    0.0512   -3.6192 C   0  0  0  0  0  0  0  0  0  0  0  0
    3.3487    0.7989   -4.8792 C   0  0  0  0  0  0  0  0  0  0  0  0
    3.2546    2.2390   -4.6532 N   0  0  0  0  0  0  0  0  0  0  0  0
    4.3877    3.0188   -4.6398 C   0  0  0  0  0  0  0  0  0  0  0  0
    5.5000    2.5894   -4.9522 O   0  0  0  0  0  0  0  0  0  0  0  0
    4.1787    4.4477   -4.1668 C   0  0  0  0  0  0  0  0  0  0  0  0
    4.4773    4.5873   -2.3738 S   0  0  0  0  0  0  0  0  0  0  0  0
    6.2366    4.1465   -2.3242 C   0  0  0  0  0  0  0  0  0  0  0  0
    3.2328   -4.8075    0.8932 H   0  0  0  0  0  0  0  0  0  0  0  0
    3.3188   -3.2639    1.9246 H   0  0  0  0  0  0  0  0  0  0  0  0
    3.4896   -3.4704   -1.1470 H   0  0  0  0  0  0  0  0  0  0  0  0
    4.8425   -0.0685   -0.6417 H   0  0  0  0  0  0  0  0  0  0  0  0
    6.6487   -2.1202   -0.2104 H   0  0  0  0  0  0  0  0  0  0  0  0
    8.7516   -3.1829    0.2285 H   0  0  0  0  0  0  0  0  0  0  0  0
    7.6399   -6.6828    0.0504 H   0  0  0  0  0  0  0  0  0  0  0  0
    8.8593   -8.5123    1.1444 H   0  0  0  0  0  0  0  0  0  0  0  0
   11.5642   -5.6424    2.9049 H   0  0  0  0  0  0  0  0  0  0  0  0
    8.6642   -6.2135   -3.8444 H   0  0  0  0  0  0  0  0  0  0  0  0
    5.4043   -3.2088   -4.8749 H   0  0  0  0  0  0  0  0  0  0  0  0
    4.7036    0.5259   -3.2356 H   0  0  0  0  0  0  0  0  0  0  0  0
    2.9997    0.1343   -2.8661 H   0  0  0  0  0  0  0  0  0  0  0  0
    2.3660    0.4448   -5.2119 H   0  0  0  0  0  0  0  0  0  0  0  0
    4.0547    0.6096   -5.6963 H   0  0  0  0  0  0  0  0  0  0  0  0
    2.3970    2.6051   -4.2555 H   0  0  0  0  0  0  0  0  0  0  0  0
    3.1551    4.7657   -4.3747 H   0  0  0  0  0  0  0  0  0  0  0  0
    4.8462    5.1126   -4.7176 H   0  0  0  0  0  0  0  0  0  0  0  0
    6.6077    4.2852   -1.3050 H   0  0  0  0  0  0  0  0  0  0  0  0
    6.8192    4.7857   -2.9931 H   0  0  0  0  0  0  0  0  0  0  0  0
    6.3805    3.0968   -2.5889 H   0  0  0  0  0  0  0  0  0  0  0  0
  1  2  2  0  0  0  0
  1 34  1  0  0  0  0
  1 35  1  0  0  0  0
  2  3  1  0  0  0  0
  2 36  1  0  0  0  0
  3  4  2  0  0  0  0
  3  5  1  0  0  0  0
  5  6  1  0  0  0  0
  5 37  1  0  0  0  0
  6  7  1  0  0  0  0
  6 24  2  0  0  0  0
  7  8  2  0  0  0  0
  7 38  1  0  0  0  0
  8  9  1  0  0  0  0
  8 22  1  0  0  0  0
  9 10  1  0  0  0  0
  9 19  2  0  0  0  0
 10 11  1  0  0  0  0
 10 39  1  0  0  0  0
 11 12  1  0  0  0  0
 11 17  2  0  0  0  0
 12 13  2  0  0  0  0
 12 40  1  0  0  0  0
 13 14  1  0  0  0  0
 13 41  1  0  0  0  0
 14 15  1  0  0  0  0
 14 16  2  0  0  0  0
 16 17  1  0  0  0  0
 16 42  1  0  0  0  0
 17 18  1  0  0  0  0
 19 20  1  0  0  0  0
 20 21  2  0  0  0  0
 20 43  1  0  0  0  0
 21 22  1  0  0  0  0
 22 23  2  0  0  0  0
 23 24  1  0  0  0  0
 23 44  1  0  0  0  0
 24 25  1  0  0  0  0
 25 26  1  0  0  0  0
 26 27  1  0  0  0  0
 26 45  1  0  0  0  0
 26 46  1  0  0  0  0
 27 28  1  0  0  0  0
 27 47  1  0  0  0  0
 27 48  1  0  0  0  0
 28 29  1  0  0  0  0
 28 49  1  0  0  0  0
 29 30  2  0  0  0  0
 29 31  1  0  0  0  0
 31 32  1  0  0  0  0
 31 50  1  0  0  0  0
 31 51  1  0  0  0  0
 32 33  1  0  0  0  0
 33 52  1  0  0  0  0
 33 53  1  0  0  0  0
 33 54  1  0  0  0  0
M  END
$$$$
