CHEMBL3937925
 OpenBabel04072215373D

 44 47  0  0  0  0  0  0  0  0999 V2000
    2.4013   -0.6158    0.2331 C   0  0  0  0  0  0  0  0  0  0  0  0
    1.0140   -0.2610   -0.1663 C   0  0  0  0  0  0  0  0  0  0  0  0
    0.5537    1.0220   -0.5743 C   0  0  0  0  0  0  0  0  0  0  0  0
   -0.7836    0.8880   -0.8564 C   0  0  0  0  0  0  0  0  0  0  0  0
   -1.1872   -0.3901   -0.6539 O   0  0  0  0  0  0  0  0  0  0  0  0
   -0.0935   -1.0998   -0.2241 C   0  0  0  0  0  0  0  0  0  0  0  0
   -0.2506   -2.5128    0.0800 C   0  0  0  0  0  0  0  0  0  0  0  0
    0.6801   -3.1863    0.5176 O   0  0  0  0  0  0  0  0  0  0  0  0
   -1.5198   -3.0029   -0.2070 N   0  0  0  0  0  0  0  0  0  0  0  0
   -1.9757   -4.3252   -0.0353 C   0  0  0  0  0  0  0  0  0  0  0  0
   -1.2826   -5.2708    0.7257 C   0  0  0  0  0  0  0  0  0  0  0  0
   -1.7129   -6.5956    0.7845 C   0  0  0  0  0  0  0  0  0  0  0  0
   -2.8598   -6.9837    0.1039 C   0  0  0  0  0  0  0  0  0  0  0  0
   -3.6384   -6.0241   -0.5470 C   0  0  0  0  0  0  0  0  0  0  0  0
   -4.8466   -6.3021   -1.1493 O   0  0  0  0  0  0  0  0  0  0  0  0
   -5.6722   -7.2691   -0.6114 C   0  0  0  0  0  0  0  0  0  0  0  0
   -5.7522   -7.5606    0.7522 C   0  0  0  0  0  0  0  0  0  0  0  0
   -6.5700   -8.5912    1.1733 C   0  0  0  0  0  0  0  0  0  0  0  0
   -7.3717   -9.3181    0.3761 N   0  0  0  0  0  0  0  0  0  0  0  0
   -7.3686   -8.9738   -0.9379 C   0  0  0  0  0  0  0  0  0  0  0  0
   -8.1861   -9.5698   -1.9410 C   0  0  0  0  0  0  0  0  0  0  0  0
   -7.9976   -9.0144   -3.1919 C   0  0  0  0  0  0  0  0  0  0  0  0
   -8.6856   -9.3639   -4.4232 C   0  0  0  0  0  0  0  0  0  0  0  0
   -9.5403  -10.2437   -4.5073 O   0  0  0  0  0  0  0  0  0  0  0  0
   -8.3275   -8.6344   -5.5373 N   0  0  0  0  0  0  0  0  0  0  0  0
   -8.9560   -8.9300   -6.7626 O   0  0  0  0  0  0  0  0  0  0  0  0
   -6.7941   -7.7960   -3.1458 S   0  0  0  0  0  0  0  0  0  0  0  0
   -6.5472   -7.9732   -1.4555 C   0  0  0  0  0  0  0  0  0  0  0  0
   -3.1767   -4.7044   -0.6490 C   0  0  0  0  0  0  0  0  0  0  0  0
    3.0721    0.2423    0.1157 H   0  0  0  0  0  0  0  0  0  0  0  0
    2.7902   -1.4283   -0.3889 H   0  0  0  0  0  0  0  0  0  0  0  0
    2.4370   -0.9276    1.2816 H   0  0  0  0  0  0  0  0  0  0  0  0
    1.1335    1.9313   -0.6532 H   0  0  0  0  0  0  0  0  0  0  0  0
   -1.5470    1.5744   -1.1938 H   0  0  0  0  0  0  0  0  0  0  0  0
   -2.1337   -2.3465   -0.6795 H   0  0  0  0  0  0  0  0  0  0  0  0
   -0.3943   -5.0066    1.2906 H   0  0  0  0  0  0  0  0  0  0  0  0
   -1.1479   -7.3215    1.3632 H   0  0  0  0  0  0  0  0  0  0  0  0
   -3.1501   -8.0301    0.1224 H   0  0  0  0  0  0  0  0  0  0  0  0
   -5.1659   -7.0180    1.4857 H   0  0  0  0  0  0  0  0  0  0  0  0
   -6.5921   -8.8723    2.2240 H   0  0  0  0  0  0  0  0  0  0  0  0
   -8.8963  -10.3661   -1.7416 H   0  0  0  0  0  0  0  0  0  0  0  0
   -7.6229   -7.9066   -5.5288 H   0  0  0  0  0  0  0  0  0  0  0  0
   -9.5640   -9.6610   -6.5177 H   0  0  0  0  0  0  0  0  0  0  0  0
   -3.7571   -3.9899   -1.2269 H   0  0  0  0  0  0  0  0  0  0  0  0
  1  2  1  0  0  0  0
  1 30  1  0  0  0  0
  1 31  1  0  0  0  0
  1 32  1  0  0  0  0
  2  3  1  0  0  0  0
  2  6  2  0  0  0  0
  3  4  2  0  0  0  0
  3 33  1  0  0  0  0
  4  5  1  0  0  0  0
  4 34  1  0  0  0  0
  5  6  1  0  0  0  0
  6  7  1  0  0  0  0
  7  8  2  0  0  0  0
  7  9  1  0  0  0  0
  9 10  1  0  0  0  0
  9 35  1  0  0  0  0
 10 11  1  0  0  0  0
 10 29  2  0  0  0  0
 11 12  2  0  0  0  0
 11 36  1  0  0  0  0
 12 13  1  0  0  0  0
 12 37  1  0  0  0  0
 13 14  2  0  0  0  0
 13 38  1  0  0  0  0
 14 15  1  0  0  0  0
 14 29  1  0  0  0  0
 15 16  1  0  0  0  0
 16 17  1  0  0  0  0
 16 28  2  0  0  0  0
 17 18  2  0  0  0  0
 17 39  1  0  0  0  0
 18 19  1  0  0  0  0
 18 40  1  0  0  0  0
 19 20  2  0  0  0  0
 20 21  1  0  0  0  0
 20 28  1  0  0  0  0
 21 22  2  0  0  0  0
 21 41  1  0  0  0  0
 22 23  1  0  0  0  0
 22 27  1  0  0  0  0
 23 24  2  0  0  0  0
 23 25  1  0  0  0  0
 25 26  1  0  0  0  0
 25 42  1  0  0  0  0
 26 43  1  0  0  0  0
 27 28  1  0  0  0  0
 29 44  1  0  0  0  0
M  END
$$$$
