CHEMBL4293467
 OpenBabel04072215383D

 40 43  0  0  0  0  0  0  0  0999 V2000
    0.9336    0.3471   -0.1572 C   0  0  0  0  0  0  0  0  0  0  0  0
    2.6772   -0.0726    0.0934 S   0  0  0  0  0  0  0  0  0  0  0  0
    3.1416    1.1485    1.2966 C   0  0  0  0  0  0  0  0  0  0  0  0
    4.4237    1.1357    1.6909 N   0  0  0  0  0  0  0  0  0  0  0  0
    4.7851    2.0801    2.5905 C   0  0  0  0  0  0  0  0  0  0  0  0
    3.9201    3.0250    3.1072 C   0  0  0  0  0  0  0  0  0  0  0  0
    2.6298    2.9780    2.5966 C   0  0  0  0  0  0  0  0  0  0  0  0
    2.2251    2.0257    1.7281 N   0  0  0  0  0  0  0  0  0  0  0  0
    1.6668    3.9608    2.8756 N   0  0  0  0  0  0  0  0  0  0  0  0
    2.0084    5.2647    2.8095 C   0  0  0  0  0  0  0  0  0  0  0  0
    1.3532    6.1846    2.0980 N   0  0  0  0  0  0  0  0  0  0  0  0
    2.1418    7.2730    2.1831 N   0  0  0  0  0  0  0  0  0  0  0  0
    3.2733    7.0878    2.9236 C   0  0  0  0  0  0  0  0  0  0  0  0
    4.2947    8.1434    3.1064 C   0  0  0  0  0  0  0  0  0  0  0  0
    3.1810    5.8001    3.3872 C   0  0  0  0  0  0  0  0  0  0  0  0
    4.0420    5.2212    4.3144 N   0  0  0  0  0  0  0  0  0  0  0  0
    4.3637    3.9676    4.1847 C   0  0  0  0  0  0  0  0  0  0  0  0
    5.2127    3.4183    5.3108 C   0  0  0  0  0  0  0  0  0  0  0  0
    4.9121    2.1216    5.7811 C   0  0  0  0  0  0  0  0  0  0  0  0
    5.5443    1.5942    6.9080 C   0  0  0  0  0  0  0  0  0  0  0  0
    6.4615    2.3630    7.6079 C   0  0  0  0  0  0  0  0  0  0  0  0
    6.7716    3.6435    7.1563 C   0  0  0  0  0  0  0  0  0  0  0  0
    6.1768    4.1888    5.9929 C   0  0  0  0  0  0  0  0  0  0  0  0
    6.6424    5.5756    5.6042 C   0  0  0  0  0  0  0  0  0  0  0  0
    6.4121    5.9743    4.3276 F   0  0  0  0  0  0  0  0  0  0  0  0
    6.1525    6.5455    6.4266 F   0  0  0  0  0  0  0  0  0  0  0  0
    8.0062    5.6730    5.7283 F   0  0  0  0  0  0  0  0  0  0  0  0
    0.5174   -0.3113   -0.9253 H   0  0  0  0  0  0  0  0  0  0  0  0
    0.8189    1.3799   -0.4987 H   0  0  0  0  0  0  0  0  0  0  0  0
    0.3643    0.1976    0.7644 H   0  0  0  0  0  0  0  0  0  0  0  0
    5.8296    2.0356    2.8844 H   0  0  0  0  0  0  0  0  0  0  0  0
    0.8348    3.7334    2.3410 H   0  0  0  0  0  0  0  0  0  0  0  0
    1.8488    8.1155    1.7002 H   0  0  0  0  0  0  0  0  0  0  0  0
    4.0399    9.0462    2.5421 H   0  0  0  0  0  0  0  0  0  0  0  0
    5.2682    7.7947    2.7484 H   0  0  0  0  0  0  0  0  0  0  0  0
    4.3905    8.4168    4.1615 H   0  0  0  0  0  0  0  0  0  0  0  0
    4.1505    1.5070    5.3055 H   0  0  0  0  0  0  0  0  0  0  0  0
    5.2942    0.5944    7.2557 H   0  0  0  0  0  0  0  0  0  0  0  0
    6.9293    1.9736    8.5093 H   0  0  0  0  0  0  0  0  0  0  0  0
    7.4892    4.2377    7.7247 H   0  0  0  0  0  0  0  0  0  0  0  0
  1  2  1  0  0  0  0
  1 28  1  0  0  0  0
  1 29  1  0  0  0  0
  1 30  1  0  0  0  0
  2  3  1  0  0  0  0
  3  4  1  0  0  0  0
  3  8  2  0  0  0  0
  4  5  2  0  0  0  0
  5  6  1  0  0  0  0
  5 31  1  0  0  0  0
  6  7  2  0  0  0  0
  6 17  1  0  0  0  0
  7  8  1  0  0  0  0
  7  9  1  0  0  0  0
  9 10  1  0  0  0  0
  9 32  1  0  0  0  0
 10 11  2  0  0  0  0
 10 15  1  0  0  0  0
 11 12  1  0  0  0  0
 12 13  1  0  0  0  0
 12 33  1  0  0  0  0
 13 14  1  0  0  0  0
 13 15  2  0  0  0  0
 14 34  1  0  0  0  0
 14 35  1  0  0  0  0
 14 36  1  0  0  0  0
 15 16  1  0  0  0  0
 16 17  2  0  0  0  0
 17 18  1  0  0  0  0
 18 19  1  0  0  0  0
 18 23  2  0  0  0  0
 19 20  2  0  0  0  0
 19 37  1  0  0  0  0
 20 21  1  0  0  0  0
 20 38  1  0  0  0  0
 21 22  2  0  0  0  0
 21 39  1  0  0  0  0
 22 23  1  0  0  0  0
 22 40  1  0  0  0  0
 23 24  1  0  0  0  0
 24 25  1  0  0  0  0
 24 26  1  0  0  0  0
 24 27  1  0  0  0  0
M  END
$$$$
