CHEMBL216105
 OpenBabel04072215363D

 68 73  0  0  0  0  0  0  0  0999 V2000
    1.3463    2.5298    1.6343 C   0  0  0  0  0  0  0  0  0  0  0  0
    2.1804    1.3343    1.4913 N   0  0  0  0  0  0  0  0  0  0  0  0
    1.3832    0.2219    0.9562 C   0  0  0  0  0  0  0  0  0  0  0  0
    2.2241   -1.0449    0.7769 C   0  0  0  0  0  0  0  0  0  0  0  0
    3.4602   -0.8014   -0.0922 C   0  0  0  0  0  0  0  0  0  0  0  0
    3.1065   -0.5560   -1.5623 C   0  0  0  0  0  0  0  0  0  0  0  0
    2.5328   -1.7254   -2.1716 O   0  0  0  0  0  0  0  0  0  0  0  0
    2.5408   -1.6926   -3.5432 C   0  0  0  0  0  0  0  0  0  0  0  0
    2.6888   -0.5303   -4.2827 C   0  0  0  0  0  0  0  0  0  0  0  0
    2.7902   -0.5474   -5.6671 C   0  0  0  0  0  0  0  0  0  0  0  0
    3.0100    0.6173   -6.3607 O   0  0  0  0  0  0  0  0  0  0  0  0
    2.3183    1.8292   -6.0011 C   0  0  0  0  0  0  0  0  0  0  0  0
    3.0826    2.7055   -4.9865 C   0  0  0  0  0  0  0  0  0  0  0  0
    2.2932    3.9618   -4.6478 C   0  0  0  0  0  0  0  0  0  0  0  0
    0.9652    3.6323   -4.2443 O   0  0  0  0  0  0  0  0  0  0  0  0
    0.2192    3.0168   -5.2943 C   0  0  0  0  0  0  0  0  0  0  0  0
    0.8299    1.6714   -5.6519 C   0  0  0  0  0  0  0  0  0  0  0  0
    2.7417   -1.7955   -6.3595 C   0  0  0  0  0  0  0  0  0  0  0  0
    2.8805   -2.0109   -7.7542 C   0  0  0  0  0  0  0  0  0  0  0  0
    3.1934   -0.9284   -8.6051 N   0  0  0  0  0  0  0  0  0  0  0  0
    2.9065   -0.7784   -9.9741 C   0  0  0  0  0  0  0  0  0  0  0  0
    3.8146   -0.1692  -10.8656 C   0  0  0  0  0  0  0  0  0  0  0  0
    5.3879    0.3138  -10.3255 Cl  0  0  0  0  0  0  0  0  0  0  0  0
    3.4818    0.0727  -12.2146 C   0  0  0  0  0  0  0  0  0  0  0  0
    2.2295   -0.2921  -12.7104 C   0  0  0  0  0  0  0  0  0  0  0  0
    1.3648   -0.9242  -11.8441 C   0  0  0  0  0  0  0  0  0  0  0  0
    1.6919   -1.1704  -10.5260 C   0  0  0  0  0  0  0  0  0  0  0  0
    0.6513   -1.7500   -9.8564 O   0  0  0  0  0  0  0  0  0  0  0  0
   -0.2961   -1.9444  -10.9165 C   0  0  0  0  0  0  0  0  0  0  0  0
    0.1058   -1.3344  -12.1584 O   0  0  0  0  0  0  0  0  0  0  0  0
    2.7481   -3.2314   -8.3139 N   0  0  0  0  0  0  0  0  0  0  0  0
    2.4784   -4.2427   -7.4914 C   0  0  0  0  0  0  0  0  0  0  0  0
    2.3625   -4.1712   -6.1636 N   0  0  0  0  0  0  0  0  0  0  0  0
    2.4941   -2.9641   -5.6115 C   0  0  0  0  0  0  0  0  0  0  0  0
    2.4023   -2.8954   -4.2251 C   0  0  0  0  0  0  0  0  0  0  0  0
    4.2419    0.3954    0.4739 C   0  0  0  0  0  0  0  0  0  0  0  0
    3.3590    1.6325    0.6694 C   0  0  0  0  0  0  0  0  0  0  0  0
    0.4864    2.3255    2.2821 H   0  0  0  0  0  0  0  0  0  0  0  0
    0.9713    2.8884    0.6688 H   0  0  0  0  0  0  0  0  0  0  0  0
    1.9114    3.3407    2.1070 H   0  0  0  0  0  0  0  0  0  0  0  0
    0.9119    0.4987    0.0051 H   0  0  0  0  0  0  0  0  0  0  0  0
    0.5712   -0.0109    1.6555 H   0  0  0  0  0  0  0  0  0  0  0  0
    1.6058   -1.8437    0.3535 H   0  0  0  0  0  0  0  0  0  0  0  0
    2.5540   -1.3948    1.7643 H   0  0  0  0  0  0  0  0  0  0  0  0
    4.0930   -1.6964   -0.0471 H   0  0  0  0  0  0  0  0  0  0  0  0
    4.0387   -0.2910   -2.0805 H   0  0  0  0  0  0  0  0  0  0  0  0
    2.3974    0.2730   -1.6549 H   0  0  0  0  0  0  0  0  0  0  0  0
    2.7200    0.4061   -3.7614 H   0  0  0  0  0  0  0  0  0  0  0  0
    2.3335    2.4103   -6.9302 H   0  0  0  0  0  0  0  0  0  0  0  0
    4.0747    2.9593   -5.3746 H   0  0  0  0  0  0  0  0  0  0  0  0
    3.2738    2.1817   -4.0483 H   0  0  0  0  0  0  0  0  0  0  0  0
    2.2589    4.6532   -5.4977 H   0  0  0  0  0  0  0  0  0  0  0  0
    2.7704    4.4874   -3.8144 H   0  0  0  0  0  0  0  0  0  0  0  0
    0.1804    3.6856   -6.1616 H   0  0  0  0  0  0  0  0  0  0  0  0
   -0.8065    2.8766   -4.9384 H   0  0  0  0  0  0  0  0  0  0  0  0
    0.2944    1.2079   -6.4872 H   0  0  0  0  0  0  0  0  0  0  0  0
    0.6924    1.0078   -4.7928 H   0  0  0  0  0  0  0  0  0  0  0  0
    4.0263   -0.4395   -8.2913 H   0  0  0  0  0  0  0  0  0  0  0  0
    4.1959    0.5569  -12.8783 H   0  0  0  0  0  0  0  0  0  0  0  0
    1.9426   -0.0858  -13.7355 H   0  0  0  0  0  0  0  0  0  0  0  0
   -1.2542   -1.5144  -10.6053 H   0  0  0  0  0  0  0  0  0  0  0  0
   -0.4306   -3.0200  -11.0823 H   0  0  0  0  0  0  0  0  0  0  0  0
    2.3501   -5.2218   -7.9420 H   0  0  0  0  0  0  0  0  0  0  0  0
    2.2346   -3.8079   -3.6595 H   0  0  0  0  0  0  0  0  0  0  0  0
    5.0809    0.6500   -0.1869 H   0  0  0  0  0  0  0  0  0  0  0  0
    4.6821    0.1111    1.4373 H   0  0  0  0  0  0  0  0  0  0  0  0
    3.0660    2.0413   -0.3060 H   0  0  0  0  0  0  0  0  0  0  0  0
    3.9635    2.4021    1.1650 H   0  0  0  0  0  0  0  0  0  0  0  0
  1  2  1  0  0  0  0
  1 38  1  0  0  0  0
  1 39  1  0  0  0  0
  1 40  1  0  0  0  0
  2  3  1  0  0  0  0
  2 37  1  0  0  0  0
  3  4  1  0  0  0  0
  3 41  1  0  0  0  0
  3 42  1  0  0  0  0
  4  5  1  0  0  0  0
  4 43  1  0  0  0  0
  4 44  1  0  0  0  0
  5  6  1  0  0  0  0
  5 36  1  0  0  0  0
  5 45  1  0  0  0  0
  6  7  1  0  0  0  0
  6 46  1  0  0  0  0
  6 47  1  0  0  0  0
  7  8  1  0  0  0  0
  8  9  1  0  0  0  0
  8 35  2  0  0  0  0
  9 10  2  0  0  0  0
  9 48  1  0  0  0  0
 10 11  1  0  0  0  0
 10 18  1  0  0  0  0
 11 12  1  0  0  0  0
 12 13  1  0  0  0  0
 12 17  1  0  0  0  0
 12 49  1  0  0  0  0
 13 14  1  0  0  0  0
 13 50  1  0  0  0  0
 13 51  1  0  0  0  0
 14 15  1  0  0  0  0
 14 52  1  0  0  0  0
 14 53  1  0  0  0  0
 15 16  1  0  0  0  0
 16 17  1  0  0  0  0
 16 54  1  0  0  0  0
 16 55  1  0  0  0  0
 17 56  1  0  0  0  0
 17 57  1  0  0  0  0
 18 19  1  0  0  0  0
 18 34  2  0  0  0  0
 19 20  1  0  0  0  0
 19 31  2  0  0  0  0
 20 21  1  0  0  0  0
 20 58  1  0  0  0  0
 21 22  1  0  0  0  0
 21 27  2  0  0  0  0
 22 23  1  0  0  0  0
 22 24  2  0  0  0  0
 24 25  1  0  0  0  0
 24 59  1  0  0  0  0
 25 26  2  0  0  0  0
 25 60  1  0  0  0  0
 26 27  1  0  0  0  0
 26 30  1  0  0  0  0
 27 28  1  0  0  0  0
 28 29  1  0  0  0  0
 29 30  1  0  0  0  0
 29 61  1  0  0  0  0
 29 62  1  0  0  0  0
 31 32  1  0  0  0  0
 32 33  2  0  0  0  0
 32 63  1  0  0  0  0
 33 34  1  0  0  0  0
 34 35  1  0  0  0  0
 35 64  1  0  0  0  0
 36 37  1  0  0  0  0
 36 65  1  0  0  0  0
 36 66  1  0  0  0  0
 37 67  1  0  0  0  0
 37 68  1  0  0  0  0
M  END
$$$$
