CHEMBL3944193
 OpenBabel04072215373D

 50 55  0  0  0  0  0  0  0  0999 V2000
    2.3139   -0.1320    0.2121 O   0  0  0  0  0  0  0  0  0  0  0  0
    0.9541   -0.1074    0.1488 C   0  0  0  0  0  0  0  0  0  0  0  0
    0.1726    0.0165    1.2812 C   0  0  0  0  0  0  0  0  0  0  0  0
   -1.2199    0.0613    1.1490 C   0  0  0  0  0  0  0  0  0  0  0  0
   -1.8731    0.0173   -0.1088 C   0  0  0  0  0  0  0  0  0  0  0  0
   -3.3670    0.0293   -0.1448 C   0  0  0  0  0  0  0  0  0  0  0  0
   -4.1024   -0.6172    0.8747 C   0  0  0  0  0  0  0  0  0  0  0  0
   -5.5041   -0.5994    0.9333 C   0  0  0  0  0  0  0  0  0  0  0  0
   -6.2130    0.0493   -0.0869 C   0  0  0  0  0  0  0  0  0  0  0  0
   -7.5757    0.2854   -0.4022 C   0  0  0  0  0  0  0  0  0  0  0  0
   -8.7456   -0.1344    0.4212 C   0  0  0  0  0  0  0  0  0  0  0  0
   -8.6837   -0.7390    1.5899 N   0  0  0  0  0  0  0  0  0  0  0  0
   -9.9869   -0.8948    1.9910 C   0  0  0  0  0  0  0  0  0  0  0  0
  -10.4970   -1.4589    3.1687 C   0  0  0  0  0  0  0  0  0  0  0  0
  -11.8850   -1.5023    3.3438 C   0  0  0  0  0  0  0  0  0  0  0  0
  -12.7452   -0.9985    2.3640 C   0  0  0  0  0  0  0  0  0  0  0  0
  -12.2541   -0.4304    1.1816 C   0  0  0  0  0  0  0  0  0  0  0  0
  -10.8659   -0.3925    1.0363 C   0  0  0  0  0  0  0  0  0  0  0  0
  -10.0472    0.0861    0.0466 N   0  0  0  0  0  0  0  0  0  0  0  0
   -7.7227    0.9592   -1.5540 N   0  0  0  0  0  0  0  0  0  0  0  0
   -6.4515    1.1706   -1.9514 N   0  0  0  0  0  0  0  0  0  0  0  0
   -5.5007    0.6609   -1.1077 C   0  0  0  0  0  0  0  0  0  0  0  0
   -4.0969    0.6877   -1.1552 C   0  0  0  0  0  0  0  0  0  0  0  0
   -1.0330   -0.0375   -1.2447 C   0  0  0  0  0  0  0  0  0  0  0  0
   -1.5800    0.0315   -2.5190 O   0  0  0  0  0  0  0  0  0  0  0  0
   -0.9033    0.7863   -3.4633 C   0  0  0  0  0  0  0  0  0  0  0  0
   -0.9173    0.3189   -4.7777 C   0  0  0  0  0  0  0  0  0  0  0  0
   -0.1443    0.9588   -5.7507 C   0  0  0  0  0  0  0  0  0  0  0  0
    0.6375    2.0641   -5.4110 C   0  0  0  0  0  0  0  0  0  0  0  0
    0.6005    2.5712   -4.1141 C   0  0  0  0  0  0  0  0  0  0  0  0
   -0.1994    1.9571   -3.1514 C   0  0  0  0  0  0  0  0  0  0  0  0
    0.3636   -0.1755   -1.1012 C   0  0  0  0  0  0  0  0  0  0  0  0
    2.5868   -0.0051    1.1353 H   0  0  0  0  0  0  0  0  0  0  0  0
    0.6135    0.0731    2.2709 H   0  0  0  0  0  0  0  0  0  0  0  0
   -1.8012    0.1519    2.0654 H   0  0  0  0  0  0  0  0  0  0  0  0
   -3.5907   -1.1621    1.6668 H   0  0  0  0  0  0  0  0  0  0  0  0
   -6.0307   -1.0861    1.7508 H   0  0  0  0  0  0  0  0  0  0  0  0
   -9.8216   -1.8485    3.9228 H   0  0  0  0  0  0  0  0  0  0  0  0
  -12.2945   -1.9323    4.2544 H   0  0  0  0  0  0  0  0  0  0  0  0
  -13.8204   -1.0461    2.5249 H   0  0  0  0  0  0  0  0  0  0  0  0
  -12.9229   -0.0387    0.4240 H   0  0  0  0  0  0  0  0  0  0  0  0
  -10.3182    0.5391   -0.8134 H   0  0  0  0  0  0  0  0  0  0  0  0
   -6.2937    1.6699   -2.8194 H   0  0  0  0  0  0  0  0  0  0  0  0
   -3.5975    1.2185   -1.9580 H   0  0  0  0  0  0  0  0  0  0  0  0
   -1.4979   -0.5610   -5.0395 H   0  0  0  0  0  0  0  0  0  0  0  0
   -0.1297    0.5805   -6.7697 H   0  0  0  0  0  0  0  0  0  0  0  0
    1.2776    2.5307   -6.1557 H   0  0  0  0  0  0  0  0  0  0  0  0
    1.2107    3.4286   -3.8424 H   0  0  0  0  0  0  0  0  0  0  0  0
   -0.2151    2.3652   -2.1442 H   0  0  0  0  0  0  0  0  0  0  0  0
    1.0040   -0.2804   -1.9736 H   0  0  0  0  0  0  0  0  0  0  0  0
  1  2  1  0  0  0  0
  1 33  1  0  0  0  0
  2  3  1  0  0  0  0
  2 32  2  0  0  0  0
  3  4  2  0  0  0  0
  3 34  1  0  0  0  0
  4  5  1  0  0  0  0
  4 35  1  0  0  0  0
  5  6  1  0  0  0  0
  5 24  2  0  0  0  0
  6  7  1  0  0  0  0
  6 23  2  0  0  0  0
  7  8  2  0  0  0  0
  7 36  1  0  0  0  0
  8  9  1  0  0  0  0
  8 37  1  0  0  0  0
  9 10  1  0  0  0  0
  9 22  2  0  0  0  0
 10 11  1  0  0  0  0
 10 20  2  0  0  0  0
 11 12  2  0  0  0  0
 11 19  1  0  0  0  0
 12 13  1  0  0  0  0
 13 14  1  0  0  0  0
 13 18  2  0  0  0  0
 14 15  2  0  0  0  0
 14 38  1  0  0  0  0
 15 16  1  0  0  0  0
 15 39  1  0  0  0  0
 16 17  2  0  0  0  0
 16 40  1  0  0  0  0
 17 18  1  0  0  0  0
 17 41  1  0  0  0  0
 18 19  1  0  0  0  0
 19 42  1  0  0  0  0
 20 21  1  0  0  0  0
 21 22  1  0  0  0  0
 21 43  1  0  0  0  0
 22 23  1  0  0  0  0
 23 44  1  0  0  0  0
 24 25  1  0  0  0  0
 24 32  1  0  0  0  0
 25 26  1  0  0  0  0
 26 27  1  0  0  0  0
 26 31  2  0  0  0  0
 27 28  2  0  0  0  0
 27 45  1  0  0  0  0
 28 29  1  0  0  0  0
 28 46  1  0  0  0  0
 29 30  2  0  0  0  0
 29 47  1  0  0  0  0
 30 31  1  0  0  0  0
 30 48  1  0  0  0  0
 31 49  1  0  0  0  0
 32 50  1  0  0  0  0
M  END
$$$$
