CHEMBL2011061
 OpenBabel04072215363D

 63 69  0  0  0  0  0  0  0  0999 V2000
    3.0600   -0.9743   -1.9103 C   0  0  0  0  0  0  0  0  0  0  0  0
    2.8121   -2.0079   -0.8103 C   0  0  0  0  0  0  0  0  0  0  0  0
    3.0447   -3.4119   -1.3538 C   0  0  0  0  0  0  0  0  0  0  0  0
    3.5730   -1.7428    0.5218 C   0  0  0  0  0  0  0  0  0  0  0  0
    5.0292   -1.7118    0.5076 N   0  0  0  0  0  0  0  0  0  0  0  0
    5.7880   -0.5279    0.3701 C   0  0  0  0  0  0  0  0  0  0  0  0
    5.4135    0.8153    0.1988 C   0  0  0  0  0  0  0  0  0  0  0  0
    6.4277    1.7893    0.1074 C   0  0  0  0  0  0  0  0  0  0  0  0
    7.7848    1.4663    0.1722 C   0  0  0  0  0  0  0  0  0  0  0  0
    8.8327    2.3919    0.1105 N   0  0  0  0  0  0  0  0  0  0  0  0
    8.9080    3.6931   -0.3650 C   0  0  0  0  0  0  0  0  0  0  0  0
    7.8095    4.4347   -0.5688 N   0  0  0  0  0  0  0  0  0  0  0  0
    7.9814    5.6643   -1.0832 C   0  0  0  0  0  0  0  0  0  0  0  0
    9.2042    6.1712   -1.4268 C   0  0  0  0  0  0  0  0  0  0  0  0
   10.2724    5.3492   -1.1696 C   0  0  0  0  0  0  0  0  0  0  0  0
   10.1514    4.1199   -0.6358 N   0  0  0  0  0  0  0  0  0  0  0  0
    8.1330    0.1203    0.3102 C   0  0  0  0  0  0  0  0  0  0  0  0
    7.1466   -0.8756    0.3861 C   0  0  0  0  0  0  0  0  0  0  0  0
    7.1019   -2.2410    0.4164 C   0  0  0  0  0  0  0  0  0  0  0  0
    8.1740   -3.0826    0.0826 C   0  0  0  0  0  0  0  0  0  0  0  0
    7.8133   -4.4191   -0.2082 C   0  0  0  0  0  0  0  0  0  0  0  0
    6.4999   -4.9114   -0.0281 C   0  0  0  0  0  0  0  0  0  0  0  0
    5.7932   -4.1791    0.9765 C   0  0  0  0  0  0  0  0  0  0  0  0
    5.8852   -2.7939    0.7089 C   0  0  0  0  0  0  0  0  0  0  0  0
    6.2879   -4.7575    2.3955 C   0  0  0  0  0  0  0  0  0  0  0  0
    6.6733   -6.2922    2.4678 C   0  0  0  0  0  0  0  0  0  0  0  0
    6.3747   -6.9722    1.1822 C   0  0  0  0  0  0  0  0  0  0  0  0
    6.2783   -6.3271   -0.0255 C   0  0  0  0  0  0  0  0  0  0  0  0
    5.7653   -7.2745   -0.9141 C   0  0  0  0  0  0  0  0  0  0  0  0
    5.7108   -8.4909   -0.3557 N   0  0  0  0  0  0  0  0  0  0  0  0
    6.1961   -8.2942    0.8940 N   0  0  0  0  0  0  0  0  0  0  0  0
    6.5233   -9.4376    1.7085 C   0  0  0  0  0  0  0  0  0  0  0  0
    9.0297   -5.1344   -0.5040 C   0  0  0  0  0  0  0  0  0  0  0  0
    9.2876   -6.3084   -0.7316 O   0  0  0  0  0  0  0  0  0  0  0  0
   10.0309   -4.1705   -0.3959 N   0  0  0  0  0  0  0  0  0  0  0  0
    9.6016   -2.8310   -0.0594 C   0  0  0  0  0  0  0  0  0  0  0  0
    2.4078   -1.1745   -2.7699 H   0  0  0  0  0  0  0  0  0  0  0  0
    4.0932   -0.9995   -2.2739 H   0  0  0  0  0  0  0  0  0  0  0  0
    2.8356    0.0410   -1.5681 H   0  0  0  0  0  0  0  0  0  0  0  0
    1.7476   -1.9359   -0.5574 H   0  0  0  0  0  0  0  0  0  0  0  0
    4.0361   -3.5138   -1.8069 H   0  0  0  0  0  0  0  0  0  0  0  0
    2.2998   -3.6412   -2.1251 H   0  0  0  0  0  0  0  0  0  0  0  0
    2.9384   -4.1620   -0.5647 H   0  0  0  0  0  0  0  0  0  0  0  0
    3.2787   -2.4949    1.2633 H   0  0  0  0  0  0  0  0  0  0  0  0
    3.2366   -0.7803    0.9270 H   0  0  0  0  0  0  0  0  0  0  0  0
    4.3743    1.1172    0.1214 H   0  0  0  0  0  0  0  0  0  0  0  0
    6.1179    2.8245   -0.0134 H   0  0  0  0  0  0  0  0  0  0  0  0
    9.7707    2.0178    0.1176 H   0  0  0  0  0  0  0  0  0  0  0  0
    7.0688    6.2315   -1.2393 H   0  0  0  0  0  0  0  0  0  0  0  0
    9.3229    7.1502   -1.8655 H   0  0  0  0  0  0  0  0  0  0  0  0
   11.2889    5.6542   -1.3983 H   0  0  0  0  0  0  0  0  0  0  0  0
    9.1792   -0.1563    0.3796 H   0  0  0  0  0  0  0  0  0  0  0  0
    5.5575   -4.5057    3.1692 H   0  0  0  0  0  0  0  0  0  0  0  0
    7.2067   -4.2069    2.6611 H   0  0  0  0  0  0  0  0  0  0  0  0
    6.1566   -6.7659    3.3075 H   0  0  0  0  0  0  0  0  0  0  0  0
    7.7514   -6.3840    2.6686 H   0  0  0  0  0  0  0  0  0  0  0  0
    5.4134   -7.1401   -1.9278 H   0  0  0  0  0  0  0  0  0  0  0  0
    6.1274  -10.3427    1.2383 H   0  0  0  0  0  0  0  0  0  0  0  0
    6.0845   -9.3099    2.6988 H   0  0  0  0  0  0  0  0  0  0  0  0
    7.6130   -9.5076    1.7711 H   0  0  0  0  0  0  0  0  0  0  0  0
   10.9964   -4.4600   -0.4433 H   0  0  0  0  0  0  0  0  0  0  0  0
    9.8435   -2.1548   -0.8801 H   0  0  0  0  0  0  0  0  0  0  0  0
   10.0594   -2.5242    0.8843 H   0  0  0  0  0  0  0  0  0  0  0  0
  1  2  1  0  0  0  0
  1 37  1  0  0  0  0
  1 38  1  0  0  0  0
  1 39  1  0  0  0  0
  2  3  1  0  0  0  0
  2  4  1  0  0  0  0
  2 40  1  0  0  0  0
  3 41  1  0  0  0  0
  3 42  1  0  0  0  0
  3 43  1  0  0  0  0
  4  5  1  0  0  0  0
  4 44  1  0  0  0  0
  4 45  1  0  0  0  0
  5  6  1  0  0  0  0
  5 24  1  0  0  0  0
  6  7  1  0  0  0  0
  6 18  2  0  0  0  0
  7  8  2  0  0  0  0
  7 46  1  0  0  0  0
  8  9  1  0  0  0  0
  8 47  1  0  0  0  0
  9 10  1  0  0  0  0
  9 17  2  0  0  0  0
 10 11  1  0  0  0  0
 10 48  1  0  0  0  0
 11 12  1  0  0  0  0
 11 16  2  0  0  0  0
 12 13  2  0  0  0  0
 13 14  1  0  0  0  0
 13 49  1  0  0  0  0
 14 15  2  0  0  0  0
 14 50  1  0  0  0  0
 15 16  1  0  0  0  0
 15 51  1  0  0  0  0
 17 18  1  0  0  0  0
 17 52  1  0  0  0  0
 18 19  1  0  0  0  0
 19 20  1  0  0  0  0
 19 24  2  0  0  0  0
 20 21  2  0  0  0  0
 20 36  1  0  0  0  0
 21 22  1  0  0  0  0
 21 33  1  0  0  0  0
 22 23  2  0  0  0  0
 22 28  1  0  0  0  0
 23 24  1  0  0  0  0
 23 25  1  0  0  0  0
 25 26  1  0  0  0  0
 25 53  1  0  0  0  0
 25 54  1  0  0  0  0
 26 27  1  0  0  0  0
 26 55  1  0  0  0  0
 26 56  1  0  0  0  0
 27 28  2  0  0  0  0
 27 31  1  0  0  0  0
 28 29  1  0  0  0  0
 29 30  2  0  0  0  0
 29 57  1  0  0  0  0
 30 31  1  0  0  0  0
 31 32  1  0  0  0  0
 32 58  1  0  0  0  0
 32 59  1  0  0  0  0
 32 60  1  0  0  0  0
 33 34  2  0  0  0  0
 33 35  1  0  0  0  0
 35 36  1  0  0  0  0
 35 61  1  0  0  0  0
 36 62  1  0  0  0  0
 36 63  1  0  0  0  0
M  END
$$$$
