CHEMBL590878
 OpenBabel04072215383D

 34 35  0  0  0  0  0  0  0  0999 V2000
    1.2879   -0.1879   -0.7523 O   0  0  0  0  0  0  0  0  0  0  0  0
    2.6216   -0.1875   -0.4770 C   0  0  0  0  0  0  0  0  0  0  0  0
    3.2535   -1.4126   -0.3161 C   0  0  0  0  0  0  0  0  0  0  0  0
    4.6163   -1.4276   -0.0754 C   0  0  0  0  0  0  0  0  0  0  0  0
    5.2754   -2.6167    0.0799 O   0  0  0  0  0  0  0  0  0  0  0  0
    5.3449   -0.2286   -0.0178 C   0  0  0  0  0  0  0  0  0  0  0  0
    6.7163   -0.2236    0.1212 C   0  0  0  0  0  0  0  0  0  0  0  0
    7.3265    1.0014    0.0963 C   0  0  0  0  0  0  0  0  0  0  0  0
    8.6959    1.0329    0.1042 O   0  0  0  0  0  0  0  0  0  0  0  0
    6.5402    2.1814   -0.0004 C   0  0  0  0  0  0  0  0  0  0  0  0
    7.1208    3.5532   -0.0565 C   0  0  0  0  0  0  0  0  0  0  0  0
    6.4515    4.6038   -0.7266 C   0  0  0  0  0  0  0  0  0  0  0  0
    7.0621    5.8527   -0.8831 C   0  0  0  0  0  0  0  0  0  0  0  0
    6.4654    6.8805   -1.5521 O   0  0  0  0  0  0  0  0  0  0  0  0
    8.3360    6.0834   -0.3773 C   0  0  0  0  0  0  0  0  0  0  0  0
    8.9660    7.2815   -0.5593 O   0  0  0  0  0  0  0  0  0  0  0  0
    8.9884    5.0865    0.3219 C   0  0  0  0  0  0  0  0  0  0  0  0
   10.2437    5.2876    0.8130 O   0  0  0  0  0  0  0  0  0  0  0  0
    8.3850    3.8496    0.5087 C   0  0  0  0  0  0  0  0  0  0  0  0
    5.2804    2.1257   -0.1443 O   0  3  0  0  0  0  0  0  0  0  0  0
    4.6748    1.0117   -0.1504 C   0  0  0  0  0  0  0  0  0  0  0  0
    3.3039    1.0214   -0.3740 C   0  0  0  0  0  0  0  0  0  0  0  0
    0.2458    0.6319    2.0008 Cl  0  5  0  0  0  0  0  0  0  0  0  0
    0.8222    0.0702    0.0980 H   0  0  0  0  0  0  0  0  0  0  0  0
    2.6656   -2.3241   -0.3779 H   0  0  0  0  0  0  0  0  0  0  0  0
    4.6196   -3.3392    0.1214 H   0  0  0  0  0  0  0  0  0  0  0  0
    7.2778   -1.1496    0.1971 H   0  0  0  0  0  0  0  0  0  0  0  0
    9.0770    0.1358    0.1494 H   0  0  0  0  0  0  0  0  0  0  0  0
    5.4612    4.4293   -1.1425 H   0  0  0  0  0  0  0  0  0  0  0  0
    5.5585    6.6212   -1.8016 H   0  0  0  0  0  0  0  0  0  0  0  0
    8.3248    7.8268   -1.0593 H   0  0  0  0  0  0  0  0  0  0  0  0
   10.4853    6.1939    0.5317 H   0  0  0  0  0  0  0  0  0  0  0  0
    8.9459    3.1158    1.0846 H   0  0  0  0  0  0  0  0  0  0  0  0
    2.7705    1.9597   -0.4738 H   0  0  0  0  0  0  0  0  0  0  0  0
  1  2  1  0  0  0  0
  1 24  1  0  0  0  0
  2  3  1  0  0  0  0
  2 22  2  0  0  0  0
  3  4  2  0  0  0  0
  3 25  1  0  0  0  0
  4  5  1  0  0  0  0
  4  6  1  0  0  0  0
  5 26  1  0  0  0  0
  6  7  1  0  0  0  0
  6 21  2  0  0  0  0
  7  8  2  0  0  0  0
  7 27  1  0  0  0  0
  8  9  1  0  0  0  0
  8 10  1  0  0  0  0
  9 28  1  0  0  0  0
 10 11  1  0  0  0  0
 10 20  2  0  0  0  0
 11 12  1  0  0  0  0
 11 19  2  0  0  0  0
 12 13  2  0  0  0  0
 12 29  1  0  0  0  0
 13 14  1  0  0  0  0
 13 15  1  0  0  0  0
 14 30  1  0  0  0  0
 15 16  1  0  0  0  0
 15 17  2  0  0  0  0
 16 31  1  0  0  0  0
 17 18  1  0  0  0  0
 17 19  1  0  0  0  0
 18 32  1  0  0  0  0
 19 33  1  0  0  0  0
 20 21  1  0  0  0  0
 21 22  1  0  0  0  0
 22 34  1  0  0  0  0
M  CHG  2  20   1  23  -1
M  END
$$$$
