CHEMBL3959327
 OpenBabel04072215373D

 61 65  0  0  0  0  0  0  0  0999 V2000
    2.5527    0.7154   -1.0485 O   0  0  0  0  0  0  0  0  0  0  0  0
    2.1930    0.5297    0.1059 C   0  0  0  0  0  0  0  0  0  0  0  0
    0.8628    0.4197    0.4909 N   0  0  0  0  0  0  0  0  0  0  0  0
   -0.2414    0.5029   -0.3969 C   0  0  0  0  0  0  0  0  0  0  0  0
   -0.1142    0.3532   -1.7851 C   0  0  0  0  0  0  0  0  0  0  0  0
   -1.1859    0.5395   -2.6759 C   0  0  0  0  0  0  0  0  0  0  0  0
   -1.0031    0.3853   -4.1409 C   0  0  0  0  0  0  0  0  0  0  0  0
   -2.0417   -0.0764   -4.9618 C   0  0  0  0  0  0  0  0  0  0  0  0
   -1.8240   -0.2349   -6.3227 C   0  0  0  0  0  0  0  0  0  0  0  0
   -0.6504    0.0213   -6.9306 N   0  0  0  0  0  0  0  0  0  0  0  0
    0.3477    0.4622   -6.1403 C   0  0  0  0  0  0  0  0  0  0  0  0
    0.2195    0.6643   -4.7727 C   0  0  0  0  0  0  0  0  0  0  0  0
   -2.4305    0.8507   -2.1103 C   0  0  0  0  0  0  0  0  0  0  0  0
   -2.6141    0.9210   -0.7178 C   0  0  0  0  0  0  0  0  0  0  0  0
   -3.9868    1.1690   -0.1436 C   0  0  0  0  0  0  0  0  0  0  0  0
   -4.9583    1.3056   -1.0889 F   0  0  0  0  0  0  0  0  0  0  0  0
   -4.3970    0.1526    0.6650 F   0  0  0  0  0  0  0  0  0  0  0  0
   -4.0407    2.2967    0.6157 F   0  0  0  0  0  0  0  0  0  0  0  0
   -1.5083    0.7480    0.1329 C   0  0  0  0  0  0  0  0  0  0  0  0
    3.0619    0.4401    1.1826 N   0  0  0  0  0  0  0  0  0  0  0  0
    4.4677    0.6214    1.1282 C   0  0  0  0  0  0  0  0  0  0  0  0
    5.1545    0.9754   -0.0389 C   0  0  0  0  0  0  0  0  0  0  0  0
    6.5400    1.1574   -0.0442 C   0  0  0  0  0  0  0  0  0  0  0  0
    7.2811    0.9332    1.1132 C   0  0  0  0  0  0  0  0  0  0  0  0
    8.6547    1.0499    1.1640 O   0  0  0  0  0  0  0  0  0  0  0  0
    9.3975    0.6401    0.0718 C   0  0  0  0  0  0  0  0  0  0  0  0
    9.0454   -0.4453   -0.7263 C   0  0  0  0  0  0  0  0  0  0  0  0
    9.8369   -0.7217   -1.8177 C   0  0  0  0  0  0  0  0  0  0  0  0
   10.9537   -0.0337   -2.1125 N   0  0  0  0  0  0  0  0  0  0  0  0
   11.3324    0.9709   -1.3047 C   0  0  0  0  0  0  0  0  0  0  0  0
   12.5236    1.6624   -1.5802 N   0  0  0  0  0  0  0  0  0  0  0  0
   13.3319    1.3998   -2.6684 C   0  0  0  0  0  0  0  0  0  0  0  0
   13.1535    0.5808   -3.5576 O   0  0  0  0  0  0  0  0  0  0  0  0
   14.5775    2.2321   -2.7015 C   0  0  0  0  0  0  0  0  0  0  0  0
   15.4629    2.2200   -3.9314 C   0  0  0  0  0  0  0  0  0  0  0  0
   15.9215    1.5374   -2.6769 C   0  0  0  0  0  0  0  0  0  0  0  0
   10.5782    1.3397   -0.1947 C   0  0  0  0  0  0  0  0  0  0  0  0
    6.5982    0.6193    2.2886 C   0  0  0  0  0  0  0  0  0  0  0  0
    7.2745    0.4555    3.4357 F   0  0  0  0  0  0  0  0  0  0  0  0
    5.2063    0.4601    2.3041 C   0  0  0  0  0  0  0  0  0  0  0  0
    0.6611    0.5153    1.4753 H   0  0  0  0  0  0  0  0  0  0  0  0
    0.8419    0.0573   -2.2053 H   0  0  0  0  0  0  0  0  0  0  0  0
   -3.0146   -0.3360   -4.5594 H   0  0  0  0  0  0  0  0  0  0  0  0
   -2.6165   -0.5917   -6.9741 H   0  0  0  0  0  0  0  0  0  0  0  0
    1.2896    0.6543   -6.6468 H   0  0  0  0  0  0  0  0  0  0  0  0
    1.0792    1.0348   -4.2217 H   0  0  0  0  0  0  0  0  0  0  0  0
   -3.2870    1.0366   -2.7579 H   0  0  0  0  0  0  0  0  0  0  0  0
   -1.6531    0.8270    1.2085 H   0  0  0  0  0  0  0  0  0  0  0  0
    2.6705    0.1624    2.0697 H   0  0  0  0  0  0  0  0  0  0  0  0
    4.6507    1.1243   -0.9881 H   0  0  0  0  0  0  0  0  0  0  0  0
    7.0173    1.4524   -0.9753 H   0  0  0  0  0  0  0  0  0  0  0  0
    8.1638   -1.0453   -0.5400 H   0  0  0  0  0  0  0  0  0  0  0  0
    9.5902   -1.5190   -2.5125 H   0  0  0  0  0  0  0  0  0  0  0  0
   12.8093    2.3764   -0.9292 H   0  0  0  0  0  0  0  0  0  0  0  0
   14.5118    3.1864   -2.1888 H   0  0  0  0  0  0  0  0  0  0  0  0
   15.9521    3.1414   -4.2221 H   0  0  0  0  0  0  0  0  0  0  0  0
   15.1745    1.5937   -4.7710 H   0  0  0  0  0  0  0  0  0  0  0  0
   16.7273    1.9937   -2.1160 H   0  0  0  0  0  0  0  0  0  0  0  0
   15.9380    0.4516   -2.6790 H   0  0  0  0  0  0  0  0  0  0  0  0
   10.8799    2.1556    0.4521 H   0  0  0  0  0  0  0  0  0  0  0  0
    4.7290    0.2098    3.2462 H   0  0  0  0  0  0  0  0  0  0  0  0
  1  2  2  0  0  0  0
  2  3  1  0  0  0  0
  2 20  1  0  0  0  0
  3  4  1  0  0  0  0
  3 41  1  0  0  0  0
  4  5  1  0  0  0  0
  4 19  2  0  0  0  0
  5  6  2  0  0  0  0
  5 42  1  0  0  0  0
  6  7  1  0  0  0  0
  6 13  1  0  0  0  0
  7  8  1  0  0  0  0
  7 12  2  0  0  0  0
  8  9  2  0  0  0  0
  8 43  1  0  0  0  0
  9 10  1  0  0  0  0
  9 44  1  0  0  0  0
 10 11  2  0  0  0  0
 11 12  1  0  0  0  0
 11 45  1  0  0  0  0
 12 46  1  0  0  0  0
 13 14  2  0  0  0  0
 13 47  1  0  0  0  0
 14 15  1  0  0  0  0
 14 19  1  0  0  0  0
 15 16  1  0  0  0  0
 15 17  1  0  0  0  0
 15 18  1  0  0  0  0
 19 48  1  0  0  0  0
 20 21  1  0  0  0  0
 20 49  1  0  0  0  0
 21 22  1  0  0  0  0
 21 40  2  0  0  0  0
 22 23  2  0  0  0  0
 22 50  1  0  0  0  0
 23 24  1  0  0  0  0
 23 51  1  0  0  0  0
 24 25  1  0  0  0  0
 24 38  2  0  0  0  0
 25 26  1  0  0  0  0
 26 27  1  0  0  0  0
 26 37  2  0  0  0  0
 27 28  2  0  0  0  0
 27 52  1  0  0  0  0
 28 29  1  0  0  0  0
 28 53  1  0  0  0  0
 29 30  2  0  0  0  0
 30 31  1  0  0  0  0
 30 37  1  0  0  0  0
 31 32  1  0  0  0  0
 31 54  1  0  0  0  0
 32 33  2  0  0  0  0
 32 34  1  0  0  0  0
 34 35  1  0  0  0  0
 34 36  1  0  0  0  0
 34 55  1  0  0  0  0
 35 36  1  0  0  0  0
 35 56  1  0  0  0  0
 35 57  1  0  0  0  0
 36 58  1  0  0  0  0
 36 59  1  0  0  0  0
 37 60  1  0  0  0  0
 38 39  1  0  0  0  0
 38 40  1  0  0  0  0
 40 61  1  0  0  0  0
M  END
$$$$
