CHEMBL1681962
 OpenBabel04072215363D

 45 46  0  0  0  0  0  0  0  0999 V2000
    1.0886    0.2310   -0.1338 C   0  0  0  0  0  0  0  0  0  0  0  0
    2.5766    0.3168   -0.3922 C   0  0  0  0  0  0  0  0  0  0  0  0
    3.1799    1.5095    0.1616 N   0  0  0  0  0  0  0  0  0  0  0  0
    4.5462    1.6802   -0.0375 C   0  0  0  0  0  0  0  0  0  0  0  0
    5.2034    0.8458   -0.6423 O   0  0  0  0  0  0  0  0  0  0  0  0
    5.0138    2.8246    0.5505 N   0  0  0  0  0  0  0  0  0  0  0  0
    6.3703    3.2358    0.5605 C   0  0  0  0  0  0  0  0  0  0  0  0
    7.3278    2.7505   -0.3240 C   0  0  0  0  0  0  0  0  0  0  0  0
    8.6719    3.1124   -0.1800 C   0  0  0  0  0  0  0  0  0  0  0  0
    9.0769    3.9816    0.8399 C   0  0  0  0  0  0  0  0  0  0  0  0
   10.4245    4.2851    0.8469 O   0  0  0  0  0  0  0  0  0  0  0  0
   11.1371    4.2367    2.0427 C   0  0  0  0  0  0  0  0  0  0  0  0
   10.5759    3.6425    3.1167 N   0  0  0  0  0  0  0  0  0  0  0  0
   11.2737    3.7052    4.2533 C   0  0  0  0  0  0  0  0  0  0  0  0
   12.4939    4.2345    4.3947 N   0  0  0  0  0  0  0  0  0  0  0  0
   13.0580    4.7503    3.2894 C   0  0  0  0  0  0  0  0  0  0  0  0
   14.3056    5.3362    3.4979 N   0  0  0  0  0  0  0  0  0  0  0  0
   12.3993    4.8011    2.0697 C   0  0  0  0  0  0  0  0  0  0  0  0
   13.0167    5.3668    0.8610 C   0  0  0  0  0  0  0  0  0  0  0  0
   14.3021    5.3343    0.6864 N   0  0  0  0  0  0  0  0  0  0  0  0
   14.6186    5.9073   -0.5535 O   0  0  0  0  0  0  0  0  0  0  0  0
   16.0254    5.8016   -0.7477 C   0  0  0  0  0  0  0  0  0  0  0  0
    8.1065    4.5589    1.6761 C   0  0  0  0  0  0  0  0  0  0  0  0
    8.4011    5.5402    2.7759 C   0  0  0  0  0  0  0  0  0  0  0  0
    6.7596    4.1552    1.5315 C   0  0  0  0  0  0  0  0  0  0  0  0
    0.6971   -0.7170   -0.5147 H   0  0  0  0  0  0  0  0  0  0  0  0
    0.5571    1.0453   -0.6374 H   0  0  0  0  0  0  0  0  0  0  0  0
    0.8661    0.2909    0.9369 H   0  0  0  0  0  0  0  0  0  0  0  0
    2.7735    0.2981   -1.4697 H   0  0  0  0  0  0  0  0  0  0  0  0
    3.0817   -0.5493    0.0529 H   0  0  0  0  0  0  0  0  0  0  0  0
    2.6415    2.3637    0.1434 H   0  0  0  0  0  0  0  0  0  0  0  0
    4.4149    3.2167    1.2626 H   0  0  0  0  0  0  0  0  0  0  0  0
    7.0631    2.0773   -1.1364 H   0  0  0  0  0  0  0  0  0  0  0  0
    9.4033    2.6922   -0.8702 H   0  0  0  0  0  0  0  0  0  0  0  0
   10.7985    3.3133    5.1459 H   0  0  0  0  0  0  0  0  0  0  0  0
   14.6709    5.0333    4.3946 H   0  0  0  0  0  0  0  0  0  0  0  0
   14.9328    5.1713    2.7097 H   0  0  0  0  0  0  0  0  0  0  0  0
   12.3482    5.7980    0.0938 H   0  0  0  0  0  0  0  0  0  0  0  0
   16.2731    6.1966   -1.7365 H   0  0  0  0  0  0  0  0  0  0  0  0
   16.3393    4.7535   -0.6999 H   0  0  0  0  0  0  0  0  0  0  0  0
   16.5566    6.3862    0.0100 H   0  0  0  0  0  0  0  0  0  0  0  0
    9.3250    6.0968    2.6042 H   0  0  0  0  0  0  0  0  0  0  0  0
    8.4590    5.0142    3.7348 H   0  0  0  0  0  0  0  0  0  0  0  0
    7.6007    6.2824    2.8490 H   0  0  0  0  0  0  0  0  0  0  0  0
    6.0234    4.5624    2.2223 H   0  0  0  0  0  0  0  0  0  0  0  0
  1  2  1  0  0  0  0
  1 26  1  0  0  0  0
  1 27  1  0  0  0  0
  1 28  1  0  0  0  0
  2  3  1  0  0  0  0
  2 29  1  0  0  0  0
  2 30  1  0  0  0  0
  3  4  1  0  0  0  0
  3 31  1  0  0  0  0
  4  5  2  0  0  0  0
  4  6  1  0  0  0  0
  6  7  1  0  0  0  0
  6 32  1  0  0  0  0
  7  8  1  0  0  0  0
  7 25  2  0  0  0  0
  8  9  2  0  0  0  0
  8 33  1  0  0  0  0
  9 10  1  0  0  0  0
  9 34  1  0  0  0  0
 10 11  1  0  0  0  0
 10 23  2  0  0  0  0
 11 12  1  0  0  0  0
 12 13  1  0  0  0  0
 12 18  2  0  0  0  0
 13 14  2  0  0  0  0
 14 15  1  0  0  0  0
 14 35  1  0  0  0  0
 15 16  2  0  0  0  0
 16 17  1  0  0  0  0
 16 18  1  0  0  0  0
 17 36  1  0  0  0  0
 17 37  1  0  0  0  0
 18 19  1  0  0  0  0
 19 20  2  0  0  0  0
 19 38  1  0  0  0  0
 20 21  1  0  0  0  0
 21 22  1  0  0  0  0
 22 39  1  0  0  0  0
 22 40  1  0  0  0  0
 22 41  1  0  0  0  0
 23 24  1  0  0  0  0
 23 25  1  0  0  0  0
 24 42  1  0  0  0  0
 24 43  1  0  0  0  0
 24 44  1  0  0  0  0
 25 45  1  0  0  0  0
M  END
$$$$
