CHEMBL3671576
 OpenBabel04072215373D

 62 65  0  0  0  0  0  0  0  0999 V2000
    2.4661   -2.5777   -0.6166 C   0  0  0  0  0  0  0  0  0  0  0  0
    3.1575   -1.4515   -0.4149 C   0  0  0  0  0  0  0  0  0  0  0  0
    4.0124   -0.9148   -1.5027 C   0  0  0  0  0  0  0  0  0  0  0  0
    4.2084   -1.5517   -2.5309 O   0  0  0  0  0  0  0  0  0  0  0  0
    4.4632    0.3683   -1.2462 N   0  0  0  0  0  0  0  0  0  0  0  0
    5.1471    1.0993   -2.2422 C   0  0  0  0  0  0  0  0  0  0  0  0
    6.1972    0.4462   -2.8936 C   0  0  0  0  0  0  0  0  0  0  0  0
    6.8269    0.9916   -4.0258 C   0  0  0  0  0  0  0  0  0  0  0  0
    7.8719    0.3554   -4.7176 C   0  0  0  0  0  0  0  0  0  0  0  0
    8.2929   -0.9232   -4.2913 N   0  0  0  0  0  0  0  0  0  0  0  0
    9.5774   -1.4954   -4.3020 C   0  0  0  0  0  0  0  0  0  0  0  0
   10.7397   -0.7159   -4.2723 C   0  0  0  0  0  0  0  0  0  0  0  0
   11.9939   -1.3109   -4.0884 C   0  0  0  0  0  0  0  0  0  0  0  0
   12.0910   -2.6951   -3.9403 C   0  0  0  0  0  0  0  0  0  0  0  0
   13.7743   -3.4758   -3.5749 Br  0  0  0  0  0  0  0  0  0  0  0  0
   10.9621   -3.4968   -4.0189 C   0  0  0  0  0  0  0  0  0  0  0  0
    9.7194   -2.8860   -4.1901 C   0  0  0  0  0  0  0  0  0  0  0  0
    8.6228   -3.6637   -4.2255 F   0  0  0  0  0  0  0  0  0  0  0  0
    8.4687    0.9227   -5.7782 N   0  0  0  0  0  0  0  0  0  0  0  0
    7.9750    2.1018   -6.1710 C   0  0  0  0  0  0  0  0  0  0  0  0
    6.9782    2.7872   -5.5890 N   0  0  0  0  0  0  0  0  0  0  0  0
    6.4171    2.2364   -4.5048 C   0  0  0  0  0  0  0  0  0  0  0  0
    5.4057    2.9088   -3.8114 C   0  0  0  0  0  0  0  0  0  0  0  0
    4.7923    2.3891   -2.6542 C   0  0  0  0  0  0  0  0  0  0  0  0
    3.8067    3.1938   -2.1299 O   0  0  0  0  0  0  0  0  0  0  0  0
    3.6892    3.1908   -0.7037 C   0  0  0  0  0  0  0  0  0  0  0  0
    3.2590    4.5581   -0.1662 C   0  0  0  0  0  0  0  0  0  0  0  0
    3.3503    4.6229    1.2916 N   0  0  0  0  0  0  0  0  0  0  0  0
    4.5816    4.7470    1.9010 C   0  0  0  0  0  0  0  0  0  0  0  0
    5.6166    4.8652    1.2521 O   0  0  0  0  0  0  0  0  0  0  0  0
    4.5862    4.7299    3.4418 C   0  0  0  0  0  0  0  0  0  0  0  0
    4.8461    3.3813    4.0042 N   0  0  0  0  0  0  0  0  0  0  0  0
    4.8906    3.4524    5.4815 C   0  0  0  0  0  0  0  0  0  0  0  0
    6.3415    3.7272    5.8322 C   0  0  0  0  0  0  0  0  0  0  0  0
    7.0817    2.8702    4.8310 C   0  0  0  0  0  0  0  0  0  0  0  0
    6.1667    2.8360    3.6102 C   0  0  0  0  0  0  0  0  0  0  0  0
    1.8319   -2.9981    0.1555 H   0  0  0  0  0  0  0  0  0  0  0  0
    2.5137   -3.1069   -1.5662 H   0  0  0  0  0  0  0  0  0  0  0  0
    3.1183   -0.9257    0.5320 H   0  0  0  0  0  0  0  0  0  0  0  0
    4.0238    0.8612   -0.4894 H   0  0  0  0  0  0  0  0  0  0  0  0
    6.5339   -0.5141   -2.5059 H   0  0  0  0  0  0  0  0  0  0  0  0
    7.5387   -1.6049   -4.3302 H   0  0  0  0  0  0  0  0  0  0  0  0
   10.6752    0.3661   -4.3453 H   0  0  0  0  0  0  0  0  0  0  0  0
   12.8761   -0.6822   -4.0322 H   0  0  0  0  0  0  0  0  0  0  0  0
   11.0170   -4.5749   -3.9203 H   0  0  0  0  0  0  0  0  0  0  0  0
    8.4262    2.5466   -7.0515 H   0  0  0  0  0  0  0  0  0  0  0  0
    5.0788    3.8742   -4.1944 H   0  0  0  0  0  0  0  0  0  0  0  0
    4.6345    2.9038   -0.2338 H   0  0  0  0  0  0  0  0  0  0  0  0
    2.9088    2.4703   -0.4303 H   0  0  0  0  0  0  0  0  0  0  0  0
    2.2241    4.7767   -0.4514 H   0  0  0  0  0  0  0  0  0  0  0  0
    3.8870    5.3465   -0.5989 H   0  0  0  0  0  0  0  0  0  0  0  0
    2.5264    4.4627    1.8556 H   0  0  0  0  0  0  0  0  0  0  0  0
    3.6017    5.0749    3.7808 H   0  0  0  0  0  0  0  0  0  0  0  0
    5.3232    5.4711    3.7751 H   0  0  0  0  0  0  0  0  0  0  0  0
    4.5962    2.4764    5.8879 H   0  0  0  0  0  0  0  0  0  0  0  0
    4.2105    4.1966    5.9095 H   0  0  0  0  0  0  0  0  0  0  0  0
    6.5888    3.4626    6.8645 H   0  0  0  0  0  0  0  0  0  0  0  0
    6.5895    4.7847    5.6830 H   0  0  0  0  0  0  0  0  0  0  0  0
    7.2149    1.8573    5.2299 H   0  0  0  0  0  0  0  0  0  0  0  0
    8.0715    3.2757    4.5991 H   0  0  0  0  0  0  0  0  0  0  0  0
    6.0373    1.7989    3.2793 H   0  0  0  0  0  0  0  0  0  0  0  0
    6.6441    3.3677    2.7849 H   0  0  0  0  0  0  0  0  0  0  0  0
  1  2  2  0  0  0  0
  1 37  1  0  0  0  0
  1 38  1  0  0  0  0
  2  3  1  0  0  0  0
  2 39  1  0  0  0  0
  3  4  2  0  0  0  0
  3  5  1  0  0  0  0
  5  6  1  0  0  0  0
  5 40  1  0  0  0  0
  6  7  1  0  0  0  0
  6 24  2  0  0  0  0
  7  8  2  0  0  0  0
  7 41  1  0  0  0  0
  8  9  1  0  0  0  0
  8 22  1  0  0  0  0
  9 10  1  0  0  0  0
  9 19  2  0  0  0  0
 10 11  1  0  0  0  0
 10 42  1  0  0  0  0
 11 12  1  0  0  0  0
 11 17  2  0  0  0  0
 12 13  2  0  0  0  0
 12 43  1  0  0  0  0
 13 14  1  0  0  0  0
 13 44  1  0  0  0  0
 14 15  1  0  0  0  0
 14 16  2  0  0  0  0
 16 17  1  0  0  0  0
 16 45  1  0  0  0  0
 17 18  1  0  0  0  0
 19 20  1  0  0  0  0
 20 21  2  0  0  0  0
 20 46  1  0  0  0  0
 21 22  1  0  0  0  0
 22 23  2  0  0  0  0
 23 24  1  0  0  0  0
 23 47  1  0  0  0  0
 24 25  1  0  0  0  0
 25 26  1  0  0  0  0
 26 27  1  0  0  0  0
 26 48  1  0  0  0  0
 26 49  1  0  0  0  0
 27 28  1  0  0  0  0
 27 50  1  0  0  0  0
 27 51  1  0  0  0  0
 28 29  1  0  0  0  0
 28 52  1  0  0  0  0
 29 30  2  0  0  0  0
 29 31  1  0  0  0  0
 31 32  1  0  0  0  0
 31 53  1  0  0  0  0
 31 54  1  0  0  0  0
 32 33  1  0  0  0  0
 32 36  1  0  0  0  0
 33 34  1  0  0  0  0
 33 55  1  0  0  0  0
 33 56  1  0  0  0  0
 34 35  1  0  0  0  0
 34 57  1  0  0  0  0
 34 58  1  0  0  0  0
 35 36  1  0  0  0  0
 35 59  1  0  0  0  0
 35 60  1  0  0  0  0
 36 61  1  0  0  0  0
 36 62  1  0  0  0  0
M  END
$$$$
