CHEMBL195398
 OpenBabel04072215363D

 57 60  0  0  0  0  0  0  0  0999 V2000
   -0.9851   -9.2276   -5.6135 C   0  0  0  0  0  0  0  0  0  0  0  0
   -1.5251   -8.0381   -5.0410 O   0  0  0  0  0  0  0  0  0  0  0  0
   -0.4679   -7.3398   -4.4119 N   0  0  0  0  0  0  0  0  0  0  0  0
    0.1503   -6.3890   -5.1918 C   0  0  0  0  0  0  0  0  0  0  0  0
   -0.0293   -6.2404   -6.3971 O   0  0  0  0  0  0  0  0  0  0  0  0
    1.1329   -5.5188   -4.5087 C   0  0  0  0  0  0  0  0  0  0  0  0
    2.1976   -5.0080   -5.2672 C   0  0  0  0  0  0  0  0  0  0  0  0
    3.1001   -4.0876   -4.7211 C   0  0  0  0  0  0  0  0  0  0  0  0
    4.1675   -3.5513   -5.4706 N   0  0  0  0  0  0  0  0  0  0  0  0
    4.7688   -4.1191   -6.5723 C   0  0  0  0  0  0  0  0  0  0  0  0
    4.8722   -5.4214   -6.5996 N   0  0  0  0  0  0  0  0  0  0  0  0
    5.5020   -6.0481   -7.6337 C   0  0  0  0  0  0  0  0  0  0  0  0
    6.0414   -5.4795   -8.6587 N   0  0  0  0  0  0  0  0  0  0  0  0
    5.9353   -4.1437   -8.6593 N   0  0  0  0  0  0  0  0  0  0  0  0
    6.4154   -3.3581   -9.6618 C   0  0  0  0  0  0  0  0  0  0  0  0
    6.1271   -2.0507   -9.3585 C   0  0  0  0  0  0  0  0  0  0  0  0
    6.5302   -0.9154  -10.2548 C   0  0  0  0  0  0  0  0  0  0  0  0
    6.3351    0.3607   -9.9764 N   0  0  0  0  0  0  0  0  0  0  0  0
    6.8035    1.0994  -11.0330 N   0  0  0  0  0  0  0  0  0  0  0  0
    7.2539    0.2345  -11.9125 C   0  0  0  0  0  0  0  0  0  0  0  0
    7.8599    0.5097  -13.2198 C   0  0  0  0  0  0  0  0  0  0  0  0
    6.5796    0.4959  -14.4521 S   0  0  0  0  0  0  0  0  0  0  0  0
    5.4158    1.7559  -13.9670 C   0  0  0  0  0  0  0  0  0  0  0  0
    7.1864    0.9521  -15.6971 O   0  0  0  0  0  0  0  0  0  0  0  0
    5.8949   -0.7854  -14.4133 O   0  0  0  0  0  0  0  0  0  0  0  0
    7.1561   -1.0633  -11.4801 O   0  0  0  0  0  0  0  0  0  0  0  0
    5.3798   -2.0385   -8.1133 C   0  0  0  0  0  0  0  0  0  0  0  0
    4.7540   -0.7848   -7.5209 C   0  0  0  0  0  0  0  0  0  0  0  0
    3.2308   -0.8498   -7.4264 C   0  0  0  0  0  0  0  0  0  0  0  0
    5.3948   -0.2981   -6.2252 C   0  0  0  0  0  0  0  0  0  0  0  0
    5.3319   -3.3798   -7.6892 C   0  0  0  0  0  0  0  0  0  0  0  0
    2.9312   -3.7345   -3.3723 C   0  0  0  0  0  0  0  0  0  0  0  0
    3.7742   -2.8552   -2.8097 F   0  0  0  0  0  0  0  0  0  0  0  0
    1.9033   -4.2653   -2.5937 C   0  0  0  0  0  0  0  0  0  0  0  0
    1.0073   -5.1561   -3.1702 C   0  0  0  0  0  0  0  0  0  0  0  0
    0.0098   -5.6438   -2.4177 F   0  0  0  0  0  0  0  0  0  0  0  0
   -1.7918   -9.7699   -6.1127 H   0  0  0  0  0  0  0  0  0  0  0  0
   -0.5613   -9.8636   -4.8300 H   0  0  0  0  0  0  0  0  0  0  0  0
   -0.2169   -8.9871   -6.3558 H   0  0  0  0  0  0  0  0  0  0  0  0
   -0.5619   -7.2188   -3.4083 H   0  0  0  0  0  0  0  0  0  0  0  0
    2.2910   -5.3113   -6.3092 H   0  0  0  0  0  0  0  0  0  0  0  0
    4.4547   -2.6328   -5.1784 H   0  0  0  0  0  0  0  0  0  0  0  0
    5.5530   -7.1488   -7.5654 H   0  0  0  0  0  0  0  0  0  0  0  0
    6.9152   -3.8093  -10.5089 H   0  0  0  0  0  0  0  0  0  0  0  0
    8.6086   -0.2337  -13.5031 H   0  0  0  0  0  0  0  0  0  0  0  0
    8.3233    1.5013  -13.2399 H   0  0  0  0  0  0  0  0  0  0  0  0
    5.9230    2.7226  -13.9451 H   0  0  0  0  0  0  0  0  0  0  0  0
    4.9918    1.5132  -12.9909 H   0  0  0  0  0  0  0  0  0  0  0  0
    4.6147    1.7769  -14.7098 H   0  0  0  0  0  0  0  0  0  0  0  0
    4.9270    0.0345   -8.2228 H   0  0  0  0  0  0  0  0  0  0  0  0
    2.8807   -1.6733   -6.8031 H   0  0  0  0  0  0  0  0  0  0  0  0
    2.7891   -0.9731   -8.4222 H   0  0  0  0  0  0  0  0  0  0  0  0
    2.8337    0.0818   -7.0070 H   0  0  0  0  0  0  0  0  0  0  0  0
    5.2082   -0.9536   -5.3779 H   0  0  0  0  0  0  0  0  0  0  0  0
    4.9910    0.6853   -5.9559 H   0  0  0  0  0  0  0  0  0  0  0  0
    6.4790   -0.1933   -6.3327 H   0  0  0  0  0  0  0  0  0  0  0  0
    1.7938   -3.9752   -1.5540 H   0  0  0  0  0  0  0  0  0  0  0  0
  1  2  1  0  0  0  0
  1 37  1  0  0  0  0
  1 38  1  0  0  0  0
  1 39  1  0  0  0  0
  2  3  1  0  0  0  0
  3  4  1  0  0  0  0
  3 40  1  0  0  0  0
  4  5  2  0  0  0  0
  4  6  1  0  0  0  0
  6  7  1  0  0  0  0
  6 35  2  0  0  0  0
  7  8  2  0  0  0  0
  7 41  1  0  0  0  0
  8  9  1  0  0  0  0
  8 32  1  0  0  0  0
  9 10  1  0  0  0  0
  9 42  1  0  0  0  0
 10 11  2  0  0  0  0
 10 31  1  0  0  0  0
 11 12  1  0  0  0  0
 12 13  2  0  0  0  0
 12 43  1  0  0  0  0
 13 14  1  0  0  0  0
 14 15  1  0  0  0  0
 14 31  1  0  0  0  0
 15 16  2  0  0  0  0
 15 44  1  0  0  0  0
 16 17  1  0  0  0  0
 16 27  1  0  0  0  0
 17 18  2  0  0  0  0
 17 26  1  0  0  0  0
 18 19  1  0  0  0  0
 19 20  2  0  0  0  0
 20 21  1  0  0  0  0
 20 26  1  0  0  0  0
 21 22  1  0  0  0  0
 21 45  1  0  0  0  0
 21 46  1  0  0  0  0
 22 23  1  0  0  0  0
 22 24  2  0  0  0  0
 22 25  2  0  0  0  0
 23 47  1  0  0  0  0
 23 48  1  0  0  0  0
 23 49  1  0  0  0  0
 27 28  1  0  0  0  0
 27 31  2  0  0  0  0
 28 29  1  0  0  0  0
 28 30  1  0  0  0  0
 28 50  1  0  0  0  0
 29 51  1  0  0  0  0
 29 52  1  0  0  0  0
 29 53  1  0  0  0  0
 30 54  1  0  0  0  0
 30 55  1  0  0  0  0
 30 56  1  0  0  0  0
 32 33  1  0  0  0  0
 32 34  2  0  0  0  0
 34 35  1  0  0  0  0
 34 57  1  0  0  0  0
 35 36  1  0  0  0  0
M  END
$$$$
