CHEMBL2086751
 OpenBabel04072215363D

 68 73  0  0  0  0  0  0  0  0999 V2000
    6.3432   -2.5508   -4.4061 C   0  0  0  0  0  0  0  0  0  0  0  0
    5.2513   -1.7575   -3.6881 C   0  0  0  0  0  0  0  0  0  0  0  0
    3.9925   -1.6238   -4.4509 N   0  0  0  0  0  0  0  0  0  0  0  0
    3.3914   -2.9481   -4.6894 C   0  0  0  0  0  0  0  0  0  0  0  0
    2.0414   -2.8376   -5.3899 C   0  0  0  0  0  0  0  0  0  0  0  0
    1.0616   -2.0495   -4.5181 C   0  0  0  0  0  0  0  0  0  0  0  0
    0.8419   -2.6956   -3.1958 N   0  0  0  0  0  0  0  0  0  0  0  0
    0.3221   -4.0040   -3.1440 C   0  0  0  0  0  0  0  0  0  0  0  0
   -0.5494   -4.4854   -4.1374 C   0  0  0  0  0  0  0  0  0  0  0  0
   -1.0431   -5.7842   -4.0966 C   0  0  0  0  0  0  0  0  0  0  0  0
   -0.6653   -6.5790   -3.0227 C   0  0  0  0  0  0  0  0  0  0  0  0
    0.1519   -6.1429   -1.9753 C   0  0  0  0  0  0  0  0  0  0  0  0
    0.6296   -4.8328   -2.0307 C   0  0  0  0  0  0  0  0  0  0  0  0
    0.3039   -7.3104   -1.0351 C   0  0  0  0  0  0  0  0  0  0  0  0
    0.9470   -7.4411    0.1626 C   0  0  0  0  0  0  0  0  0  0  0  0
    1.5135   -6.2214    0.8046 C   0  0  0  0  0  0  0  0  0  0  0  0
    0.7011   -5.3893    1.6020 C   0  0  0  0  0  0  0  0  0  0  0  0
    1.2526   -4.3069    2.2928 C   0  0  0  0  0  0  0  0  0  0  0  0
    2.6166   -4.0488    2.2089 C   0  0  0  0  0  0  0  0  0  0  0  0
    3.4269   -4.8586    1.4095 C   0  0  0  0  0  0  0  0  0  0  0  0
    2.8773   -5.9319    0.7005 C   0  0  0  0  0  0  0  0  0  0  0  0
    0.9266   -8.6737    0.9451 C   0  0  0  0  0  0  0  0  0  0  0  0
    1.7274   -9.7330    1.0814 N   0  0  0  0  0  0  0  0  0  0  0  0
    1.1242  -10.5798    2.0300 C   0  0  0  0  0  0  0  0  0  0  0  0
    1.4362  -11.8815    2.5283 C   0  0  0  0  0  0  0  0  0  0  0  0
    0.5215  -12.5181    3.4001 C   0  0  0  0  0  0  0  0  0  0  0  0
    0.5681  -13.7722    3.9316 O   0  0  0  0  0  0  0  0  0  0  0  0
    1.6394  -14.6441    3.6206 C   0  0  0  0  0  0  0  0  0  0  0  0
   -0.6373  -11.8463    3.8138 C   0  0  0  0  0  0  0  0  0  0  0  0
   -0.9072  -10.5403    3.4162 C   0  0  0  0  0  0  0  0  0  0  0  0
   -0.0181   -9.9613    2.5209 C   0  0  0  0  0  0  0  0  0  0  0  0
   -0.0436   -8.7356    1.9169 N   0  0  0  0  0  0  0  0  0  0  0  0
   -0.5199   -8.4183   -1.6728 C   0  0  0  0  0  0  0  0  0  0  0  0
   -0.7640   -9.5333   -1.2348 O   0  0  0  0  0  0  0  0  0  0  0  0
   -1.0436   -7.8957   -2.8417 N   0  0  0  0  0  0  0  0  0  0  0  0
    1.6667   -0.6544   -4.3398 C   0  0  0  0  0  0  0  0  0  0  0  0
    3.0665   -0.7303   -3.7202 C   0  0  0  0  0  0  0  0  0  0  0  0
    7.2647   -2.5324   -3.8144 H   0  0  0  0  0  0  0  0  0  0  0  0
    6.5674   -2.1278   -5.3905 H   0  0  0  0  0  0  0  0  0  0  0  0
    6.0719   -3.6038   -4.5342 H   0  0  0  0  0  0  0  0  0  0  0  0
    5.6539   -0.7565   -3.4890 H   0  0  0  0  0  0  0  0  0  0  0  0
    5.0622   -2.2261   -2.7133 H   0  0  0  0  0  0  0  0  0  0  0  0
    3.2837   -3.5045   -3.7495 H   0  0  0  0  0  0  0  0  0  0  0  0
    4.0411   -3.5416   -5.3401 H   0  0  0  0  0  0  0  0  0  0  0  0
    1.6659   -3.8361   -5.6339 H   0  0  0  0  0  0  0  0  0  0  0  0
    2.1716   -2.3245   -6.3536 H   0  0  0  0  0  0  0  0  0  0  0  0
    0.1027   -1.9281   -5.0358 H   0  0  0  0  0  0  0  0  0  0  0  0
    0.3107   -2.0947   -2.5667 H   0  0  0  0  0  0  0  0  0  0  0  0
   -0.8375   -3.8577   -4.9745 H   0  0  0  0  0  0  0  0  0  0  0  0
   -1.6894   -6.1417   -4.8873 H   0  0  0  0  0  0  0  0  0  0  0  0
    1.2778   -4.4415   -1.2547 H   0  0  0  0  0  0  0  0  0  0  0  0
   -0.3619   -5.5866    1.7090 H   0  0  0  0  0  0  0  0  0  0  0  0
    0.6214   -3.6761    2.9157 H   0  0  0  0  0  0  0  0  0  0  0  0
    3.0545   -3.2296    2.7699 H   0  0  0  0  0  0  0  0  0  0  0  0
    4.4963   -4.6699    1.3589 H   0  0  0  0  0  0  0  0  0  0  0  0
    3.5235   -6.5548    0.0857 H   0  0  0  0  0  0  0  0  0  0  0  0
    2.3470  -12.3766    2.2093 H   0  0  0  0  0  0  0  0  0  0  0  0
    1.4280  -15.6023    4.1144 H   0  0  0  0  0  0  0  0  0  0  0  0
    2.5792  -14.2658    4.0286 H   0  0  0  0  0  0  0  0  0  0  0  0
    1.7052  -14.8373    2.5473 H   0  0  0  0  0  0  0  0  0  0  0  0
   -1.3456  -12.3594    4.4528 H   0  0  0  0  0  0  0  0  0  0  0  0
   -1.8034  -10.0347    3.7517 H   0  0  0  0  0  0  0  0  0  0  0  0
   -0.7140   -8.0126    2.1130 H   0  0  0  0  0  0  0  0  0  0  0  0
   -1.6554   -8.4192   -3.4521 H   0  0  0  0  0  0  0  0  0  0  0  0
    1.0134   -0.0260   -3.7232 H   0  0  0  0  0  0  0  0  0  0  0  0
    1.7333   -0.1634   -5.3216 H   0  0  0  0  0  0  0  0  0  0  0  0
    2.9649   -1.0370   -2.6715 H   0  0  0  0  0  0  0  0  0  0  0  0
    3.4832    0.2851   -3.7161 H   0  0  0  0  0  0  0  0  0  0  0  0
  1  2  1  0  0  0  0
  1 38  1  0  0  0  0
  1 39  1  0  0  0  0
  1 40  1  0  0  0  0
  2  3  1  0  0  0  0
  2 41  1  0  0  0  0
  2 42  1  0  0  0  0
  3  4  1  0  0  0  0
  3 37  1  0  0  0  0
  4  5  1  0  0  0  0
  4 43  1  0  0  0  0
  4 44  1  0  0  0  0
  5  6  1  0  0  0  0
  5 45  1  0  0  0  0
  5 46  1  0  0  0  0
  6  7  1  0  0  0  0
  6 36  1  0  0  0  0
  6 47  1  0  0  0  0
  7  8  1  0  0  0  0
  7 48  1  0  0  0  0
  8  9  1  0  0  0  0
  8 13  2  0  0  0  0
  9 10  2  0  0  0  0
  9 49  1  0  0  0  0
 10 11  1  0  0  0  0
 10 50  1  0  0  0  0
 11 12  2  0  0  0  0
 11 35  1  0  0  0  0
 12 13  1  0  0  0  0
 12 14  1  0  0  0  0
 13 51  1  0  0  0  0
 14 15  2  3  0  0  0
 14 33  1  0  0  0  0
 15 16  1  0  0  0  0
 15 22  1  0  0  0  0
 16 17  1  0  0  0  0
 16 21  2  0  0  0  0
 17 18  2  0  0  0  0
 17 52  1  0  0  0  0
 18 19  1  0  0  0  0
 18 53  1  0  0  0  0
 19 20  2  0  0  0  0
 19 54  1  0  0  0  0
 20 21  1  0  0  0  0
 20 55  1  0  0  0  0
 21 56  1  0  0  0  0
 22 23  2  0  0  0  0
 22 32  1  0  0  0  0
 23 24  1  0  0  0  0
 24 25  1  0  0  0  0
 24 31  2  0  0  0  0
 25 26  2  0  0  0  0
 25 57  1  0  0  0  0
 26 27  1  0  0  0  0
 26 29  1  0  0  0  0
 27 28  1  0  0  0  0
 28 58  1  0  0  0  0
 28 59  1  0  0  0  0
 28 60  1  0  0  0  0
 29 30  2  0  0  0  0
 29 61  1  0  0  0  0
 30 31  1  0  0  0  0
 30 62  1  0  0  0  0
 31 32  1  0  0  0  0
 32 63  1  0  0  0  0
 33 34  2  0  0  0  0
 33 35  1  0  0  0  0
 35 64  1  0  0  0  0
 36 37  1  0  0  0  0
 36 65  1  0  0  0  0
 36 66  1  0  0  0  0
 37 67  1  0  0  0  0
 37 68  1  0  0  0  0
M  END
$$$$
