CHEMBL329142
 OpenBabel04072215363D

 33 36  0  0  0  0  0  0  0  0999 V2000
    0.1398    1.1893    2.8030 Cl  0  0  0  0  0  0  0  0  0  0  0  0
    0.6093    0.4971    1.2980 C   0  0  0  0  0  0  0  0  0  0  0  0
    0.2511    1.1272    0.1091 C   0  0  0  0  0  0  0  0  0  0  0  0
    0.6299    0.5655   -1.1082 C   0  0  0  0  0  0  0  0  0  0  0  0
    1.3647   -0.6241   -1.1306 C   0  0  0  0  0  0  0  0  0  0  0  0
    1.7300   -1.2666    0.0635 C   0  0  0  0  0  0  0  0  0  0  0  0
    2.4793   -2.5150    0.0184 C   0  0  0  0  0  0  0  0  0  0  0  0
    2.4757   -3.5343   -0.9591 C   0  0  0  0  0  0  0  0  0  0  0  0
    3.3020   -4.5413   -0.6789 N   0  0  0  0  0  0  0  0  0  0  0  0
    3.8666   -4.1900    0.5001 N   0  0  0  0  0  0  0  0  0  0  0  0
    4.8162   -4.9069    1.2203 C   0  0  0  0  0  0  0  0  0  0  0  0
    5.2953   -4.4271    2.3788 C   0  0  0  0  0  0  0  0  0  0  0  0
    6.3048   -5.1234    3.1693 C   0  0  0  0  0  0  0  0  0  0  0  0
    7.6600   -4.8645    2.9613 C   0  0  0  0  0  0  0  0  0  0  0  0
    8.5832   -5.5548    3.7282 C   0  0  0  0  0  0  0  0  0  0  0  0
    8.2461   -6.4646    4.6663 N   0  0  0  0  0  0  0  0  0  0  0  0
    6.9291   -6.6992    4.8464 C   0  0  0  0  0  0  0  0  0  0  0  0
    5.9298   -6.0618    4.1305 C   0  0  0  0  0  0  0  0  0  0  0  0
    4.7273   -3.1083    2.7930 C   0  0  0  0  0  0  0  0  0  0  0  0
    3.8419   -2.4136    2.1432 N   0  0  0  0  0  0  0  0  0  0  0  0
    3.3902   -2.9557    0.9651 C   0  0  0  0  0  0  0  0  0  0  0  0
    1.3399   -0.6913    1.2807 C   0  0  0  0  0  0  0  0  0  0  0  0
   -0.3196    2.0516    0.1255 H   0  0  0  0  0  0  0  0  0  0  0  0
    0.3566    1.0537   -2.0405 H   0  0  0  0  0  0  0  0  0  0  0  0
    1.6577   -1.0325   -2.0953 H   0  0  0  0  0  0  0  0  0  0  0  0
    1.8927   -3.5861   -1.8699 H   0  0  0  0  0  0  0  0  0  0  0  0
    5.1269   -5.8446    0.7794 H   0  0  0  0  0  0  0  0  0  0  0  0
    7.9977   -4.1470    2.2206 H   0  0  0  0  0  0  0  0  0  0  0  0
    9.6500   -5.3908    3.6037 H   0  0  0  0  0  0  0  0  0  0  0  0
    6.6908   -7.4386    5.6062 H   0  0  0  0  0  0  0  0  0  0  0  0
    4.8886   -6.2983    4.3233 H   0  0  0  0  0  0  0  0  0  0  0  0
    5.1109   -2.7063    3.7468 H   0  0  0  0  0  0  0  0  0  0  0  0
    1.5974   -1.1665    2.2237 H   0  0  0  0  0  0  0  0  0  0  0  0
  1  2  1  0  0  0  0
  2  3  1  0  0  0  0
  2 22  2  0  0  0  0
  3  4  2  0  0  0  0
  3 23  1  0  0  0  0
  4  5  1  0  0  0  0
  4 24  1  0  0  0  0
  5  6  2  0  0  0  0
  5 25  1  0  0  0  0
  6  7  1  0  0  0  0
  6 22  1  0  0  0  0
  7  8  1  0  0  0  0
  7 21  2  0  0  0  0
  8  9  2  0  0  0  0
  8 26  1  0  0  0  0
  9 10  1  0  0  0  0
 10 11  1  0  0  0  0
 10 21  1  0  0  0  0
 11 12  2  0  0  0  0
 11 27  1  0  0  0  0
 12 13  1  0  0  0  0
 12 19  1  0  0  0  0
 13 14  1  0  0  0  0
 13 18  2  0  0  0  0
 14 15  2  0  0  0  0
 14 28  1  0  0  0  0
 15 16  1  0  0  0  0
 15 29  1  0  0  0  0
 16 17  2  0  0  0  0
 17 18  1  0  0  0  0
 17 30  1  0  0  0  0
 18 31  1  0  0  0  0
 19 20  2  0  0  0  0
 19 32  1  0  0  0  0
 20 21  1  0  0  0  0
 22 33  1  0  0  0  0
M  END
$$$$
