CHEMBL3925610
 OpenBabel04072215373D

 75 80  0  0  1  0  0  0  0  0999 V2000
    0.2713    2.6058   -4.6294 C   0  0  0  0  0  0  0  0  0  0  0  0
    1.6453    2.2660   -4.8118 O   0  0  0  0  0  0  0  0  0  0  0  0
    2.4229    1.8797   -3.7516 C   0  0  0  0  0  0  0  0  0  0  0  0
    1.9897    1.7034   -2.4392 C   0  0  0  0  0  0  0  0  0  0  0  0
    2.8820    1.2386   -1.4712 C   0  0  0  0  0  0  0  0  0  0  0  0
    2.6104    1.0368   -0.1435 O   0  0  0  0  0  0  0  0  0  0  0  0
    1.2995    1.3166    0.3265 C   0  0  0  0  0  0  0  0  0  0  0  0
    4.2026    0.9318   -1.8256 C   0  0  0  0  0  0  0  0  0  0  0  0
    4.6900    1.0766   -3.1305 C   0  0  0  0  0  0  0  0  0  0  0  0
    5.9947    0.6620   -3.5069 N   0  0  0  0  0  0  0  0  0  0  0  0
    6.5828   -0.5356   -2.7699 C   0  0  0  0  0  0  0  0  0  0  0  0
    6.4024   -1.9545   -3.4035 C   0  0  3  0  0  0  0  0  0  0  0  0
    4.9770   -2.5382   -3.3146 C   0  0  0  0  0  0  0  0  0  0  0  0
    4.8396   -3.9228   -3.8543 N   0  0  0  0  0  0  0  0  0  0  0  0
    4.9743   -4.0194   -5.3184 C   0  0  0  0  0  0  0  0  0  0  0  0
    3.8952   -3.3392   -6.1329 C   0  0  0  0  0  0  0  0  0  0  0  0
    4.2220   -2.8007   -7.3879 C   0  0  0  0  0  0  0  0  0  0  0  0
    3.2292   -2.2918   -8.2262 C   0  0  0  0  0  0  0  0  0  0  0  0
    1.8968   -2.3172   -7.8222 C   0  0  0  0  0  0  0  0  0  0  0  0
    1.5580   -2.8389   -6.5752 C   0  0  0  0  0  0  0  0  0  0  0  0
    2.5501   -3.3521   -5.7371 C   0  0  0  0  0  0  0  0  0  0  0  0
    5.8444   -4.7926   -3.2024 C   0  0  0  0  0  0  0  0  0  0  0  0
    7.2616   -4.1949   -3.1463 C   0  0  0  0  0  0  0  0  0  0  0  0
    7.2892   -2.8461   -2.6608 O   0  0  0  0  0  0  0  0  0  0  0  0
    7.0731    1.4664   -4.0399 C   0  0  0  0  0  0  0  0  0  0  0  0
    7.8550    0.8320   -5.0000 C   0  0  0  0  0  0  0  0  0  0  0  0
    9.1761    1.1938   -5.1605 C   0  0  0  0  0  0  0  0  0  0  0  0
    9.7278    2.2718   -4.4976 C   0  0  0  0  0  0  0  0  0  0  0  0
   11.0586    2.3261   -4.5963 N   0  0  0  0  0  0  0  0  0  0  0  0
   11.6466    3.4128   -4.0874 C   0  0  0  0  0  0  0  0  0  0  0  0
   10.9223    4.4737   -3.5966 C   0  0  0  0  0  0  0  0  0  0  0  0
   11.6455    5.7484   -3.5185 C   0  0  0  0  0  0  0  0  0  0  0  0
   11.7246    6.7939   -4.4816 C   0  0  0  0  0  0  0  0  0  0  0  0
   12.6901    7.6852   -4.2185 N   0  0  0  0  0  0  0  0  0  0  0  0
   13.2470    7.2169   -3.0898 N   0  0  0  0  0  0  0  0  0  0  0  0
   14.1580    8.0430   -2.3296 C   0  0  0  0  0  0  0  0  0  0  0  0
   12.7701    5.9797   -2.7367 C   0  0  0  0  0  0  0  0  0  0  0  0
    9.5555    4.3688   -3.3866 N   0  0  0  0  0  0  0  0  0  0  0  0
    8.9332    3.1758   -3.7770 C   0  0  0  0  0  0  0  0  0  0  0  0
    7.5699    2.7100   -3.5275 C   0  0  0  0  0  0  0  0  0  0  0  0
    3.7674    1.5682   -4.0790 C   0  0  0  0  0  0  0  0  0  0  0  0
   -0.3062    2.1141   -5.4213 H   0  0  0  0  0  0  0  0  0  0  0  0
    0.1542    3.6875   -4.7574 H   0  0  0  0  0  0  0  0  0  0  0  0
   -0.1784    2.3081   -3.6838 H   0  0  0  0  0  0  0  0  0  0  0  0
    0.9713    1.9201   -2.1477 H   0  0  0  0  0  0  0  0  0  0  0  0
    1.3252    1.2599    1.4197 H   0  0  0  0  0  0  0  0  0  0  0  0
    0.5914    0.5632   -0.0327 H   0  0  0  0  0  0  0  0  0  0  0  0
    0.9745    2.3271    0.0612 H   0  0  0  0  0  0  0  0  0  0  0  0
    4.8459    0.5875   -1.0228 H   0  0  0  0  0  0  0  0  0  0  0  0
    6.2828   -0.5757   -1.7203 H   0  0  0  0  0  0  0  0  0  0  0  0
    7.6718   -0.3963   -2.6786 H   0  0  0  0  0  0  0  0  0  0  0  0
    6.7478   -1.9353   -4.4421 H   0  0  0  0  0  0  0  0  0  0  0  0
    4.2486   -1.8738   -3.7846 H   0  0  0  0  0  0  0  0  0  0  0  0
    4.6961   -2.6006   -2.2536 H   0  0  0  0  0  0  0  0  0  0  0  0
    4.9092   -5.0795   -5.6045 H   0  0  0  0  0  0  0  0  0  0  0  0
    5.9608   -3.6748   -5.6485 H   0  0  0  0  0  0  0  0  0  0  0  0
    5.2535   -2.7962   -7.7325 H   0  0  0  0  0  0  0  0  0  0  0  0
    3.4946   -1.8909   -9.2008 H   0  0  0  0  0  0  0  0  0  0  0  0
    1.1216   -1.9377   -8.4823 H   0  0  0  0  0  0  0  0  0  0  0  0
    0.5184   -2.8613   -6.2598 H   0  0  0  0  0  0  0  0  0  0  0  0
    2.2690   -3.7759   -4.7751 H   0  0  0  0  0  0  0  0  0  0  0  0
    5.8835   -5.7790   -3.6872 H   0  0  0  0  0  0  0  0  0  0  0  0
    5.4998   -4.9898   -2.1803 H   0  0  0  0  0  0  0  0  0  0  0  0
    7.7497   -4.2301   -4.1261 H   0  0  0  0  0  0  0  0  0  0  0  0
    7.8696   -4.7996   -2.4625 H   0  0  0  0  0  0  0  0  0  0  0  0
    7.4852   -0.0474   -5.5164 H   0  0  0  0  0  0  0  0  0  0  0  0
    9.8178    0.5908   -5.7941 H   0  0  0  0  0  0  0  0  0  0  0  0
   12.7285    3.4295   -4.1467 H   0  0  0  0  0  0  0  0  0  0  0  0
   11.1501    6.9215   -5.3901 H   0  0  0  0  0  0  0  0  0  0  0  0
   14.3025    9.0037   -2.8335 H   0  0  0  0  0  0  0  0  0  0  0  0
   15.1161    7.5302   -2.2171 H   0  0  0  0  0  0  0  0  0  0  0  0
   13.6997    8.2139   -1.3516 H   0  0  0  0  0  0  0  0  0  0  0  0
   13.2566    5.4031   -1.9615 H   0  0  0  0  0  0  0  0  0  0  0  0
    6.9442    3.2924   -2.8513 H   0  0  0  0  0  0  0  0  0  0  0  0
    4.0804    1.6660   -5.1201 H   0  0  0  0  0  0  0  0  0  0  0  0
  1  2  1  0  0  0  0
  1 42  1  0  0  0  0
  1 43  1  0  0  0  0
  1 44  1  0  0  0  0
  2  3  1  0  0  0  0
  3  4  1  0  0  0  0
  3 41  2  0  0  0  0
  4  5  2  0  0  0  0
  4 45  1  0  0  0  0
  5  6  1  0  0  0  0
  5  8  1  0  0  0  0
  6  7  1  0  0  0  0
  7 46  1  0  0  0  0
  7 47  1  0  0  0  0
  7 48  1  0  0  0  0
  8  9  2  0  0  0  0
  8 49  1  0  0  0  0
  9 10  1  0  0  0  0
  9 41  1  0  0  0  0
 10 11  1  0  0  0  0
 10 25  1  0  0  0  0
 11 12  1  0  0  0  0
 11 50  1  0  0  0  0
 11 51  1  0  0  0  0
 12 13  1  0  0  0  0
 12 24  1  0  0  0  0
 12 52  1  0  0  0  0
 13 14  1  0  0  0  0
 13 53  1  0  0  0  0
 13 54  1  0  0  0  0
 14 15  1  0  0  0  0
 14 22  1  0  0  0  0
 15 16  1  0  0  0  0
 15 55  1  0  0  0  0
 15 56  1  0  0  0  0
 16 17  1  0  0  0  0
 16 21  2  0  0  0  0
 17 18  2  0  0  0  0
 17 57  1  0  0  0  0
 18 19  1  0  0  0  0
 18 58  1  0  0  0  0
 19 20  2  0  0  0  0
 19 59  1  0  0  0  0
 20 21  1  0  0  0  0
 20 60  1  0  0  0  0
 21 61  1  0  0  0  0
 22 23  1  0  0  0  0
 22 62  1  0  0  0  0
 22 63  1  0  0  0  0
 23 24  1  0  0  0  0
 23 64  1  0  0  0  0
 23 65  1  0  0  0  0
 25 26  1  0  0  0  0
 25 40  2  0  0  0  0
 26 27  2  0  0  0  0
 26 66  1  0  0  0  0
 27 28  1  0  0  0  0
 27 67  1  0  0  0  0
 28 29  1  0  0  0  0
 28 39  2  0  0  0  0
 29 30  2  0  0  0  0
 30 31  1  0  0  0  0
 30 68  1  0  0  0  0
 31 32  1  0  0  0  0
 31 38  2  0  0  0  0
 32 33  1  0  0  0  0
 32 37  2  0  0  0  0
 33 34  2  0  0  0  0
 33 69  1  0  0  0  0
 34 35  1  0  0  0  0
 35 36  1  0  0  0  0
 35 37  1  0  0  0  0
 36 70  1  0  0  0  0
 36 71  1  0  0  0  0
 36 72  1  0  0  0  0
 37 73  1  0  0  0  0
 38 39  1  0  0  0  0
 39 40  1  0  0  0  0
 40 74  1  0  0  0  0
 41 75  1  0  0  0  0
M  END
$$$$
