CHEMBL182468
 OpenBabel04072215363D

 43 46  0  0  0  0  0  0  0  0999 V2000
    1.0844    0.7257    0.1280 O   0  0  0  0  0  0  0  0  0  0  0  0
    2.2085    0.2320    0.0434 C   0  0  0  0  0  0  0  0  0  0  0  0
    2.7761   -0.1879   -1.1501 N   0  0  0  0  0  0  0  0  0  0  0  0
    2.1654   -0.0662   -2.4186 C   0  0  0  0  0  0  0  0  0  0  0  0
    1.1331    0.8364   -2.6838 C   0  0  0  0  0  0  0  0  0  0  0  0
    0.4710    0.8331   -3.9156 C   0  0  0  0  0  0  0  0  0  0  0  0
    0.8018   -0.0976   -4.9042 C   0  0  0  0  0  0  0  0  0  0  0  0
   -0.0800   -0.3580   -6.0565 C   0  0  0  0  0  0  0  0  0  0  0  0
    0.4380   -0.6257   -7.3422 C   0  0  0  0  0  0  0  0  0  0  0  0
   -0.3432   -1.2240   -8.3543 C   0  0  0  0  0  0  0  0  0  0  0  0
   -1.6363   -1.6515   -8.0797 C   0  0  0  0  0  0  0  0  0  0  0  0
   -2.1286   -1.3743   -6.8216 C   0  0  0  0  0  0  0  0  0  0  0  0
   -1.4283   -0.6451   -5.8604 C   0  0  0  0  0  0  0  0  0  0  0  0
   -2.3014   -0.5201   -4.6575 C   0  0  0  0  0  0  0  0  0  0  0  0
   -3.1699   -1.6556   -4.7919 N   0  0  0  0  0  0  0  0  0  0  0  0
   -3.1706   -2.1144   -6.0926 C   0  0  0  0  0  0  0  0  0  0  0  0
   -3.7418   -3.1069   -6.5120 O   0  0  0  0  0  0  0  0  0  0  0  0
    1.9080   -0.9357   -4.6625 C   0  0  0  0  0  0  0  0  0  0  0  0
    2.5936   -0.9106   -3.4414 C   0  0  0  0  0  0  0  0  0  0  0  0
    3.0488    0.0109    1.1209 N   0  0  0  0  0  0  0  0  0  0  0  0
    2.7564    0.2722    2.4806 C   0  0  0  0  0  0  0  0  0  0  0  0
    1.5481    0.7864    2.9423 C   0  0  0  0  0  0  0  0  0  0  0  0
    1.3206    1.0137    4.3024 C   0  0  0  0  0  0  0  0  0  0  0  0
    2.3168    0.7128    5.2249 C   0  0  0  0  0  0  0  0  0  0  0  0
    3.5281    0.1931    4.7764 C   0  0  0  0  0  0  0  0  0  0  0  0
    4.7621   -0.1867    5.9195 Cl  0  0  0  0  0  0  0  0  0  0  0  0
    3.7572   -0.0246    3.4192 C   0  0  0  0  0  0  0  0  0  0  0  0
    3.5269   -0.8614   -1.0768 H   0  0  0  0  0  0  0  0  0  0  0  0
    0.7870    1.5415   -1.9336 H   0  0  0  0  0  0  0  0  0  0  0  0
   -0.3630    1.5188   -4.0532 H   0  0  0  0  0  0  0  0  0  0  0  0
    1.4929   -0.4461   -7.5479 H   0  0  0  0  0  0  0  0  0  0  0  0
    0.1079   -1.4552   -9.3167 H   0  0  0  0  0  0  0  0  0  0  0  0
   -2.2040   -2.2555   -8.7803 H   0  0  0  0  0  0  0  0  0  0  0  0
   -2.9345    0.3753   -4.7561 H   0  0  0  0  0  0  0  0  0  0  0  0
   -1.8141   -0.5225   -3.6857 H   0  0  0  0  0  0  0  0  0  0  0  0
   -3.1042   -2.4019   -4.1053 H   0  0  0  0  0  0  0  0  0  0  0  0
    2.1992   -1.6829   -5.3992 H   0  0  0  0  0  0  0  0  0  0  0  0
    3.4080   -1.6134   -3.2883 H   0  0  0  0  0  0  0  0  0  0  0  0
    3.9766   -0.3160    0.9122 H   0  0  0  0  0  0  0  0  0  0  0  0
    0.7278    1.0407    2.2644 H   0  0  0  0  0  0  0  0  0  0  0  0
    0.3684    1.4229    4.6336 H   0  0  0  0  0  0  0  0  0  0  0  0
    2.1390    0.8841    6.2838 H   0  0  0  0  0  0  0  0  0  0  0  0
    4.7073   -0.4349    3.1023 H   0  0  0  0  0  0  0  0  0  0  0  0
  1  2  2  0  0  0  0
  2  3  1  0  0  0  0
  2 20  1  0  0  0  0
  3  4  1  0  0  0  0
  3 28  1  0  0  0  0
  4  5  1  0  0  0  0
  4 19  2  0  0  0  0
  5  6  2  0  0  0  0
  5 29  1  0  0  0  0
  6  7  1  0  0  0  0
  6 30  1  0  0  0  0
  7  8  1  0  0  0  0
  7 18  2  0  0  0  0
  8  9  1  0  0  0  0
  8 13  2  0  0  0  0
  9 10  2  0  0  0  0
  9 31  1  0  0  0  0
 10 11  1  0  0  0  0
 10 32  1  0  0  0  0
 11 12  2  0  0  0  0
 11 33  1  0  0  0  0
 12 13  1  0  0  0  0
 12 16  1  0  0  0  0
 13 14  1  0  0  0  0
 14 15  1  0  0  0  0
 14 34  1  0  0  0  0
 14 35  1  0  0  0  0
 15 16  1  0  0  0  0
 15 36  1  0  0  0  0
 16 17  2  0  0  0  0
 18 19  1  0  0  0  0
 18 37  1  0  0  0  0
 19 38  1  0  0  0  0
 20 21  1  0  0  0  0
 20 39  1  0  0  0  0
 21 22  1  0  0  0  0
 21 27  2  0  0  0  0
 22 23  2  0  0  0  0
 22 40  1  0  0  0  0
 23 24  1  0  0  0  0
 23 41  1  0  0  0  0
 24 25  2  0  0  0  0
 24 42  1  0  0  0  0
 25 26  1  0  0  0  0
 25 27  1  0  0  0  0
 27 43  1  0  0  0  0
M  END
$$$$
