CHEMBL472503
 OpenBabel04072215383D

 48 51  0  0  0  0  0  0  0  0999 V2000
    2.3554   -0.4118    1.4757 C   0  0  0  0  0  0  0  0  0  0  0  0
    0.8582   -0.2988    1.4471 C   0  0  0  0  0  0  0  0  0  0  0  0
    0.2518    0.8920    1.8585 C   0  0  0  0  0  0  0  0  0  0  0  0
   -1.1307    1.0110    1.8406 C   0  0  0  0  0  0  0  0  0  0  0  0
   -1.9188   -0.0566    1.4123 C   0  0  0  0  0  0  0  0  0  0  0  0
   -1.3478   -1.2589    0.9818 C   0  0  0  0  0  0  0  0  0  0  0  0
   -2.1234   -2.3662    0.5373 N   0  0  0  0  0  0  0  0  0  0  0  0
   -3.5000   -2.3722    0.3658 C   0  0  0  0  0  0  0  0  0  0  0  0
   -4.2333   -1.3954    0.5077 O   0  0  0  0  0  0  0  0  0  0  0  0
   -3.9993   -3.6370    0.0633 N   0  0  0  0  0  0  0  0  0  0  0  0
   -5.4019   -3.8036   -0.1007 C   0  0  0  0  0  0  0  0  0  0  0  0
   -6.1428   -2.9398   -0.9160 C   0  0  0  0  0  0  0  0  0  0  0  0
   -7.5394   -3.0157   -0.9548 C   0  0  0  0  0  0  0  0  0  0  0  0
   -8.2147   -3.9520   -0.1666 C   0  0  0  0  0  0  0  0  0  0  0  0
   -9.6844   -3.9640   -0.1281 C   0  0  0  0  0  0  0  0  0  0  0  0
  -10.4201   -3.1336    0.8844 C   0  0  0  0  0  0  0  0  0  0  0  0
  -11.7118   -3.0430    1.0397 N   0  0  0  0  0  0  0  0  0  0  0  0
  -12.4542   -3.7952    0.1729 C   0  0  0  0  0  0  0  0  0  0  0  0
  -13.8234   -3.9526    0.0462 C   0  0  0  0  0  0  0  0  0  0  0  0
  -14.8610   -3.3212    0.8317 C   0  0  0  0  0  0  0  0  0  0  0  0
  -16.0526   -3.5314    0.6535 O   0  0  0  0  0  0  0  0  0  0  0  0
  -14.4177   -2.4699    1.7945 O   0  0  0  0  0  0  0  0  0  0  0  0
  -13.9805   -4.8655   -1.0091 C   0  0  0  0  0  0  0  0  0  0  0  0
  -12.8202   -5.2716   -1.5266 N   0  0  0  0  0  0  0  0  0  0  0  0
  -11.8721   -4.5941   -0.8152 N   0  0  0  0  0  0  0  0  0  0  0  0
  -10.4624   -4.6688   -0.9802 C   0  0  0  0  0  0  0  0  0  0  0  0
   -9.9919   -5.4812   -2.0115 N   0  0  0  0  0  0  0  0  0  0  0  0
   -7.4685   -4.8549    0.6044 C   0  0  0  0  0  0  0  0  0  0  0  0
   -6.0654   -4.7980    0.6189 C   0  0  0  0  0  0  0  0  0  0  0  0
    0.0527   -1.3715    1.0083 C   0  0  0  0  0  0  0  0  0  0  0  0
    2.8156    0.5076    1.8578 H   0  0  0  0  0  0  0  0  0  0  0  0
    2.7445   -0.5805    0.4674 H   0  0  0  0  0  0  0  0  0  0  0  0
    2.6642   -1.2306    2.1322 H   0  0  0  0  0  0  0  0  0  0  0  0
    0.8489    1.7357    2.1970 H   0  0  0  0  0  0  0  0  0  0  0  0
   -1.6067    1.9340    2.1591 H   0  0  0  0  0  0  0  0  0  0  0  0
   -2.9916    0.1002    1.4311 H   0  0  0  0  0  0  0  0  0  0  0  0
   -1.6180   -3.1724    0.2009 H   0  0  0  0  0  0  0  0  0  0  0  0
   -3.5112   -4.3906    0.5259 H   0  0  0  0  0  0  0  0  0  0  0  0
   -5.6412   -2.1762   -1.5072 H   0  0  0  0  0  0  0  0  0  0  0  0
   -8.0882   -2.3160   -1.5824 H   0  0  0  0  0  0  0  0  0  0  0  0
   -9.7759   -2.5423    1.5586 H   0  0  0  0  0  0  0  0  0  0  0  0
  -13.4339   -2.4205    1.7968 H   0  0  0  0  0  0  0  0  0  0  0  0
  -14.9066   -5.2529   -1.4155 H   0  0  0  0  0  0  0  0  0  0  0  0
  -10.6983   -6.1591   -2.3142 H   0  0  0  0  0  0  0  0  0  0  0  0
   -9.0711   -5.8790   -1.8541 H   0  0  0  0  0  0  0  0  0  0  0  0
   -7.9717   -5.5891    1.2306 H   0  0  0  0  0  0  0  0  0  0  0  0
   -5.5172   -5.4788    1.2633 H   0  0  0  0  0  0  0  0  0  0  0  0
    0.5375   -2.2915    0.6899 H   0  0  0  0  0  0  0  0  0  0  0  0
  1  2  1  0  0  0  0
  1 31  1  0  0  0  0
  1 32  1  0  0  0  0
  1 33  1  0  0  0  0
  2  3  1  0  0  0  0
  2 30  2  0  0  0  0
  3  4  2  0  0  0  0
  3 34  1  0  0  0  0
  4  5  1  0  0  0  0
  4 35  1  0  0  0  0
  5  6  2  0  0  0  0
  5 36  1  0  0  0  0
  6  7  1  0  0  0  0
  6 30  1  0  0  0  0
  7  8  1  0  0  0  0
  7 37  1  0  0  0  0
  8  9  2  0  0  0  0
  8 10  1  0  0  0  0
 10 11  1  0  0  0  0
 10 38  1  0  0  0  0
 11 12  1  0  0  0  0
 11 29  2  0  0  0  0
 12 13  2  0  0  0  0
 12 39  1  0  0  0  0
 13 14  1  0  0  0  0
 13 40  1  0  0  0  0
 14 15  1  0  0  0  0
 14 28  2  0  0  0  0
 15 16  1  0  0  0  0
 15 26  2  0  0  0  0
 16 17  2  0  0  0  0
 16 41  1  0  0  0  0
 17 18  1  0  0  0  0
 18 19  2  0  0  0  0
 18 25  1  0  0  0  0
 19 20  1  0  0  0  0
 19 23  1  0  0  0  0
 20 21  2  0  0  0  0
 20 22  1  0  0  0  0
 22 42  1  0  0  0  0
 23 24  2  0  0  0  0
 23 43  1  0  0  0  0
 24 25  1  0  0  0  0
 25 26  1  0  0  0  0
 26 27  1  0  0  0  0
 27 44  1  0  0  0  0
 27 45  1  0  0  0  0
 28 29  1  0  0  0  0
 28 46  1  0  0  0  0
 29 47  1  0  0  0  0
 30 48  1  0  0  0  0
M  END
$$$$
