CHEMBL1762522
 OpenBabel04072215363D

 66 70  0  0  0  0  0  0  0  0999 V2000
    1.7894   -6.3397   -0.1815 C   0  0  0  0  0  0  0  0  0  0  0  0
    0.5631   -5.7095   -0.7871 C   0  0  0  0  0  0  0  0  0  0  0  0
   -0.2560   -6.5622   -1.5658 C   0  0  0  0  0  0  0  0  0  0  0  0
   -1.4436   -6.1150   -2.1321 C   0  0  0  0  0  0  0  0  0  0  0  0
   -1.8192   -4.7974   -1.9507 C   0  0  0  0  0  0  0  0  0  0  0  0
   -1.0018   -3.9324   -1.2108 C   0  0  0  0  0  0  0  0  0  0  0  0
    0.2023   -4.3498   -0.5963 C   0  0  0  0  0  0  0  0  0  0  0  0
    0.9531   -3.4676    0.2267 N   0  0  0  0  0  0  0  0  0  0  0  0
    0.2620   -2.3157    0.8308 C   0  0  0  0  0  0  0  0  0  0  0  0
    2.3738   -3.2789    0.2336 C   0  0  0  0  0  0  0  0  0  0  0  0
    2.9803   -2.7953    1.3865 C   0  0  0  0  0  0  0  0  0  0  0  0
    4.3215   -2.5427    1.3445 C   0  0  0  0  0  0  0  0  0  0  0  0
    5.0602   -2.7926    0.2679 N   0  0  0  0  0  0  0  0  0  0  0  0
    4.4382   -3.2987   -0.8097 C   0  0  0  0  0  0  0  0  0  0  0  0
    5.2025   -3.5570   -1.9451 N   0  0  0  0  0  0  0  0  0  0  0  0
    6.5739   -3.8660   -2.0104 C   0  0  0  0  0  0  0  0  0  0  0  0
    7.2495   -4.4843   -0.9461 C   0  0  0  0  0  0  0  0  0  0  0  0
    8.6210   -4.7281   -0.9618 C   0  0  0  0  0  0  0  0  0  0  0  0
    9.2524   -5.3419    0.1010 N   0  0  0  0  0  0  0  0  0  0  0  0
    8.6153   -6.3979    0.8977 C   0  0  0  0  0  0  0  0  0  0  0  0
    8.6884   -6.0376    2.3878 C   0  0  0  0  0  0  0  0  0  0  0  0
   10.0433   -5.7837    2.8019 O   0  0  0  0  0  0  0  0  0  0  0  0
   10.5957   -4.6929    2.0446 C   0  0  0  0  0  0  0  0  0  0  0  0
   10.6092   -4.9873    0.5324 C   0  0  0  0  0  0  0  0  0  0  0  0
    9.3208   -4.3039   -2.0982 C   0  0  0  0  0  0  0  0  0  0  0  0
    8.7051   -3.6931   -3.2068 C   0  0  0  0  0  0  0  0  0  0  0  0
    9.4548   -3.3084   -4.3016 N   0  0  0  0  0  0  0  0  0  0  0  0
    9.0815   -2.1984   -5.1866 C   0  0  0  0  0  0  0  0  0  0  0  0
    8.8346   -2.7172   -6.6086 C   0  0  0  0  0  0  0  0  0  0  0  0
    9.9721   -3.4430   -7.1068 O   0  0  0  0  0  0  0  0  0  0  0  0
   10.2443   -4.5754   -6.2639 C   0  0  0  0  0  0  0  0  0  0  0  0
   10.5439   -4.1564   -4.8137 C   0  0  0  0  0  0  0  0  0  0  0  0
    7.3198   -3.4853   -3.1319 C   0  0  0  0  0  0  0  0  0  0  0  0
    3.1135   -3.5287   -0.8686 N   0  0  0  0  0  0  0  0  0  0  0  0
    1.7031   -7.4329   -0.1698 H   0  0  0  0  0  0  0  0  0  0  0  0
    1.9210   -6.0340    0.8602 H   0  0  0  0  0  0  0  0  0  0  0  0
    2.6787   -6.0954   -0.7686 H   0  0  0  0  0  0  0  0  0  0  0  0
    0.0306   -7.6018   -1.7157 H   0  0  0  0  0  0  0  0  0  0  0  0
   -2.0669   -6.7935   -2.7067 H   0  0  0  0  0  0  0  0  0  0  0  0
   -2.7478   -4.4316   -2.3813 H   0  0  0  0  0  0  0  0  0  0  0  0
   -1.3392   -2.9028   -1.1441 H   0  0  0  0  0  0  0  0  0  0  0  0
   -0.8256   -2.3240    0.7273 H   0  0  0  0  0  0  0  0  0  0  0  0
    0.6297   -1.3696    0.4109 H   0  0  0  0  0  0  0  0  0  0  0  0
    0.4153   -2.3010    1.9158 H   0  0  0  0  0  0  0  0  0  0  0  0
    2.4410   -2.6131    2.3062 H   0  0  0  0  0  0  0  0  0  0  0  0
    4.8505   -2.1183    2.1910 H   0  0  0  0  0  0  0  0  0  0  0  0
    4.6326   -3.8192   -2.7344 H   0  0  0  0  0  0  0  0  0  0  0  0
    6.6718   -4.7568   -0.0676 H   0  0  0  0  0  0  0  0  0  0  0  0
    9.1705   -7.3279    0.7249 H   0  0  0  0  0  0  0  0  0  0  0  0
    7.5775   -6.5972    0.6112 H   0  0  0  0  0  0  0  0  0  0  0  0
    8.3089   -6.8677    2.9907 H   0  0  0  0  0  0  0  0  0  0  0  0
    8.0751   -5.1548    2.6115 H   0  0  0  0  0  0  0  0  0  0  0  0
   11.6176   -4.5269    2.4002 H   0  0  0  0  0  0  0  0  0  0  0  0
   10.0169   -3.7865    2.2593 H   0  0  0  0  0  0  0  0  0  0  0  0
   11.2745   -5.8348    0.3273 H   0  0  0  0  0  0  0  0  0  0  0  0
   11.0048   -4.1068    0.0160 H   0  0  0  0  0  0  0  0  0  0  0  0
   10.3993   -4.4463   -2.1220 H   0  0  0  0  0  0  0  0  0  0  0  0
    9.9235   -1.4955   -5.2039 H   0  0  0  0  0  0  0  0  0  0  0  0
    8.2148   -1.6324   -4.8310 H   0  0  0  0  0  0  0  0  0  0  0  0
    8.6601   -1.8745   -7.2845 H   0  0  0  0  0  0  0  0  0  0  0  0
    7.9523   -3.3671   -6.6461 H   0  0  0  0  0  0  0  0  0  0  0  0
   11.1098   -5.0991   -6.6821 H   0  0  0  0  0  0  0  0  0  0  0  0
    9.3889   -5.2603   -6.3051 H   0  0  0  0  0  0  0  0  0  0  0  0
   11.4721   -3.5750   -4.7830 H   0  0  0  0  0  0  0  0  0  0  0  0
   10.6987   -5.0655   -4.2221 H   0  0  0  0  0  0  0  0  0  0  0  0
    6.7945   -3.0038   -3.9501 H   0  0  0  0  0  0  0  0  0  0  0  0
  1  2  1  0  0  0  0
  1 35  1  0  0  0  0
  1 36  1  0  0  0  0
  1 37  1  0  0  0  0
  2  3  1  0  0  0  0
  2  7  2  0  0  0  0
  3  4  2  0  0  0  0
  3 38  1  0  0  0  0
  4  5  1  0  0  0  0
  4 39  1  0  0  0  0
  5  6  2  0  0  0  0
  5 40  1  0  0  0  0
  6  7  1  0  0  0  0
  6 41  1  0  0  0  0
  7  8  1  0  0  0  0
  8  9  1  0  0  0  0
  8 10  1  0  0  0  0
  9 42  1  0  0  0  0
  9 43  1  0  0  0  0
  9 44  1  0  0  0  0
 10 11  1  0  0  0  0
 10 34  2  0  0  0  0
 11 12  2  0  0  0  0
 11 45  1  0  0  0  0
 12 13  1  0  0  0  0
 12 46  1  0  0  0  0
 13 14  2  0  0  0  0
 14 15  1  0  0  0  0
 14 34  1  0  0  0  0
 15 16  1  0  0  0  0
 15 47  1  0  0  0  0
 16 17  1  0  0  0  0
 16 33  2  0  0  0  0
 17 18  2  0  0  0  0
 17 48  1  0  0  0  0
 18 19  1  0  0  0  0
 18 25  1  0  0  0  0
 19 20  1  0  0  0  0
 19 24  1  0  0  0  0
 20 21  1  0  0  0  0
 20 49  1  0  0  0  0
 20 50  1  0  0  0  0
 21 22  1  0  0  0  0
 21 51  1  0  0  0  0
 21 52  1  0  0  0  0
 22 23  1  0  0  0  0
 23 24  1  0  0  0  0
 23 53  1  0  0  0  0
 23 54  1  0  0  0  0
 24 55  1  0  0  0  0
 24 56  1  0  0  0  0
 25 26  2  0  0  0  0
 25 57  1  0  0  0  0
 26 27  1  0  0  0  0
 26 33  1  0  0  0  0
 27 28  1  0  0  0  0
 27 32  1  0  0  0  0
 28 29  1  0  0  0  0
 28 58  1  0  0  0  0
 28 59  1  0  0  0  0
 29 30  1  0  0  0  0
 29 60  1  0  0  0  0
 29 61  1  0  0  0  0
 30 31  1  0  0  0  0
 31 32  1  0  0  0  0
 31 62  1  0  0  0  0
 31 63  1  0  0  0  0
 32 64  1  0  0  0  0
 32 65  1  0  0  0  0
 33 66  1  0  0  0  0
M  END
$$$$
