CHEMBL3908707
 OpenBabel04072215373D

 66 69  0  0  0  0  0  0  0  0999 V2000
    1.1466   -0.1485   -0.1245 C   0  0  0  0  0  0  0  0  0  0  0  0
    2.2919    0.3173    0.5913 O   0  0  0  0  0  0  0  0  0  0  0  0
    3.0872   -0.6385    1.1746 C   0  0  0  0  0  0  0  0  0  0  0  0
    2.7313   -1.9617    1.3698 C   0  0  0  0  0  0  0  0  0  0  0  0
    3.6276   -2.8323    1.9893 C   0  0  0  0  0  0  0  0  0  0  0  0
    3.3980   -4.1555    2.2486 O   0  0  0  0  0  0  0  0  0  0  0  0
    2.2178   -4.7066    1.6838 C   0  0  0  0  0  0  0  0  0  0  0  0
    4.8930   -2.3868    2.4013 C   0  0  0  0  0  0  0  0  0  0  0  0
    5.3231   -1.0866    2.1675 C   0  0  0  0  0  0  0  0  0  0  0  0
    6.6441   -0.6971    2.5150 N   0  0  0  0  0  0  0  0  0  0  0  0
    7.1327    0.6210    1.9234 C   0  0  0  0  0  0  0  0  0  0  0  0
    8.0249    0.3121    0.7117 C   0  0  0  0  0  0  0  0  0  0  0  0
    8.6136    1.4274   -0.0759 N   0  0  0  0  0  0  0  0  0  0  0  0
    9.4435    2.2863    0.7838 C   0  0  0  0  0  0  0  0  0  0  0  0
    9.4236    0.8463   -1.1916 C   0  0  0  0  0  0  0  0  0  0  0  0
    8.5930   -0.0759   -2.1070 C   0  0  0  0  0  0  0  0  0  0  0  0
   10.0686    1.9097   -2.0916 C   0  0  0  0  0  0  0  0  0  0  0  0
    7.6799   -1.3339    3.3085 C   0  0  0  0  0  0  0  0  0  0  0  0
    8.2023   -0.4803    4.2646 C   0  0  0  0  0  0  0  0  0  0  0  0
    9.5591   -0.5859    4.5450 C   0  0  0  0  0  0  0  0  0  0  0  0
   10.2949   -1.6328    4.1371 C   0  0  0  0  0  0  0  0  0  0  0  0
   11.5801   -1.3432    4.1885 N   0  0  0  0  0  0  0  0  0  0  0  0
   12.4289   -2.3490    4.2506 C   0  0  0  0  0  0  0  0  0  0  0  0
   12.0388   -3.6534    4.4631 C   0  0  0  0  0  0  0  0  0  0  0  0
   13.0478   -4.3378    5.3699 C   0  0  0  0  0  0  0  0  0  0  0  0
   14.0187   -3.5822    6.1417 C   0  0  0  0  0  0  0  0  0  0  0  0
   14.8932   -4.3028    6.8213 N   0  0  0  0  0  0  0  0  0  0  0  0
   14.4883   -5.5550    6.6061 N   0  0  0  0  0  0  0  0  0  0  0  0
   15.1950   -6.5680    7.3649 C   0  0  0  0  0  0  0  0  0  0  0  0
   13.4164   -5.6376    5.7117 C   0  0  0  0  0  0  0  0  0  0  0  0
   10.7195   -3.9777    4.0976 N   0  0  0  0  0  0  0  0  0  0  0  0
    9.7576   -2.8668    3.7824 C   0  0  0  0  0  0  0  0  0  0  0  0
    8.3798   -2.5911    3.1705 C   0  0  0  0  0  0  0  0  0  0  0  0
    4.3545   -0.2091    1.6030 C   0  0  0  0  0  0  0  0  0  0  0  0
    0.7488    0.6808   -0.7198 H   0  0  0  0  0  0  0  0  0  0  0  0
    0.3595   -0.4685    0.5664 H   0  0  0  0  0  0  0  0  0  0  0  0
    1.4043   -0.9530   -0.8228 H   0  0  0  0  0  0  0  0  0  0  0  0
    1.7538   -2.3062    1.0633 H   0  0  0  0  0  0  0  0  0  0  0  0
    2.2327   -5.7824    1.8722 H   0  0  0  0  0  0  0  0  0  0  0  0
    2.1879   -4.5567    0.5988 H   0  0  0  0  0  0  0  0  0  0  0  0
    1.3285   -4.2882    2.1660 H   0  0  0  0  0  0  0  0  0  0  0  0
    5.5478   -3.0922    2.8985 H   0  0  0  0  0  0  0  0  0  0  0  0
    7.6641    1.2304    2.6593 H   0  0  0  0  0  0  0  0  0  0  0  0
    6.3367    1.2944    1.6030 H   0  0  0  0  0  0  0  0  0  0  0  0
    7.3648   -0.2571    0.0530 H   0  0  0  0  0  0  0  0  0  0  0  0
    8.8341   -0.3533    1.0321 H   0  0  0  0  0  0  0  0  0  0  0  0
    8.8583    2.7295    1.5958 H   0  0  0  0  0  0  0  0  0  0  0  0
    9.8397    3.1458    0.2328 H   0  0  0  0  0  0  0  0  0  0  0  0
   10.2858    1.7390    1.2224 H   0  0  0  0  0  0  0  0  0  0  0  0
   10.2340    0.2416   -0.7614 H   0  0  0  0  0  0  0  0  0  0  0  0
    7.7189    0.4480   -2.5093 H   0  0  0  0  0  0  0  0  0  0  0  0
    8.2495   -0.9786   -1.5923 H   0  0  0  0  0  0  0  0  0  0  0  0
    9.1954   -0.4312   -2.9493 H   0  0  0  0  0  0  0  0  0  0  0  0
    9.3160    2.5806   -2.5185 H   0  0  0  0  0  0  0  0  0  0  0  0
   10.6006    1.4302   -2.9217 H   0  0  0  0  0  0  0  0  0  0  0  0
   10.8117    2.5086   -1.5581 H   0  0  0  0  0  0  0  0  0  0  0  0
    7.6815    0.3982    4.5933 H   0  0  0  0  0  0  0  0  0  0  0  0
   10.0396    0.2313    5.0533 H   0  0  0  0  0  0  0  0  0  0  0  0
   13.4449   -2.0031    4.3421 H   0  0  0  0  0  0  0  0  0  0  0  0
   14.1454   -2.5100    6.2212 H   0  0  0  0  0  0  0  0  0  0  0  0
   15.9765   -6.0803    7.9716 H   0  0  0  0  0  0  0  0  0  0  0  0
   15.6809   -7.2717    6.6895 H   0  0  0  0  0  0  0  0  0  0  0  0
   14.4976   -7.0535    8.0483 H   0  0  0  0  0  0  0  0  0  0  0  0
   13.0531   -6.6124    5.4214 H   0  0  0  0  0  0  0  0  0  0  0  0
    7.9376   -3.3728    2.5400 H   0  0  0  0  0  0  0  0  0  0  0  0
    4.5266    0.8567    1.4862 H   0  0  0  0  0  0  0  0  0  0  0  0
  1  2  1  0  0  0  0
  1 35  1  0  0  0  0
  1 36  1  0  0  0  0
  1 37  1  0  0  0  0
  2  3  1  0  0  0  0
  3  4  1  0  0  0  0
  3 34  2  0  0  0  0
  4  5  2  0  0  0  0
  4 38  1  0  0  0  0
  5  6  1  0  0  0  0
  5  8  1  0  0  0  0
  6  7  1  0  0  0  0
  7 39  1  0  0  0  0
  7 40  1  0  0  0  0
  7 41  1  0  0  0  0
  8  9  2  0  0  0  0
  8 42  1  0  0  0  0
  9 10  1  0  0  0  0
  9 34  1  0  0  0  0
 10 11  1  0  0  0  0
 10 18  1  0  0  0  0
 11 12  1  0  0  0  0
 11 43  1  0  0  0  0
 11 44  1  0  0  0  0
 12 13  1  0  0  0  0
 12 45  1  0  0  0  0
 12 46  1  0  0  0  0
 13 14  1  0  0  0  0
 13 15  1  0  0  0  0
 14 47  1  0  0  0  0
 14 48  1  0  0  0  0
 14 49  1  0  0  0  0
 15 16  1  0  0  0  0
 15 17  1  0  0  0  0
 15 50  1  0  0  0  0
 16 51  1  0  0  0  0
 16 52  1  0  0  0  0
 16 53  1  0  0  0  0
 17 54  1  0  0  0  0
 17 55  1  0  0  0  0
 17 56  1  0  0  0  0
 18 19  1  0  0  0  0
 18 33  2  0  0  0  0
 19 20  2  0  0  0  0
 19 57  1  0  0  0  0
 20 21  1  0  0  0  0
 20 58  1  0  0  0  0
 21 22  1  0  0  0  0
 21 32  2  0  0  0  0
 22 23  2  0  0  0  0
 23 24  1  0  0  0  0
 23 59  1  0  0  0  0
 24 25  1  0  0  0  0
 24 31  2  0  0  0  0
 25 26  1  0  0  0  0
 25 30  2  0  0  0  0
 26 27  2  0  0  0  0
 26 60  1  0  0  0  0
 27 28  1  0  0  0  0
 28 29  1  0  0  0  0
 28 30  1  0  0  0  0
 29 61  1  0  0  0  0
 29 62  1  0  0  0  0
 29 63  1  0  0  0  0
 30 64  1  0  0  0  0
 31 32  1  0  0  0  0
 32 33  1  0  0  0  0
 33 65  1  0  0  0  0
 34 66  1  0  0  0  0
M  END
$$$$
