CHEMBL3941533
 OpenBabel04072215373D

 49 52  0  0  0  0  0  0  0  0999 V2000
    2.9250    1.2810   -2.9469 C   0  0  0  0  0  0  0  0  0  0  0  0
    1.5015    0.9465   -2.6055 C   0  0  0  0  0  0  0  0  0  0  0  0
    0.9802   -0.3041   -2.9592 C   0  0  0  0  0  0  0  0  0  0  0  0
   -0.3196   -0.6405   -2.6026 C   0  0  0  0  0  0  0  0  0  0  0  0
   -1.1123    0.2740   -1.9181 C   0  0  0  0  0  0  0  0  0  0  0  0
   -2.2896   -0.1805   -1.4740 F   0  0  0  0  0  0  0  0  0  0  0  0
   -0.6534    1.5684   -1.6250 C   0  0  0  0  0  0  0  0  0  0  0  0
   -1.4600    2.5802   -1.0359 N   0  0  0  0  0  0  0  0  0  0  0  0
   -2.8449    2.5927   -1.0992 C   0  0  0  0  0  0  0  0  0  0  0  0
   -3.5301    1.8125   -1.7457 O   0  0  0  0  0  0  0  0  0  0  0  0
   -3.4054    3.6536   -0.3965 N   0  0  0  0  0  0  0  0  0  0  0  0
   -4.8069    3.6558   -0.1838 C   0  0  0  0  0  0  0  0  0  0  0  0
   -5.4417    2.5473    0.3911 C   0  0  0  0  0  0  0  0  0  0  0  0
   -6.8050    2.5845    0.7181 C   0  0  0  0  0  0  0  0  0  0  0  0
   -7.5578    3.7348    0.4705 C   0  0  0  0  0  0  0  0  0  0  0  0
   -8.8315    3.9937    1.2547 C   0  0  0  0  0  0  0  0  0  0  0  0
   -9.1227    5.3579    1.4780 N   0  0  0  0  0  0  0  0  0  0  0  0
   -8.3807    5.6847    2.6067 C   0  0  0  0  0  0  0  0  0  0  0  0
   -7.6956    6.8413    2.9741 C   0  0  0  0  0  0  0  0  0  0  0  0
   -6.9854    6.7812    4.1771 C   0  0  0  0  0  0  0  0  0  0  0  0
   -7.0408    5.6537    5.0011 C   0  0  0  0  0  0  0  0  0  0  0  0
   -7.7889    4.5301    4.6349 C   0  0  0  0  0  0  0  0  0  0  0  0
   -8.4060    4.5238    3.3738 C   0  0  0  0  0  0  0  0  0  0  0  0
   -9.0942    3.5478    2.5786 C   0  0  0  0  0  0  0  0  0  0  0  0
   -9.6710    2.3129    3.0864 C   0  0  0  0  0  0  0  0  0  0  0  0
  -10.2186    1.4572    2.1779 N   0  0  0  0  0  0  0  0  0  0  0  0
   -9.7549    2.0541    4.2849 O   0  0  0  0  0  0  0  0  0  0  0  0
   -6.9362    4.7840   -0.2475 C   0  0  0  0  0  0  0  0  0  0  0  0
   -5.5617    4.7709   -0.5212 C   0  0  0  0  0  0  0  0  0  0  0  0
    0.6807    1.8779   -1.9363 C   0  0  0  0  0  0  0  0  0  0  0  0
    3.4154    0.4498   -3.4695 H   0  0  0  0  0  0  0  0  0  0  0  0
    3.4947    1.4787   -2.0355 H   0  0  0  0  0  0  0  0  0  0  0  0
    2.9647    2.1539   -3.6044 H   0  0  0  0  0  0  0  0  0  0  0  0
    1.5850   -1.0307   -3.4942 H   0  0  0  0  0  0  0  0  0  0  0  0
   -0.7282   -1.6181   -2.8398 H   0  0  0  0  0  0  0  0  0  0  0  0
   -0.9999    3.4193   -0.7132 H   0  0  0  0  0  0  0  0  0  0  0  0
   -2.9716    4.5501   -0.5621 H   0  0  0  0  0  0  0  0  0  0  0  0
   -4.8615    1.6677    0.6609 H   0  0  0  0  0  0  0  0  0  0  0  0
   -7.2336    1.7406    1.2512 H   0  0  0  0  0  0  0  0  0  0  0  0
   -9.2444    6.0140    0.7231 H   0  0  0  0  0  0  0  0  0  0  0  0
   -7.6550    7.7138    2.3334 H   0  0  0  0  0  0  0  0  0  0  0  0
   -6.3735    7.6283    4.4765 H   0  0  0  0  0  0  0  0  0  0  0  0
   -6.4768    5.6326    5.9299 H   0  0  0  0  0  0  0  0  0  0  0  0
   -7.8012    3.6414    5.2597 H   0  0  0  0  0  0  0  0  0  0  0  0
  -10.2783    1.6609    1.1977 H   0  0  0  0  0  0  0  0  0  0  0  0
  -10.7661    0.6971    2.5718 H   0  0  0  0  0  0  0  0  0  0  0  0
   -7.4832    5.6831   -0.5160 H   0  0  0  0  0  0  0  0  0  0  0  0
   -5.1070    5.6321   -1.0010 H   0  0  0  0  0  0  0  0  0  0  0  0
    1.0923    2.8516   -1.6882 H   0  0  0  0  0  0  0  0  0  0  0  0
  1  2  1  0  0  0  0
  1 31  1  0  0  0  0
  1 32  1  0  0  0  0
  1 33  1  0  0  0  0
  2  3  1  0  0  0  0
  2 30  2  0  0  0  0
  3  4  2  0  0  0  0
  3 34  1  0  0  0  0
  4  5  1  0  0  0  0
  4 35  1  0  0  0  0
  5  6  1  0  0  0  0
  5  7  2  0  0  0  0
  7  8  1  0  0  0  0
  7 30  1  0  0  0  0
  8  9  1  0  0  0  0
  8 36  1  0  0  0  0
  9 10  2  0  0  0  0
  9 11  1  0  0  0  0
 11 12  1  0  0  0  0
 11 37  1  0  0  0  0
 12 13  1  0  0  0  0
 12 29  2  0  0  0  0
 13 14  2  0  0  0  0
 13 38  1  0  0  0  0
 14 15  1  0  0  0  0
 14 39  1  0  0  0  0
 15 16  1  0  0  0  0
 15 28  2  0  0  0  0
 16 17  1  0  0  0  0
 16 24  2  0  0  0  0
 17 18  1  0  0  0  0
 17 40  1  0  0  0  0
 18 19  1  0  0  0  0
 18 23  2  0  0  0  0
 19 20  2  0  0  0  0
 19 41  1  0  0  0  0
 20 21  1  0  0  0  0
 20 42  1  0  0  0  0
 21 22  2  0  0  0  0
 21 43  1  0  0  0  0
 22 23  1  0  0  0  0
 22 44  1  0  0  0  0
 23 24  1  0  0  0  0
 24 25  1  0  0  0  0
 25 26  1  0  0  0  0
 25 27  2  0  0  0  0
 26 45  1  0  0  0  0
 26 46  1  0  0  0  0
 28 29  1  0  0  0  0
 28 47  1  0  0  0  0
 29 48  1  0  0  0  0
 30 49  1  0  0  0  0
M  END
$$$$
