CHEMBL494469
 OpenBabel04072215383D

 56 60  0  0  1  0  0  0  0  0999 V2000
   -1.8609   -2.1264   -1.2335 C   0  0  0  0  0  0  0  0  0  0  0  0
   -1.0294   -0.9967   -0.6763 C   0  0  0  0  0  0  0  0  0  0  0  0
   -1.6149    0.2877   -0.7023 C   0  0  0  0  0  0  0  0  0  0  0  0
   -0.9727    1.3962   -0.1520 C   0  0  0  0  0  0  0  0  0  0  0  0
    0.2790    1.2505    0.4247 C   0  0  0  0  0  0  0  0  0  0  0  0
    1.0035    2.3735    1.0793 C   0  0  0  0  0  0  0  0  0  0  0  0
    1.7767    2.1475    2.0066 O   0  0  0  0  0  0  0  0  0  0  0  0
    0.7764    3.6311    0.5572 N   0  0  0  0  0  0  0  0  0  0  0  0
    1.4520    4.7861    1.0578 C   0  0  0  0  0  0  0  0  0  0  0  0
    0.8377    5.6162    2.1502 C   0  0  0  0  0  0  0  0  0  0  0  0
    0.9369    6.1672    0.7586 C   0  0  0  0  0  0  0  0  0  0  0  0
    0.8854   -0.0129    0.4292 C   0  0  0  0  0  0  0  0  0  0  0  0
    0.2687   -1.1611   -0.1278 C   0  0  0  0  0  0  0  0  0  0  0  0
    1.0156   -2.4470   -0.0865 C   0  0  0  0  0  0  0  0  0  0  0  0
    1.9193   -2.7173    0.9464 C   0  0  0  0  0  0  0  0  0  0  0  0
    2.6782   -3.8857    0.9602 C   0  0  0  0  0  0  0  0  0  0  0  0
    2.4335   -4.9502    0.0651 C   0  0  0  0  0  0  0  0  0  0  0  0
    3.0008   -6.2484    0.1525 C   0  0  0  0  0  0  0  0  0  0  0  0
    3.8702   -6.5975    1.1947 N   0  0  0  0  0  0  0  0  0  0  0  0
    3.3662   -6.3861    2.5761 C   0  0  0  0  0  0  0  0  0  0  0  0
    4.5999   -6.1366    3.4545 C   0  0  0  0  0  0  0  0  0  0  0  0
    5.4106   -7.3177    3.4829 O   0  0  0  0  0  0  0  0  0  0  0  0
    5.8519   -7.6570    2.1545 C   0  0  0  0  0  0  0  0  0  0  0  0
    4.6830   -7.8416    1.1381 C   0  0  2  0  0  0  0  0  0  0  0  0
    5.3112   -8.1662   -0.2173 C   0  0  0  0  0  0  0  0  0  0  0  0
    2.7181   -7.1545   -0.8111 N   0  0  0  0  0  0  0  0  0  0  0  0
    1.9269   -6.8562   -1.8900 N   0  0  0  0  0  0  0  0  0  0  0  0
    1.3630   -5.6452   -1.9629 C   0  0  0  0  0  0  0  0  0  0  0  0
    1.5674   -4.6752   -1.0082 C   0  0  0  0  0  0  0  0  0  0  0  0
    0.9248   -3.4197   -1.0908 C   0  0  0  0  0  0  0  0  0  0  0  0
   -2.8977   -1.8184   -1.4073 H   0  0  0  0  0  0  0  0  0  0  0  0
   -1.8950   -2.9678   -0.5342 H   0  0  0  0  0  0  0  0  0  0  0  0
   -1.4830   -2.4494   -2.2066 H   0  0  0  0  0  0  0  0  0  0  0  0
   -2.6047    0.4218   -1.1360 H   0  0  0  0  0  0  0  0  0  0  0  0
   -1.4869    2.3529   -0.1530 H   0  0  0  0  0  0  0  0  0  0  0  0
    0.2634    3.7196   -0.3103 H   0  0  0  0  0  0  0  0  0  0  0  0
    2.5330    4.6630    1.0908 H   0  0  0  0  0  0  0  0  0  0  0  0
    1.5010    6.0153    2.9089 H   0  0  0  0  0  0  0  0  0  0  0  0
   -0.1377    5.3290    2.5234 H   0  0  0  0  0  0  0  0  0  0  0  0
    1.6641    6.9507    0.5778 H   0  0  0  0  0  0  0  0  0  0  0  0
    0.0190    6.2734    0.1935 H   0  0  0  0  0  0  0  0  0  0  0  0
    1.8786   -0.0826    0.8733 H   0  0  0  0  0  0  0  0  0  0  0  0
    2.0712   -2.0183    1.7684 H   0  0  0  0  0  0  0  0  0  0  0  0
    3.4531   -3.9591    1.7180 H   0  0  0  0  0  0  0  0  0  0  0  0
    2.8327   -7.2822    2.9157 H   0  0  0  0  0  0  0  0  0  0  0  0
    2.6620   -5.5629    2.7019 H   0  0  0  0  0  0  0  0  0  0  0  0
    4.3026   -5.8930    4.4774 H   0  0  0  0  0  0  0  0  0  0  0  0
    5.1962   -5.2957    3.0693 H   0  0  0  0  0  0  0  0  0  0  0  0
    6.4288   -8.5835    2.2372 H   0  0  0  0  0  0  0  0  0  0  0  0
    6.5344   -6.8691    1.8102 H   0  0  0  0  0  0  0  0  0  0  0  0
    4.0592   -8.6863    1.4625 H   0  0  0  0  0  0  0  0  0  0  0  0
    5.7927   -7.2880   -0.6576 H   0  0  0  0  0  0  0  0  0  0  0  0
    4.5819   -8.5557   -0.9326 H   0  0  0  0  0  0  0  0  0  0  0  0
    6.0636   -8.9552   -0.1116 H   0  0  0  0  0  0  0  0  0  0  0  0
    0.7228   -5.4890   -2.8243 H   0  0  0  0  0  0  0  0  0  0  0  0
    0.3443   -3.2236   -1.9835 H   0  0  0  0  0  0  0  0  0  0  0  0
  1  2  1  0  0  0  0
  1 31  1  0  0  0  0
  1 32  1  0  0  0  0
  1 33  1  0  0  0  0
  2  3  1  0  0  0  0
  2 13  2  0  0  0  0
  3  4  2  0  0  0  0
  3 34  1  0  0  0  0
  4  5  1  0  0  0  0
  4 35  1  0  0  0  0
  5  6  1  0  0  0  0
  5 12  2  0  0  0  0
  6  7  2  0  0  0  0
  6  8  1  0  0  0  0
  8  9  1  0  0  0  0
  8 36  1  0  0  0  0
  9 10  1  0  0  0  0
  9 11  1  0  0  0  0
  9 37  1  0  0  0  0
 10 11  1  0  0  0  0
 10 38  1  0  0  0  0
 10 39  1  0  0  0  0
 11 40  1  0  0  0  0
 11 41  1  0  0  0  0
 12 13  1  0  0  0  0
 12 42  1  0  0  0  0
 13 14  1  0  0  0  0
 14 15  1  0  0  0  0
 14 30  2  0  0  0  0
 15 16  2  0  0  0  0
 15 43  1  0  0  0  0
 16 17  1  0  0  0  0
 16 44  1  0  0  0  0
 17 18  1  0  0  0  0
 17 29  2  0  0  0  0
 18 19  1  0  0  0  0
 18 26  2  0  0  0  0
 19 20  1  0  0  0  0
 19 24  1  0  0  0  0
 20 21  1  0  0  0  0
 20 45  1  0  0  0  0
 20 46  1  0  0  0  0
 21 22  1  0  0  0  0
 21 47  1  0  0  0  0
 21 48  1  0  0  0  0
 22 23  1  0  0  0  0
 23 24  1  0  0  0  0
 23 49  1  0  0  0  0
 23 50  1  0  0  0  0
 24 25  1  0  0  0  0
 24 51  1  1  0  0  0
 25 52  1  0  0  0  0
 25 53  1  0  0  0  0
 25 54  1  0  0  0  0
 26 27  1  0  0  0  0
 27 28  2  0  0  0  0
 28 29  1  0  0  0  0
 28 55  1  0  0  0  0
 29 30  1  0  0  0  0
 30 56  1  0  0  0  0
M  END
$$$$
