CHEMBL3694653
 OpenBabel04072215373D

 59 63  0  0  0  0  0  0  0  0999 V2000
   -1.6372    1.7220   -1.8811 N   0  0  0  0  0  0  0  0  0  0  0  0
   -1.0599    0.8885   -0.9272 C   0  0  0  0  0  0  0  0  0  0  0  0
   -1.6583   -0.3040   -0.8162 N   0  0  0  0  0  0  0  0  0  0  0  0
   -1.2262   -1.1301    0.1543 C   0  0  0  0  0  0  0  0  0  0  0  0
   -1.8754   -2.4664    0.2178 C   0  0  0  0  0  0  0  0  0  0  0  0
   -2.7377   -2.9513   -0.8726 C   0  0  0  0  0  0  0  0  0  0  0  0
   -3.3087   -4.1633   -0.8034 C   0  0  0  0  0  0  0  0  0  0  0  0
   -3.1157   -4.9559    0.3270 N   0  0  0  0  0  0  0  0  0  0  0  0
   -3.6200   -6.2059    0.6658 C   0  0  0  0  0  0  0  0  0  0  0  0
   -4.5188   -7.0577   -0.1248 C   0  0  0  0  0  0  0  0  0  0  0  0
   -4.3296   -8.4476   -0.0802 C   0  0  0  0  0  0  0  0  0  0  0  0
   -5.1451   -9.3060   -0.8101 C   0  0  0  0  0  0  0  0  0  0  0  0
   -6.1586   -8.7860   -1.6057 C   0  0  0  0  0  0  0  0  0  0  0  0
   -6.3971   -7.4134   -1.6624 C   0  0  0  0  0  0  0  0  0  0  0  0
   -7.4245   -6.8398   -2.4548 N   0  0  0  0  0  0  0  0  0  0  0  0
   -8.3640   -7.5282   -3.1927 C   0  0  0  0  0  0  0  0  0  0  0  0
   -8.5042   -8.7414   -3.2641 O   0  0  0  0  0  0  0  0  0  0  0  0
   -9.1716   -6.6915   -3.9337 N   0  0  0  0  0  0  0  0  0  0  0  0
  -10.2434   -7.3101   -4.7283 C   0  0  0  0  0  0  0  0  0  0  0  0
  -11.4854   -7.7585   -3.9421 C   0  0  0  0  0  0  0  0  0  0  0  0
  -11.4671   -7.3062   -2.6666 F   0  0  0  0  0  0  0  0  0  0  0  0
  -12.6026   -7.2480   -4.5197 F   0  0  0  0  0  0  0  0  0  0  0  0
  -11.6262   -9.0991   -3.9142 F   0  0  0  0  0  0  0  0  0  0  0  0
   -5.5757   -6.5561   -0.9083 C   0  0  0  0  0  0  0  0  0  0  0  0
   -3.0172   -6.4809    1.8864 C   0  0  0  0  0  0  0  0  0  0  0  0
   -2.2141   -5.4630    2.3177 N   0  0  0  0  0  0  0  0  0  0  0  0
   -2.2902   -4.5496    1.3779 C   0  0  0  0  0  0  0  0  0  0  0  0
   -1.6657   -3.2707    1.2871 C   0  0  0  0  0  0  0  0  0  0  0  0
   -0.2555   -0.8295    1.0295 N   0  0  0  0  0  0  0  0  0  0  0  0
    0.3299    0.3731    0.8670 C   0  0  0  0  0  0  0  0  0  0  0  0
   -0.0174    1.2859   -0.1132 C   0  0  0  0  0  0  0  0  0  0  0  0
    0.6852    2.6095   -0.2051 C   0  0  0  0  0  0  0  0  0  0  0  0
    2.0169    2.5266   -0.8349 N   0  0  0  0  0  0  0  0  0  0  0  0
    2.6469    3.8662   -0.8140 C   0  0  0  0  0  0  0  0  0  0  0  0
    2.9286    3.7453   -2.3135 C   0  0  0  0  0  0  0  0  0  0  0  0
    1.9336    2.5801   -2.3100 C   0  0  0  0  0  0  0  0  0  0  0  0
   -2.3560    1.1751   -2.3509 H   0  0  0  0  0  0  0  0  0  0  0  0
   -0.9662    2.0900   -2.5405 H   0  0  0  0  0  0  0  0  0  0  0  0
   -2.8853   -2.3140   -1.7395 H   0  0  0  0  0  0  0  0  0  0  0  0
   -3.9120   -4.5494   -1.6105 H   0  0  0  0  0  0  0  0  0  0  0  0
   -3.5444   -8.8884    0.5347 H   0  0  0  0  0  0  0  0  0  0  0  0
   -4.9897  -10.3802   -0.7660 H   0  0  0  0  0  0  0  0  0  0  0  0
   -6.7473   -9.4970   -2.1814 H   0  0  0  0  0  0  0  0  0  0  0  0
   -7.4699   -5.8330   -2.4872 H   0  0  0  0  0  0  0  0  0  0  0  0
   -9.3644   -5.7818   -3.5397 H   0  0  0  0  0  0  0  0  0  0  0  0
   -9.8267   -8.1749   -5.2588 H   0  0  0  0  0  0  0  0  0  0  0  0
  -10.5288   -6.5755   -5.4875 H   0  0  0  0  0  0  0  0  0  0  0  0
   -5.7806   -5.4913   -0.9139 H   0  0  0  0  0  0  0  0  0  0  0  0
   -3.1288   -7.3772    2.4845 H   0  0  0  0  0  0  0  0  0  0  0  0
   -1.0267   -2.9765    2.1145 H   0  0  0  0  0  0  0  0  0  0  0  0
    1.1084    0.5987    1.5923 H   0  0  0  0  0  0  0  0  0  0  0  0
    0.8221    2.9671    0.8255 H   0  0  0  0  0  0  0  0  0  0  0  0
    0.0428    3.3608   -0.6823 H   0  0  0  0  0  0  0  0  0  0  0  0
    3.5443    3.9275   -0.1901 H   0  0  0  0  0  0  0  0  0  0  0  0
    1.9897    4.7064   -0.5593 H   0  0  0  0  0  0  0  0  0  0  0  0
    3.9579    3.4664   -2.5606 H   0  0  0  0  0  0  0  0  0  0  0  0
    2.6337    4.6105   -2.9151 H   0  0  0  0  0  0  0  0  0  0  0  0
    2.3018    1.6803   -2.8145 H   0  0  0  0  0  0  0  0  0  0  0  0
    0.9657    2.8488   -2.7428 H   0  0  0  0  0  0  0  0  0  0  0  0
  1  2  1  0  0  0  0
  1 37  1  0  0  0  0
  1 38  1  0  0  0  0
  2  3  1  0  0  0  0
  2 31  2  0  0  0  0
  3  4  2  0  0  0  0
  4  5  1  0  0  0  0
  4 29  1  0  0  0  0
  5  6  1  0  0  0  0
  5 28  2  0  0  0  0
  6  7  2  0  0  0  0
  6 39  1  0  0  0  0
  7  8  1  0  0  0  0
  7 40  1  0  0  0  0
  8  9  1  0  0  0  0
  8 27  1  0  0  0  0
  9 10  1  0  0  0  0
  9 25  2  0  0  0  0
 10 11  1  0  0  0  0
 10 24  2  0  0  0  0
 11 12  2  0  0  0  0
 11 41  1  0  0  0  0
 12 13  1  0  0  0  0
 12 42  1  0  0  0  0
 13 14  2  0  0  0  0
 13 43  1  0  0  0  0
 14 15  1  0  0  0  0
 14 24  1  0  0  0  0
 15 16  1  0  0  0  0
 15 44  1  0  0  0  0
 16 17  2  0  0  0  0
 16 18  1  0  0  0  0
 18 19  1  0  0  0  0
 18 45  1  0  0  0  0
 19 20  1  0  0  0  0
 19 46  1  0  0  0  0
 19 47  1  0  0  0  0
 20 21  1  0  0  0  0
 20 22  1  0  0  0  0
 20 23  1  0  0  0  0
 24 48  1  0  0  0  0
 25 26  1  0  0  0  0
 25 49  1  0  0  0  0
 26 27  2  0  0  0  0
 27 28  1  0  0  0  0
 28 50  1  0  0  0  0
 29 30  2  0  0  0  0
 30 31  1  0  0  0  0
 30 51  1  0  0  0  0
 31 32  1  0  0  0  0
 32 33  1  0  0  0  0
 32 52  1  0  0  0  0
 32 53  1  0  0  0  0
 33 34  1  0  0  0  0
 33 36  1  0  0  0  0
 34 35  1  0  0  0  0
 34 54  1  0  0  0  0
 34 55  1  0  0  0  0
 35 36  1  0  0  0  0
 35 56  1  0  0  0  0
 35 57  1  0  0  0  0
 36 58  1  0  0  0  0
 36 59  1  0  0  0  0
M  END
$$$$
