CHEMBL254964
 OpenBabel04072215363D

 60 64  0  0  0  0  0  0  0  0999 V2000
    4.8951   -6.7333    1.9142 O   0  0  0  0  0  0  0  0  0  0  0  0
    4.2550   -5.9911    1.1660 C   0  0  0  0  0  0  0  0  0  0  0  0
    2.9916   -6.3823    0.4418 C   0  0  0  0  0  0  0  0  0  0  0  0
    2.5317   -7.8025    0.6600 C   0  0  0  0  0  0  0  0  0  0  0  0
    1.2538   -8.0473    1.1808 C   0  0  0  0  0  0  0  0  0  0  0  0
    0.7903   -9.3534    1.3317 C   0  0  0  0  0  0  0  0  0  0  0  0
    1.6018  -10.4273    0.9675 C   0  0  0  0  0  0  0  0  0  0  0  0
    2.8765  -10.1952    0.4536 C   0  0  0  0  0  0  0  0  0  0  0  0
    3.3400   -8.8894    0.2973 C   0  0  0  0  0  0  0  0  0  0  0  0
    4.7410   -4.7003    0.9843 N   0  0  0  0  0  0  0  0  0  0  0  0
    4.3395   -3.5150    0.3734 C   0  0  0  0  0  0  0  0  0  0  0  0
    2.9118   -3.1944   -0.4172 S   0  0  0  0  0  0  0  0  0  0  0  0
    5.2195   -2.4678    0.5514 N   0  0  0  0  0  0  0  0  0  0  0  0
    6.6203   -2.5313    0.6464 C   0  0  0  0  0  0  0  0  0  0  0  0
    7.2868   -1.4833    1.2804 C   0  0  0  0  0  0  0  0  0  0  0  0
    8.6733   -1.5372    1.4410 C   0  0  0  0  0  0  0  0  0  0  0  0
    9.3891   -2.6551    0.9961 C   0  0  0  0  0  0  0  0  0  0  0  0
   10.7315   -2.8589    1.2043 O   0  0  0  0  0  0  0  0  0  0  0  0
   11.3184   -2.3644    2.3443 C   0  0  0  0  0  0  0  0  0  0  0  0
   10.6923   -2.3049    3.5875 C   0  0  0  0  0  0  0  0  0  0  0  0
   11.3497   -1.6922    4.6354 C   0  0  0  0  0  0  0  0  0  0  0  0
   12.5818   -1.1523    4.5722 N   0  0  0  0  0  0  0  0  0  0  0  0
   13.2327   -1.3115    3.3889 C   0  0  0  0  0  0  0  0  0  0  0  0
   14.5498   -0.8537    3.0951 C   0  0  0  0  0  0  0  0  0  0  0  0
   14.9618   -1.1563    1.8056 C   0  0  0  0  0  0  0  0  0  0  0  0
   16.2782   -0.8864    1.2395 C   0  0  0  0  0  0  0  0  0  0  0  0
   17.2590   -0.7761    1.9829 O   0  0  0  0  0  0  0  0  0  0  0  0
   16.4617   -0.7609   -0.1342 N   0  0  0  0  0  0  0  0  0  0  0  0
   15.5062   -0.5299   -1.2068 C   0  0  0  0  0  0  0  0  0  0  0  0
   16.1642   -1.2338   -2.3775 C   0  0  0  0  0  0  0  0  0  0  0  0
   17.6303   -0.8567   -2.1975 C   0  0  0  0  0  0  0  0  0  0  0  0
   17.8092   -0.7501   -0.6822 C   0  0  0  0  0  0  0  0  0  0  0  0
   13.7844   -2.1138    1.0254 S   0  0  0  0  0  0  0  0  0  0  0  0
   12.6523   -1.9399    2.2919 C   0  0  0  0  0  0  0  0  0  0  0  0
    8.7265   -3.6369    0.2661 C   0  0  0  0  0  0  0  0  0  0  0  0
    9.4062   -4.6631   -0.2650 F   0  0  0  0  0  0  0  0  0  0  0  0
    7.3511   -3.5838    0.0896 C   0  0  0  0  0  0  0  0  0  0  0  0
    3.1400   -6.2385   -0.6338 H   0  0  0  0  0  0  0  0  0  0  0  0
    2.2022   -5.7095    0.7892 H   0  0  0  0  0  0  0  0  0  0  0  0
    0.6052   -7.2212    1.4666 H   0  0  0  0  0  0  0  0  0  0  0  0
   -0.2039   -9.5322    1.7318 H   0  0  0  0  0  0  0  0  0  0  0  0
    1.2414  -11.4436    1.0826 H   0  0  0  0  0  0  0  0  0  0  0  0
    3.5112  -11.0330    0.1742 H   0  0  0  0  0  0  0  0  0  0  0  0
    4.3400   -8.7240   -0.1009 H   0  0  0  0  0  0  0  0  0  0  0  0
    5.5621   -4.6005    1.5667 H   0  0  0  0  0  0  0  0  0  0  0  0
    4.7991   -1.5429    0.5157 H   0  0  0  0  0  0  0  0  0  0  0  0
    6.7371   -0.6459    1.7047 H   0  0  0  0  0  0  0  0  0  0  0  0
    9.1722   -0.7151    1.9477 H   0  0  0  0  0  0  0  0  0  0  0  0
    9.6995   -2.7119    3.7426 H   0  0  0  0  0  0  0  0  0  0  0  0
   10.8629   -1.6002    5.6043 H   0  0  0  0  0  0  0  0  0  0  0  0
   15.1743   -0.3282    3.8075 H   0  0  0  0  0  0  0  0  0  0  0  0
   15.4613    0.5530   -1.3741 H   0  0  0  0  0  0  0  0  0  0  0  0
   14.4937   -0.8733   -1.0352 H   0  0  0  0  0  0  0  0  0  0  0  0
   15.7543   -0.9321   -3.3440 H   0  0  0  0  0  0  0  0  0  0  0  0
   16.0460   -2.3206   -2.2735 H   0  0  0  0  0  0  0  0  0  0  0  0
   17.8252    0.1130   -2.6696 H   0  0  0  0  0  0  0  0  0  0  0  0
   18.3066   -1.5909   -2.6449 H   0  0  0  0  0  0  0  0  0  0  0  0
   18.3045    0.1893   -0.4066 H   0  0  0  0  0  0  0  0  0  0  0  0
   18.3816   -1.5861   -0.2719 H   0  0  0  0  0  0  0  0  0  0  0  0
    6.8830   -4.3631   -0.5038 H   0  0  0  0  0  0  0  0  0  0  0  0
  1  2  2  0  0  0  0
  2  3  1  0  0  0  0
  2 10  1  0  0  0  0
  3  4  1  0  0  0  0
  3 38  1  0  0  0  0
  3 39  1  0  0  0  0
  4  5  1  0  0  0  0
  4  9  2  0  0  0  0
  5  6  2  0  0  0  0
  5 40  1  0  0  0  0
  6  7  1  0  0  0  0
  6 41  1  0  0  0  0
  7  8  2  0  0  0  0
  7 42  1  0  0  0  0
  8  9  1  0  0  0  0
  8 43  1  0  0  0  0
  9 44  1  0  0  0  0
 10 11  1  0  0  0  0
 10 45  1  0  0  0  0
 11 12  2  0  0  0  0
 11 13  1  0  0  0  0
 13 14  1  0  0  0  0
 13 46  1  0  0  0  0
 14 15  1  0  0  0  0
 14 37  2  0  0  0  0
 15 16  2  0  0  0  0
 15 47  1  0  0  0  0
 16 17  1  0  0  0  0
 16 48  1  0  0  0  0
 17 18  1  0  0  0  0
 17 35  2  0  0  0  0
 18 19  1  0  0  0  0
 19 20  1  0  0  0  0
 19 34  2  0  0  0  0
 20 21  2  0  0  0  0
 20 49  1  0  0  0  0
 21 22  1  0  0  0  0
 21 50  1  0  0  0  0
 22 23  2  0  0  0  0
 23 24  1  0  0  0  0
 23 34  1  0  0  0  0
 24 25  2  0  0  0  0
 24 51  1  0  0  0  0
 25 26  1  0  0  0  0
 25 33  1  0  0  0  0
 26 27  2  0  0  0  0
 26 28  1  0  0  0  0
 28 29  1  0  0  0  0
 28 32  1  0  0  0  0
 29 30  1  0  0  0  0
 29 52  1  0  0  0  0
 29 53  1  0  0  0  0
 30 31  1  0  0  0  0
 30 54  1  0  0  0  0
 30 55  1  0  0  0  0
 31 32  1  0  0  0  0
 31 56  1  0  0  0  0
 31 57  1  0  0  0  0
 32 58  1  0  0  0  0
 32 59  1  0  0  0  0
 33 34  1  0  0  0  0
 35 36  1  0  0  0  0
 35 37  1  0  0  0  0
 37 60  1  0  0  0  0
M  END
$$$$
