CHEMBL4776193
 OpenBabel04072215383D

 62 65  0  0  0  0  0  0  0  0999 V2000
    5.8269   10.7391    3.3281 C   0  0  0  0  0  0  0  0  0  0  0  0
    6.6880    9.5988    3.2402 O   0  0  0  0  0  0  0  0  0  0  0  0
    6.0795    8.3930    3.4782 C   0  0  0  0  0  0  0  0  0  0  0  0
    4.7185    8.2000    3.1737 C   0  0  0  0  0  0  0  0  0  0  0  0
    4.0431    7.0262    3.4551 C   0  0  0  0  0  0  0  0  0  0  0  0
    2.7316    6.9781    3.2077 N   0  0  0  0  0  0  0  0  0  0  0  0
    2.1001    5.8552    3.5532 C   0  0  0  0  0  0  0  0  0  0  0  0
    2.6629    4.7889    4.1165 N   0  0  0  0  0  0  0  0  0  0  0  0
    3.9888    4.8438    4.3534 C   0  0  0  0  0  0  0  0  0  0  0  0
    4.6084    3.7457    5.0077 N   0  0  0  0  0  0  0  0  0  0  0  0
    3.9074    2.7612    5.7367 C   0  0  0  0  0  0  0  0  0  0  0  0
    4.3273    1.4352    5.7046 C   0  0  0  0  0  0  0  0  0  0  0  0
    3.5705    0.4410    6.3325 C   0  0  0  0  0  0  0  0  0  0  0  0
    2.3970    0.7508    7.0263 C   0  0  0  0  0  0  0  0  0  0  0  0
    1.5170   -0.2197    7.5731 N   0  0  0  0  0  0  0  0  0  0  0  0
    1.6616   -1.5864    7.4377 C   0  0  0  0  0  0  0  0  0  0  0  0
    2.6082   -2.1616    6.9074 O   0  0  0  0  0  0  0  0  0  0  0  0
    0.5875   -2.4548    7.9908 C   0  0  0  0  0  0  0  0  0  0  0  0
   -0.7459   -2.0646    8.1014 C   0  0  0  0  0  0  0  0  0  0  0  0
   -1.7020   -2.9792    8.5708 C   0  0  0  0  0  0  0  0  0  0  0  0
   -1.3532   -4.2955    8.9332 C   0  0  0  0  0  0  0  0  0  0  0  0
   -2.3738   -5.3302    9.4387 C   0  0  0  0  0  0  0  0  0  0  0  0
   -3.8059   -4.7679    9.5552 C   0  0  0  0  0  0  0  0  0  0  0  0
   -2.4206   -6.5348    8.4716 C   0  0  0  0  0  0  0  0  0  0  0  0
   -1.9643   -5.8371   10.8398 C   0  0  0  0  0  0  0  0  0  0  0  0
   -0.0045   -4.6635    8.8008 C   0  0  0  0  0  0  0  0  0  0  0  0
    0.9485   -3.7595    8.3358 C   0  0  0  0  0  0  0  0  0  0  0  0
    2.0463    2.0946    7.1673 C   0  0  0  0  0  0  0  0  0  0  0  0
    2.8047    3.0871    6.5381 C   0  0  0  0  0  0  0  0  0  0  0  0
    4.7556    5.9694    4.0160 C   0  0  0  0  0  0  0  0  0  0  0  0
    6.1424    6.1164    4.2505 C   0  0  0  0  0  0  0  0  0  0  0  0
    6.8104    7.3248    4.0089 C   0  0  0  0  0  0  0  0  0  0  0  0
    8.1174    7.2454    4.3884 O   0  0  0  0  0  0  0  0  0  0  0  0
    8.9651    8.3792    4.3913 C   0  0  0  0  0  0  0  0  0  0  0  0
    6.4488   11.6332    3.4188 H   0  0  0  0  0  0  0  0  0  0  0  0
    5.1807   10.6925    4.2136 H   0  0  0  0  0  0  0  0  0  0  0  0
    5.2288   10.8433    2.4166 H   0  0  0  0  0  0  0  0  0  0  0  0
    4.1295    8.9920    2.7188 H   0  0  0  0  0  0  0  0  0  0  0  0
    1.0309    5.8117    3.3773 H   0  0  0  0  0  0  0  0  0  0  0  0
    5.3212    3.3526    4.4025 H   0  0  0  0  0  0  0  0  0  0  0  0
    5.2170    1.1407    5.1568 H   0  0  0  0  0  0  0  0  0  0  0  0
    3.9277   -0.5776    6.2334 H   0  0  0  0  0  0  0  0  0  0  0  0
    0.7161    0.1325    8.0631 H   0  0  0  0  0  0  0  0  0  0  0  0
   -1.0790   -1.0784    7.7912 H   0  0  0  0  0  0  0  0  0  0  0  0
   -2.7329   -2.6370    8.6257 H   0  0  0  0  0  0  0  0  0  0  0  0
   -4.1913   -4.4440    8.5812 H   0  0  0  0  0  0  0  0  0  0  0  0
   -3.8456   -3.9114   10.2388 H   0  0  0  0  0  0  0  0  0  0  0  0
   -4.4993   -5.5238    9.9422 H   0  0  0  0  0  0  0  0  0  0  0  0
   -2.7446   -6.2269    7.4705 H   0  0  0  0  0  0  0  0  0  0  0  0
   -3.1203   -7.2991    8.8292 H   0  0  0  0  0  0  0  0  0  0  0  0
   -1.4444   -7.0210    8.3647 H   0  0  0  0  0  0  0  0  0  0  0  0
   -1.9283   -5.0145   11.5634 H   0  0  0  0  0  0  0  0  0  0  0  0
   -0.9803   -6.3183   10.8384 H   0  0  0  0  0  0  0  0  0  0  0  0
   -2.6801   -6.5791   11.2134 H   0  0  0  0  0  0  0  0  0  0  0  0
    0.3286   -5.6703    9.0439 H   0  0  0  0  0  0  0  0  0  0  0  0
    1.9810   -4.0901    8.2280 H   0  0  0  0  0  0  0  0  0  0  0  0
    1.1684    2.3957    7.7308 H   0  0  0  0  0  0  0  0  0  0  0  0
    2.5032    4.1252    6.6455 H   0  0  0  0  0  0  0  0  0  0  0  0
    6.7119    5.2919    4.6769 H   0  0  0  0  0  0  0  0  0  0  0  0
    9.7090    8.2174    5.1803 H   0  0  0  0  0  0  0  0  0  0  0  0
    8.4681    9.3182    4.6333 H   0  0  0  0  0  0  0  0  0  0  0  0
    9.5029    8.4387    3.4403 H   0  0  0  0  0  0  0  0  0  0  0  0
  1  2  1  0  0  0  0
  1 35  1  0  0  0  0
  1 36  1  0  0  0  0
  1 37  1  0  0  0  0
  2  3  1  0  0  0  0
  3  4  1  0  0  0  0
  3 32  2  0  0  0  0
  4  5  2  0  0  0  0
  4 38  1  0  0  0  0
  5  6  1  0  0  0  0
  5 30  1  0  0  0  0
  6  7  2  0  0  0  0
  7  8  1  0  0  0  0
  7 39  1  0  0  0  0
  8  9  2  0  0  0  0
  9 10  1  0  0  0  0
  9 30  1  0  0  0  0
 10 11  1  0  0  0  0
 10 40  1  0  0  0  0
 11 12  1  0  0  0  0
 11 29  2  0  0  0  0
 12 13  2  0  0  0  0
 12 41  1  0  0  0  0
 13 14  1  0  0  0  0
 13 42  1  0  0  0  0
 14 15  1  0  0  0  0
 14 28  2  0  0  0  0
 15 16  1  0  0  0  0
 15 43  1  0  0  0  0
 16 17  2  0  0  0  0
 16 18  1  0  0  0  0
 18 19  1  0  0  0  0
 18 27  2  0  0  0  0
 19 20  2  0  0  0  0
 19 44  1  0  0  0  0
 20 21  1  0  0  0  0
 20 45  1  0  0  0  0
 21 22  1  0  0  0  0
 21 26  2  0  0  0  0
 22 23  1  0  0  0  0
 22 24  1  0  0  0  0
 22 25  1  0  0  0  0
 23 46  1  0  0  0  0
 23 47  1  0  0  0  0
 23 48  1  0  0  0  0
 24 49  1  0  0  0  0
 24 50  1  0  0  0  0
 24 51  1  0  0  0  0
 25 52  1  0  0  0  0
 25 53  1  0  0  0  0
 25 54  1  0  0  0  0
 26 27  1  0  0  0  0
 26 55  1  0  0  0  0
 27 56  1  0  0  0  0
 28 29  1  0  0  0  0
 28 57  1  0  0  0  0
 29 58  1  0  0  0  0
 30 31  2  0  0  0  0
 31 32  1  0  0  0  0
 31 59  1  0  0  0  0
 32 33  1  0  0  0  0
 33 34  1  0  0  0  0
 34 60  1  0  0  0  0
 34 61  1  0  0  0  0
 34 62  1  0  0  0  0
M  END
$$$$
