CHEMBL1998611
 OpenBabel04072215363D

 21 22  0  0  0  0  0  0  0  0999 V2000
    2.9770    1.2827   -0.3966 N   0  0  0  0  0  0  0  0  0  0  0  0
    2.5085    0.0207   -0.1414 C   0  0  0  0  0  0  0  0  0  0  0  0
    1.5724   -0.4053   -0.8170 O   0  0  0  0  0  0  0  0  0  0  0  0
    3.1708   -0.7263    0.9195 C   0  0  0  0  0  0  0  0  0  0  0  0
    4.4194   -0.0236    1.8401 S   0  0  0  0  0  0  0  0  0  0  0  0
    4.6385   -1.4245    2.8188 C   0  0  0  0  0  0  0  0  0  0  0  0
    5.5604   -1.5961    3.8823 C   0  0  0  0  0  0  0  0  0  0  0  0
    6.7615   -0.2190    4.4041 Br  0  0  0  0  0  0  0  0  0  0  0  0
    5.6047   -2.8041    4.5814 C   0  0  0  0  0  0  0  0  0  0  0  0
    4.7530   -3.8367    4.2360 C   0  0  0  0  0  0  0  0  0  0  0  0
    3.8502   -3.6633    3.1855 C   0  0  0  0  0  0  0  0  0  0  0  0
    2.7987   -4.9521    2.7664 Cl  0  0  0  0  0  0  0  0  0  0  0  0
    3.7573   -2.4530    2.4389 C   0  0  0  0  0  0  0  0  0  0  0  0
    2.9269   -2.0222    1.3324 C   0  0  0  0  0  0  0  0  0  0  0  0
    1.9930   -2.8001    0.7434 N   0  0  0  0  0  0  0  0  0  0  0  0
    2.5422    1.8131   -1.1375 H   0  0  0  0  0  0  0  0  0  0  0  0
    3.7647    1.6690    0.1038 H   0  0  0  0  0  0  0  0  0  0  0  0
    6.3083   -2.9413    5.4006 H   0  0  0  0  0  0  0  0  0  0  0  0
    4.7876   -4.7768    4.7807 H   0  0  0  0  0  0  0  0  0  0  0  0
    1.8200   -3.7650    1.0136 H   0  0  0  0  0  0  0  0  0  0  0  0
    1.4313   -2.4694   -0.0459 H   0  0  0  0  0  0  0  0  0  0  0  0
  1  2  1  0  0  0  0
  1 16  1  0  0  0  0
  1 17  1  0  0  0  0
  2  3  2  0  0  0  0
  2  4  1  0  0  0  0
  4  5  1  0  0  0  0
  4 14  2  0  0  0  0
  5  6  1  0  0  0  0
  6  7  1  0  0  0  0
  6 13  2  0  0  0  0
  7  8  1  0  0  0  0
  7  9  2  0  0  0  0
  9 10  1  0  0  0  0
  9 18  1  0  0  0  0
 10 11  2  0  0  0  0
 10 19  1  0  0  0  0
 11 12  1  0  0  0  0
 11 13  1  0  0  0  0
 13 14  1  0  0  0  0
 14 15  1  0  0  0  0
 15 20  1  0  0  0  0
 15 21  1  0  0  0  0
M  END
$$$$
