CHEMBL3954396
 OpenBabel04072215373D

 63 66  0  0  0  0  0  0  0  0999 V2000
    1.7898    2.5175    4.3011 C   0  0  0  0  0  0  0  0  0  0  0  0
    2.3328    3.2497    3.2084 O   0  0  0  0  0  0  0  0  0  0  0  0
    3.0081    2.5299    2.2541 C   0  0  0  0  0  0  0  0  0  0  0  0
    2.7949    1.1975    1.9795 C   0  0  0  0  0  0  0  0  0  0  0  0
    3.5245    0.5932    0.9621 C   0  0  0  0  0  0  0  0  0  0  0  0
    3.1611   -0.7169    0.7847 O   0  0  0  0  0  0  0  0  0  0  0  0
    3.7323   -1.4319   -0.2978 C   0  0  0  0  0  0  0  0  0  0  0  0
    4.5056    1.3313    0.2520 C   0  0  0  0  0  0  0  0  0  0  0  0
    5.2271    0.6614   -0.6587 F   0  0  0  0  0  0  0  0  0  0  0  0
    4.7675    2.7161    0.4792 C   0  0  0  0  0  0  0  0  0  0  0  0
    5.7992    3.4501   -0.2355 N   0  0  0  0  0  0  0  0  0  0  0  0
    6.2340    2.9147   -1.5706 C   0  0  0  0  0  0  0  0  0  0  0  0
    5.1601    3.0218   -2.6773 C   0  0  0  0  0  0  0  0  0  0  0  0
    4.6500    4.3711   -2.9742 N   0  0  0  0  0  0  0  0  0  0  0  0
    5.6396    5.3544   -3.4439 C   0  0  0  0  0  0  0  0  0  0  0  0
    6.4196    4.9211   -4.6890 C   0  0  0  0  0  0  0  0  0  0  0  0
    4.8911    6.6559   -3.7497 C   0  0  0  0  0  0  0  0  0  0  0  0
    6.6152    4.5543    0.2003 C   0  0  0  0  0  0  0  0  0  0  0  0
    6.1067    5.6453    0.8994 C   0  0  0  0  0  0  0  0  0  0  0  0
    6.8851    6.7263    1.3143 C   0  0  0  0  0  0  0  0  0  0  0  0
    8.1937    6.8327    0.9247 C   0  0  0  0  0  0  0  0  0  0  0  0
    8.8407    7.9661    1.2367 N   0  0  0  0  0  0  0  0  0  0  0  0
   10.0981    8.0675    0.7664 C   0  0  0  0  0  0  0  0  0  0  0  0
   10.7051    7.0667    0.0249 C   0  0  0  0  0  0  0  0  0  0  0  0
   12.0669    7.2199   -0.4477 C   0  0  0  0  0  0  0  0  0  0  0  0
   13.0056    8.2576   -0.2407 C   0  0  0  0  0  0  0  0  0  0  0  0
   14.1848    8.0077   -0.8197 N   0  0  0  0  0  0  0  0  0  0  0  0
   14.0059    6.7989   -1.3873 N   0  0  0  0  0  0  0  0  0  0  0  0
   15.1062    6.1567   -2.0616 C   0  0  0  0  0  0  0  0  0  0  0  0
   12.7507    6.3026   -1.2185 C   0  0  0  0  0  0  0  0  0  0  0  0
   10.0512    5.9084   -0.2660 N   0  0  0  0  0  0  0  0  0  0  0  0
    8.7747    5.7944    0.1810 C   0  0  0  0  0  0  0  0  0  0  0  0
    7.9959    4.6610   -0.1082 C   0  0  0  0  0  0  0  0  0  0  0  0
    3.9358    3.2655    1.4886 C   0  0  0  0  0  0  0  0  0  0  0  0
    3.8901    4.5698    1.7493 F   0  0  0  0  0  0  0  0  0  0  0  0
    1.5579    3.2308    5.0995 H   0  0  0  0  0  0  0  0  0  0  0  0
    2.5052    1.7919    4.7029 H   0  0  0  0  0  0  0  0  0  0  0  0
    0.8568    2.0289    4.0061 H   0  0  0  0  0  0  0  0  0  0  0  0
    2.0455    0.6192    2.5114 H   0  0  0  0  0  0  0  0  0  0  0  0
    3.2032   -2.3873   -0.3732 H   0  0  0  0  0  0  0  0  0  0  0  0
    4.7850   -1.6465   -0.0961 H   0  0  0  0  0  0  0  0  0  0  0  0
    3.5965   -0.9074   -1.2482 H   0  0  0  0  0  0  0  0  0  0  0  0
    6.6254    1.8969   -1.4836 H   0  0  0  0  0  0  0  0  0  0  0  0
    7.0869    3.4598   -1.9852 H   0  0  0  0  0  0  0  0  0  0  0  0
    4.2981    2.4009   -2.4139 H   0  0  0  0  0  0  0  0  0  0  0  0
    5.5597    2.5757   -3.5966 H   0  0  0  0  0  0  0  0  0  0  0  0
    4.2301    4.7326   -2.1149 H   0  0  0  0  0  0  0  0  0  0  0  0
    6.3560    5.5708   -2.6439 H   0  0  0  0  0  0  0  0  0  0  0  0
    5.7470    4.6460   -5.5090 H   0  0  0  0  0  0  0  0  0  0  0  0
    7.0773    4.0738   -4.4807 H   0  0  0  0  0  0  0  0  0  0  0  0
    7.0567    5.7404   -5.0450 H   0  0  0  0  0  0  0  0  0  0  0  0
    4.1598    6.5197   -4.5557 H   0  0  0  0  0  0  0  0  0  0  0  0
    5.5902    7.4405   -4.0638 H   0  0  0  0  0  0  0  0  0  0  0  0
    4.3607    7.0261   -2.8669 H   0  0  0  0  0  0  0  0  0  0  0  0
    5.0597    5.7859    1.0856 H   0  0  0  0  0  0  0  0  0  0  0  0
    6.4268    7.5254    1.8911 H   0  0  0  0  0  0  0  0  0  0  0  0
   10.5932    9.0018    1.0067 H   0  0  0  0  0  0  0  0  0  0  0  0
   12.8886    9.1810    0.3104 H   0  0  0  0  0  0  0  0  0  0  0  0
   15.9772    6.8171   -2.0541 H   0  0  0  0  0  0  0  0  0  0  0  0
   14.8027    5.9460   -3.0883 H   0  0  0  0  0  0  0  0  0  0  0  0
   15.3329    5.2326   -1.5259 H   0  0  0  0  0  0  0  0  0  0  0  0
   12.4546    5.3490   -1.6299 H   0  0  0  0  0  0  0  0  0  0  0  0
    8.5163    3.8574   -0.6265 H   0  0  0  0  0  0  0  0  0  0  0  0
  1  2  1  0  0  0  0
  1 36  1  0  0  0  0
  1 37  1  0  0  0  0
  1 38  1  0  0  0  0
  2  3  1  0  0  0  0
  3  4  1  0  0  0  0
  3 34  2  0  0  0  0
  4  5  2  0  0  0  0
  4 39  1  0  0  0  0
  5  6  1  0  0  0  0
  5  8  1  0  0  0  0
  6  7  1  0  0  0  0
  7 40  1  0  0  0  0
  7 41  1  0  0  0  0
  7 42  1  0  0  0  0
  8  9  1  0  0  0  0
  8 10  2  0  0  0  0
 10 11  1  0  0  0  0
 10 34  1  0  0  0  0
 11 12  1  0  0  0  0
 11 18  1  0  0  0  0
 12 13  1  0  0  0  0
 12 43  1  0  0  0  0
 12 44  1  0  0  0  0
 13 14  1  0  0  0  0
 13 45  1  0  0  0  0
 13 46  1  0  0  0  0
 14 15  1  0  0  0  0
 14 47  1  0  0  0  0
 15 16  1  0  0  0  0
 15 17  1  0  0  0  0
 15 48  1  0  0  0  0
 16 49  1  0  0  0  0
 16 50  1  0  0  0  0
 16 51  1  0  0  0  0
 17 52  1  0  0  0  0
 17 53  1  0  0  0  0
 17 54  1  0  0  0  0
 18 19  1  0  0  0  0
 18 33  2  0  0  0  0
 19 20  2  0  0  0  0
 19 55  1  0  0  0  0
 20 21  1  0  0  0  0
 20 56  1  0  0  0  0
 21 22  1  0  0  0  0
 21 32  2  0  0  0  0
 22 23  2  0  0  0  0
 23 24  1  0  0  0  0
 23 57  1  0  0  0  0
 24 25  1  0  0  0  0
 24 31  2  0  0  0  0
 25 26  1  0  0  0  0
 25 30  2  0  0  0  0
 26 27  2  0  0  0  0
 26 58  1  0  0  0  0
 27 28  1  0  0  0  0
 28 29  1  0  0  0  0
 28 30  1  0  0  0  0
 29 59  1  0  0  0  0
 29 60  1  0  0  0  0
 29 61  1  0  0  0  0
 30 62  1  0  0  0  0
 31 32  1  0  0  0  0
 32 33  1  0  0  0  0
 33 63  1  0  0  0  0
 34 35  1  0  0  0  0
M  END
$$$$
