CHEMBL3780801
 OpenBabel04072215373D

 45 48  0  0  0  0  0  0  0  0999 V2000
   10.7907   -1.2729   -2.3024 C   0  0  0  0  0  0  0  0  0  0  0  0
   10.2013   -1.7249   -1.0896 O   0  0  0  0  0  0  0  0  0  0  0  0
    9.0451   -2.4471   -1.1993 C   0  0  0  0  0  0  0  0  0  0  0  0
    8.3717   -2.7474   -2.3832 C   0  0  0  0  0  0  0  0  0  0  0  0
    7.1907   -3.5019   -2.3571 C   0  0  0  0  0  0  0  0  0  0  0  0
    6.6726   -3.9821   -1.1480 C   0  0  0  0  0  0  0  0  0  0  0  0
    5.3587   -4.7280   -1.0634 C   0  0  0  0  0  0  0  0  0  0  0  0
    4.9825   -5.6319   -2.2153 C   0  0  0  0  0  0  0  0  0  0  0  0
    4.1274   -5.0863   -3.1073 N   0  0  0  0  0  0  0  0  0  0  0  0
    3.6114   -5.8398   -4.1197 N   0  0  0  0  0  0  0  0  0  0  0  0
    3.9084   -7.1524   -4.2300 C   0  0  0  0  0  0  0  0  0  0  0  0
    3.2834   -7.9194   -5.2469 N   0  0  0  0  0  0  0  0  0  0  0  0
    2.8169   -7.4291   -6.4920 C   0  0  0  0  0  0  0  0  0  0  0  0
    3.5181   -6.4165   -7.1650 C   0  0  0  0  0  0  0  0  0  0  0  0
    3.1282   -5.9851   -8.4355 C   0  0  0  0  0  0  0  0  0  0  0  0
    2.0330   -6.5690   -9.0649 C   0  0  0  0  0  0  0  0  0  0  0  0
    1.3293   -7.5885   -8.4249 C   0  0  0  0  0  0  0  0  0  0  0  0
    1.7254   -8.0209   -7.1540 C   0  0  0  0  0  0  0  0  0  0  0  0
    0.8296   -9.3001   -6.4078 Cl  0  0  0  0  0  0  0  0  0  0  0  0
    4.8104   -7.7653   -3.3378 C   0  0  0  0  0  0  0  0  0  0  0  0
    5.1728   -9.1331   -3.4270 C   0  0  0  0  0  0  0  0  0  0  0  0
    6.1154   -9.6978   -2.5685 C   0  0  0  0  0  0  0  0  0  0  0  0
    6.7232   -8.9101   -1.6025 C   0  0  0  0  0  0  0  0  0  0  0  0
    6.3662   -7.5659   -1.4767 C   0  0  0  0  0  0  0  0  0  0  0  0
    5.4024   -6.9707   -2.3255 C   0  0  0  0  0  0  0  0  0  0  0  0
    7.3437   -3.6519    0.0401 C   0  0  0  0  0  0  0  0  0  0  0  0
    8.5191   -2.8968    0.0116 C   0  0  0  0  0  0  0  0  0  0  0  0
   11.7277   -0.7661   -2.0517 H   0  0  0  0  0  0  0  0  0  0  0  0
   10.1427   -0.5479   -2.8059 H   0  0  0  0  0  0  0  0  0  0  0  0
   11.0346   -2.1118   -2.9627 H   0  0  0  0  0  0  0  0  0  0  0  0
    8.7289   -2.3990   -3.3464 H   0  0  0  0  0  0  0  0  0  0  0  0
    6.6747   -3.6919   -3.2972 H   0  0  0  0  0  0  0  0  0  0  0  0
    4.5682   -3.9744   -0.9449 H   0  0  0  0  0  0  0  0  0  0  0  0
    5.3273   -5.3206   -0.1399 H   0  0  0  0  0  0  0  0  0  0  0  0
    2.6257   -8.5721   -4.8260 H   0  0  0  0  0  0  0  0  0  0  0  0
    4.3916   -5.9580   -6.7064 H   0  0  0  0  0  0  0  0  0  0  0  0
    3.6907   -5.1975   -8.9313 H   0  0  0  0  0  0  0  0  0  0  0  0
    1.7341   -6.2349  -10.0552 H   0  0  0  0  0  0  0  0  0  0  0  0
    0.4798   -8.0469   -8.9245 H   0  0  0  0  0  0  0  0  0  0  0  0
    4.7330   -9.7698   -4.1933 H   0  0  0  0  0  0  0  0  0  0  0  0
    6.3853  -10.7462   -2.6697 H   0  0  0  0  0  0  0  0  0  0  0  0
    7.4803   -9.3362   -0.9485 H   0  0  0  0  0  0  0  0  0  0  0  0
    6.8782   -6.9786   -0.7165 H   0  0  0  0  0  0  0  0  0  0  0  0
    6.9481   -3.9652    1.0040 H   0  0  0  0  0  0  0  0  0  0  0  0
    9.0225   -2.6476    0.9428 H   0  0  0  0  0  0  0  0  0  0  0  0
  1  2  1  0  0  0  0
  1 28  1  0  0  0  0
  1 29  1  0  0  0  0
  1 30  1  0  0  0  0
  2  3  1  0  0  0  0
  3  4  1  0  0  0  0
  3 27  2  0  0  0  0
  4  5  2  0  0  0  0
  4 31  1  0  0  0  0
  5  6  1  0  0  0  0
  5 32  1  0  0  0  0
  6  7  1  0  0  0  0
  6 26  2  0  0  0  0
  7  8  1  0  0  0  0
  7 33  1  0  0  0  0
  7 34  1  0  0  0  0
  8  9  1  0  0  0  0
  8 25  2  0  0  0  0
  9 10  2  0  0  0  0
 10 11  1  0  0  0  0
 11 12  1  0  0  0  0
 11 20  2  0  0  0  0
 12 13  1  0  0  0  0
 12 35  1  0  0  0  0
 13 14  1  0  0  0  0
 13 18  2  0  0  0  0
 14 15  2  0  0  0  0
 14 36  1  0  0  0  0
 15 16  1  0  0  0  0
 15 37  1  0  0  0  0
 16 17  2  0  0  0  0
 16 38  1  0  0  0  0
 17 18  1  0  0  0  0
 17 39  1  0  0  0  0
 18 19  1  0  0  0  0
 20 21  1  0  0  0  0
 20 25  1  0  0  0  0
 21 22  2  0  0  0  0
 21 40  1  0  0  0  0
 22 23  1  0  0  0  0
 22 41  1  0  0  0  0
 23 24  2  0  0  0  0
 23 42  1  0  0  0  0
 24 25  1  0  0  0  0
 24 43  1  0  0  0  0
 26 27  1  0  0  0  0
 26 44  1  0  0  0  0
 27 45  1  0  0  0  0
M  END
$$$$
