CHEMBL4082743
 OpenBabel04072215383D

 64 70  0  0  1  0  0  0  0  0999 V2000
    4.8219    2.9722   -1.1463 N   0  0  0  0  0  0  0  0  0  0  0  0
    4.5734    1.6518   -1.0510 C   0  0  0  0  0  0  0  0  0  0  0  0
    5.3583    0.7857   -0.4670 N   0  0  0  0  0  0  0  0  0  0  0  0
    4.7362   -0.4137   -0.6451 C   0  0  0  0  0  0  0  0  0  0  0  0
    5.3672   -1.4642   -0.0872 N   0  0  0  0  0  0  0  0  0  0  0  0
    5.2151   -2.8592   -0.1902 C   0  0  0  0  0  0  0  0  0  0  0  0
    4.4261   -3.4795   -1.1494 C   0  0  0  0  0  0  0  0  0  0  0  0
    4.2521   -4.8829   -1.1679 C   0  0  0  0  0  0  0  0  0  0  0  0
    4.8280   -5.7374   -0.2067 C   0  0  0  0  0  0  0  0  0  0  0  0
    4.5082   -7.1098   -0.1602 N   0  0  0  0  0  0  0  0  0  0  0  0
    3.1883   -7.4966   -0.6940 C   0  0  0  0  0  0  0  0  0  0  0  0
    2.8268   -8.9336   -0.2599 C   0  0  0  0  0  0  0  0  0  0  0  0
    3.7834   -9.9743   -0.7173 N   0  0  0  0  0  0  0  0  0  0  0  0
    3.7012  -10.2278   -2.1655 C   0  0  3  0  0  0  0  0  0  0  0  0
    2.3076  -10.7641   -2.6214 C   0  0  0  0  0  0  0  0  0  0  0  0
    2.6456  -12.0257   -3.4317 C   0  0  3  0  0  0  0  0  0  0  0  0
    3.1076  -13.1275   -2.4642 C   0  0  0  0  0  0  0  0  0  0  0  0
    4.5184  -12.6691   -2.0727 C   0  0  0  0  0  0  0  0  0  0  0  0
    4.6497  -11.3069   -2.7743 C   0  0  3  0  0  0  0  0  0  0  0  0
    3.9496  -11.6151   -4.1071 C   0  0  0  0  0  0  0  0  0  0  0  0
    5.1268   -9.5622   -0.2346 C   0  0  0  0  0  0  0  0  0  0  0  0
    5.5765   -8.0853   -0.5023 C   0  0  0  0  0  0  0  0  0  0  0  0
    5.6373   -5.0989    0.7563 C   0  0  0  0  0  0  0  0  0  0  0  0
    6.3701   -5.9718    2.0662 Cl  0  0  0  0  0  0  0  0  0  0  0  0
    5.8218   -3.6956    0.7599 C   0  0  0  0  0  0  0  0  0  0  0  0
    3.5869   -0.3460   -1.3152 N   0  0  0  0  0  0  0  0  0  0  0  0
    3.4349    0.9936   -1.5265 N   0  0  0  0  0  0  0  0  0  0  0  0
    2.2464    1.5777   -2.0783 C   0  0  0  0  0  0  0  0  0  0  0  0
    2.1793    2.9346   -2.2392 N   0  0  0  0  0  0  0  0  0  0  0  0
    1.0126    3.4822   -2.6198 C   0  0  0  0  0  0  0  0  0  0  0  0
   -0.1337    2.8508   -2.8598 N   0  0  0  0  0  0  0  0  0  0  0  0
   -0.0300    1.5189   -2.7349 C   0  0  0  0  0  0  0  0  0  0  0  0
   -1.4052    0.5351   -2.9750 S   0  0  0  0  0  0  0  0  0  0  0  0
   -0.5037   -0.8882   -2.7171 C   0  0  0  0  0  0  0  0  0  0  0  0
    0.8187   -0.6112   -2.4483 C   0  0  0  0  0  0  0  0  0  0  0  0
    1.1088    0.7981   -2.3944 C   0  0  0  0  0  0  0  0  0  0  0  0
    5.7526    3.2889   -0.8926 H   0  0  0  0  0  0  0  0  0  0  0  0
    4.3509    3.5343   -1.8520 H   0  0  0  0  0  0  0  0  0  0  0  0
    6.1719   -1.1969    0.4663 H   0  0  0  0  0  0  0  0  0  0  0  0
    3.9309   -2.8944   -1.9155 H   0  0  0  0  0  0  0  0  0  0  0  0
    3.6430   -5.2810   -1.9682 H   0  0  0  0  0  0  0  0  0  0  0  0
    3.1808   -7.4292   -1.7887 H   0  0  0  0  0  0  0  0  0  0  0  0
    2.4150   -6.8218   -0.3085 H   0  0  0  0  0  0  0  0  0  0  0  0
    1.8061   -9.1606   -0.5840 H   0  0  0  0  0  0  0  0  0  0  0  0
    2.7933   -8.9664    0.8378 H   0  0  0  0  0  0  0  0  0  0  0  0
    3.8937   -9.2974   -2.7079 H   0  0  0  0  0  0  0  0  0  0  0  0
    1.8210  -10.0156   -3.2585 H   0  0  0  0  0  0  0  0  0  0  0  0
    1.6247  -10.9998   -1.7998 H   0  0  0  0  0  0  0  0  0  0  0  0
    1.8418  -12.3426   -4.1013 H   0  0  0  0  0  0  0  0  0  0  0  0
    3.1497  -14.1015   -2.9645 H   0  0  0  0  0  0  0  0  0  0  0  0
    2.4534  -13.2226   -1.5915 H   0  0  0  0  0  0  0  0  0  0  0  0
    5.2557  -13.3730   -2.4818 H   0  0  0  0  0  0  0  0  0  0  0  0
    4.6638  -12.6254   -0.9911 H   0  0  0  0  0  0  0  0  0  0  0  0
    5.6837  -10.9711   -2.8803 H   0  0  0  0  0  0  0  0  0  0  0  0
    4.4179  -12.4317   -4.6683 H   0  0  0  0  0  0  0  0  0  0  0  0
    3.8424  -10.7403   -4.7570 H   0  0  0  0  0  0  0  0  0  0  0  0
    5.8954  -10.2534   -0.5990 H   0  0  0  0  0  0  0  0  0  0  0  0
    5.1184   -9.7089    0.8553 H   0  0  0  0  0  0  0  0  0  0  0  0
    5.8532   -7.9800   -1.5573 H   0  0  0  0  0  0  0  0  0  0  0  0
    6.4777   -7.9100    0.0944 H   0  0  0  0  0  0  0  0  0  0  0  0
    6.4250   -3.2552    1.5509 H   0  0  0  0  0  0  0  0  0  0  0  0
    0.9941    4.5624   -2.7392 H   0  0  0  0  0  0  0  0  0  0  0  0
   -0.9779   -1.8585   -2.7760 H   0  0  0  0  0  0  0  0  0  0  0  0
    1.5468   -1.3957   -2.2840 H   0  0  0  0  0  0  0  0  0  0  0  0
  1  2  1  0  0  0  0
  1 37  1  0  0  0  0
  1 38  1  0  0  0  0
  2  3  2  0  0  0  0
  2 27  1  0  0  0  0
  3  4  1  0  0  0  0
  4  5  1  0  0  0  0
  4 26  2  0  0  0  0
  5  6  1  0  0  0  0
  5 39  1  0  0  0  0
  6  7  1  0  0  0  0
  6 25  2  0  0  0  0
  7  8  2  0  0  0  0
  7 40  1  0  0  0  0
  8  9  1  0  0  0  0
  8 41  1  0  0  0  0
  9 10  1  0  0  0  0
  9 23  2  0  0  0  0
 10 11  1  0  0  0  0
 10 22  1  0  0  0  0
 11 12  1  0  0  0  0
 11 42  1  0  0  0  0
 11 43  1  0  0  0  0
 12 13  1  0  0  0  0
 12 44  1  0  0  0  0
 12 45  1  0  0  0  0
 13 14  1  0  0  0  0
 13 21  1  0  0  0  0
 14 15  1  0  0  0  0
 14 19  1  0  0  0  0
 14 46  1  0  0  0  0
 15 16  1  0  0  0  0
 15 47  1  0  0  0  0
 15 48  1  0  0  0  0
 16 17  1  0  0  0  0
 16 20  1  0  0  0  0
 16 49  1  0  0  0  0
 17 18  1  0  0  0  0
 17 50  1  0  0  0  0
 17 51  1  0  0  0  0
 18 19  1  0  0  0  0
 18 52  1  0  0  0  0
 18 53  1  0  0  0  0
 19 20  1  0  0  0  0
 19 54  1  0  0  0  0
 20 55  1  0  0  0  0
 20 56  1  0  0  0  0
 21 22  1  0  0  0  0
 21 57  1  0  0  0  0
 21 58  1  0  0  0  0
 22 59  1  0  0  0  0
 22 60  1  0  0  0  0
 23 24  1  0  0  0  0
 23 25  1  0  0  0  0
 25 61  1  0  0  0  0
 26 27  1  0  0  0  0
 27 28  1  0  0  0  0
 28 29  1  0  0  0  0
 28 36  2  0  0  0  0
 29 30  2  0  0  0  0
 30 31  1  0  0  0  0
 30 62  1  0  0  0  0
 31 32  2  0  0  0  0
 32 33  1  0  0  0  0
 32 36  1  0  0  0  0
 33 34  1  0  0  0  0
 34 35  2  0  0  0  0
 34 63  1  0  0  0  0
 35 36  1  0  0  0  0
 35 64  1  0  0  0  0
M  END
$$$$
