CHEMBL4162947
 OpenBabel04072215383D

 57 61  0  0  0  0  0  0  0  0999 V2000
    5.3217   -3.2476   -0.5241 N   0  0  0  0  0  0  0  0  0  0  0  0
    5.0971   -1.9859   -1.0319 C   0  0  0  0  0  0  0  0  0  0  0  0
    4.1236   -1.8601   -1.9348 N   0  0  0  0  0  0  0  0  0  0  0  0
    3.9088   -0.6169   -2.4014 C   0  0  0  0  0  0  0  0  0  0  0  0
    4.6229    0.4962   -1.9890 C   0  0  0  0  0  0  0  0  0  0  0  0
    4.4047    1.7907   -2.4871 C   0  0  0  0  0  0  0  0  0  0  0  0
    5.2011    2.8467   -2.0441 C   0  0  0  0  0  0  0  0  0  0  0  0
    6.2175    2.6410   -1.0979 C   0  0  0  0  0  0  0  0  0  0  0  0
    7.1304    3.7418   -0.7014 C   0  0  0  0  0  0  0  0  0  0  0  0
    6.6928    5.0756   -0.5955 C   0  0  0  0  0  0  0  0  0  0  0  0
    7.5789    6.1184   -0.2846 C   0  0  0  0  0  0  0  0  0  0  0  0
    8.9338    5.8526   -0.1026 C   0  0  0  0  0  0  0  0  0  0  0  0
    9.8763    6.8644    0.1367 N   0  0  0  0  0  0  0  0  0  0  0  0
    9.6636    7.9630    0.9411 C   0  0  0  0  0  0  0  0  0  0  0  0
    8.6704    8.1983    1.6146 O   0  0  0  0  0  0  0  0  0  0  0  0
   10.8000    8.9413    0.9620 C   0  0  0  0  0  0  0  0  0  0  0  0
   10.6177   10.0717    0.0055 C   0  0  0  0  0  0  0  0  0  0  0  0
   11.0073    9.9018   -1.1420 O   0  0  0  0  0  0  0  0  0  0  0  0
   10.0384   11.2128    0.5341 N   0  0  0  0  0  0  0  0  0  0  0  0
    9.7980   12.3974   -0.2023 C   0  0  0  0  0  0  0  0  0  0  0  0
    9.7169   12.3600   -1.5996 C   0  0  0  0  0  0  0  0  0  0  0  0
    9.7163   13.5224   -2.3561 C   0  0  0  0  0  0  0  0  0  0  0  0
    9.7610   13.5659   -3.7144 O   0  0  0  0  0  0  0  0  0  0  0  0
   10.5129   12.5665   -4.4060 C   0  0  0  0  0  0  0  0  0  0  0  0
   11.1629   11.6920   -3.6156 F   0  0  0  0  0  0  0  0  0  0  0  0
    9.6847   11.8807   -5.2237 F   0  0  0  0  0  0  0  0  0  0  0  0
   11.4413   13.1855   -5.1717 F   0  0  0  0  0  0  0  0  0  0  0  0
    9.6195   14.7538   -1.7046 C   0  0  0  0  0  0  0  0  0  0  0  0
    9.5736   14.8119   -0.3045 C   0  0  0  0  0  0  0  0  0  0  0  0
    9.6674   13.6385    0.4444 C   0  0  0  0  0  0  0  0  0  0  0  0
    9.6760   13.7791    2.3370 Br  0  0  0  0  0  0  0  0  0  0  0  0
   12.2307    8.4164    1.1377 C   0  0  0  0  0  0  0  0  0  0  0  0
   11.5780    9.1673    2.2532 C   0  0  0  0  0  0  0  0  0  0  0  0
    9.3935    4.5431   -0.2126 C   0  0  0  0  0  0  0  0  0  0  0  0
    8.4978    3.5006   -0.4759 C   0  0  0  0  0  0  0  0  0  0  0  0
    6.3726    1.3298   -0.5961 C   0  0  0  0  0  0  0  0  0  0  0  0
    5.6053    0.2490   -1.0310 C   0  0  0  0  0  0  0  0  0  0  0  0
    5.8331   -0.9805   -0.5464 N   0  0  0  0  0  0  0  0  0  0  0  0
    4.4880   -3.8038   -0.6210 H   0  0  0  0  0  0  0  0  0  0  0  0
    5.7293   -3.1730    0.3985 H   0  0  0  0  0  0  0  0  0  0  0  0
    3.1237   -0.5427   -3.1486 H   0  0  0  0  0  0  0  0  0  0  0  0
    3.6360    1.9766   -3.2329 H   0  0  0  0  0  0  0  0  0  0  0  0
    5.0386    3.8310   -2.4787 H   0  0  0  0  0  0  0  0  0  0  0  0
    5.6483    5.3307   -0.7629 H   0  0  0  0  0  0  0  0  0  0  0  0
    7.2025    7.1381   -0.2490 H   0  0  0  0  0  0  0  0  0  0  0  0
   10.8134    6.7077   -0.2117 H   0  0  0  0  0  0  0  0  0  0  0  0
    9.9220   11.2642    1.5380 H   0  0  0  0  0  0  0  0  0  0  0  0
    9.6411   11.4012   -2.0995 H   0  0  0  0  0  0  0  0  0  0  0  0
    9.5889   15.6768   -2.2765 H   0  0  0  0  0  0  0  0  0  0  0  0
    9.4989   15.7813    0.1839 H   0  0  0  0  0  0  0  0  0  0  0  0
   13.0205    8.9102    0.5779 H   0  0  0  0  0  0  0  0  0  0  0  0
   12.4033    7.3570    1.2831 H   0  0  0  0  0  0  0  0  0  0  0  0
   11.9687   10.1548    2.4729 H   0  0  0  0  0  0  0  0  0  0  0  0
   11.2912    8.6050    3.1352 H   0  0  0  0  0  0  0  0  0  0  0  0
   10.4414    4.3072   -0.0492 H   0  0  0  0  0  0  0  0  0  0  0  0
    8.8978    2.4903   -0.5279 H   0  0  0  0  0  0  0  0  0  0  0  0
    7.1319    1.1233    0.1565 H   0  0  0  0  0  0  0  0  0  0  0  0
  1  2  1  0  0  0  0
  1 39  1  0  0  0  0
  1 40  1  0  0  0  0
  2  3  1  0  0  0  0
  2 38  2  0  0  0  0
  3  4  2  0  0  0  0
  4  5  1  0  0  0  0
  4 41  1  0  0  0  0
  5  6  1  0  0  0  0
  5 37  2  0  0  0  0
  6  7  2  0  0  0  0
  6 42  1  0  0  0  0
  7  8  1  0  0  0  0
  7 43  1  0  0  0  0
  8  9  1  0  0  0  0
  8 36  2  0  0  0  0
  9 10  1  0  0  0  0
  9 35  2  0  0  0  0
 10 11  2  0  0  0  0
 10 44  1  0  0  0  0
 11 12  1  0  0  0  0
 11 45  1  0  0  0  0
 12 13  1  0  0  0  0
 12 34  2  0  0  0  0
 13 14  1  0  0  0  0
 13 46  1  0  0  0  0
 14 15  2  0  0  0  0
 14 16  1  0  0  0  0
 16 17  1  0  0  0  0
 16 32  1  0  0  0  0
 16 33  1  0  0  0  0
 17 18  2  0  0  0  0
 17 19  1  0  0  0  0
 19 20  1  0  0  0  0
 19 47  1  0  0  0  0
 20 21  1  0  0  0  0
 20 30  2  0  0  0  0
 21 22  2  0  0  0  0
 21 48  1  0  0  0  0
 22 23  1  0  0  0  0
 22 28  1  0  0  0  0
 23 24  1  0  0  0  0
 24 25  1  0  0  0  0
 24 26  1  0  0  0  0
 24 27  1  0  0  0  0
 28 29  2  0  0  0  0
 28 49  1  0  0  0  0
 29 30  1  0  0  0  0
 29 50  1  0  0  0  0
 30 31  1  0  0  0  0
 32 33  1  0  0  0  0
 32 51  1  0  0  0  0
 32 52  1  0  0  0  0
 33 53  1  0  0  0  0
 33 54  1  0  0  0  0
 34 35  1  0  0  0  0
 34 55  1  0  0  0  0
 35 56  1  0  0  0  0
 36 37  1  0  0  0  0
 36 57  1  0  0  0  0
 37 38  1  0  0  0  0
M  END
$$$$
