CHEMBL3648075
 OpenBabel04072215373D

 69 71  0  0  1  0  0  0  0  0999 V2000
    0.6500   -1.8879   -1.8283 C   0  0  0  0  0  0  0  0  0  0  0  0
    2.1205   -2.2181   -2.1755 C   0  0  2  0  0  0  0  0  0  0  0  0
    2.1130   -3.1940   -3.3744 C   0  0  0  0  0  0  0  0  0  0  0  0
    1.5091   -4.4442   -3.0067 O   0  0  0  0  0  0  0  0  0  0  0  0
    2.7938   -2.8624   -1.0176 N   0  0  0  0  0  0  0  0  0  0  0  0
    4.1755   -3.1644   -1.2297 C   0  0  0  0  0  0  0  0  0  0  0  0
    4.9075   -2.3698   -2.0488 N   0  0  0  0  0  0  0  0  0  0  0  0
    6.1917   -2.7062   -2.2650 C   0  0  0  0  0  0  0  0  0  0  0  0
    6.9296   -2.0664   -3.2565 N   0  0  0  0  0  0  0  0  0  0  0  0
    8.2284   -2.3924   -3.6908 C   0  0  0  0  0  0  0  0  0  0  0  0
    8.7608   -3.6968   -3.5732 C   0  0  0  0  0  0  0  0  0  0  0  0
   10.1141   -3.9902   -3.7997 C   0  0  0  0  0  0  0  0  0  0  0  0
   10.9504   -2.9730   -4.2128 C   0  0  0  0  0  0  0  0  0  0  0  0
   12.6736   -3.2412   -4.4363 S   0  0  3  0  0  0  0  0  0  0  0  0
   12.8822   -3.5317   -5.8360 O   0  0  0  0  0  0  0  0  0  0  0  0
   13.5825   -1.8021   -3.9098 C   0  0  0  0  0  0  0  0  0  0  0  0
   13.3481   -1.6113   -2.4266 C   0  0  0  0  0  0  0  0  0  0  0  0
   12.0321   -1.3124   -1.7905 C   0  0  0  0  0  0  0  0  0  0  0  0
   13.0530   -0.2321   -1.9218 C   0  0  0  0  0  0  0  0  0  0  0  0
   13.2317   -4.4554   -3.4219 N   0  0  0  0  0  0  0  0  0  0  0  0
   14.8629   -4.9715   -3.5036 S   0  0  0  0  0  0  0  0  0  0  0  0
   14.9226   -6.3532   -3.0197 O   0  0  0  0  0  0  0  0  0  0  0  0
   15.4609   -4.5962   -4.7451 O   0  0  0  0  0  0  0  0  0  0  0  0
   15.6426   -3.9624   -2.2373 C   0  0  0  0  0  0  0  0  0  0  0  0
   17.1404   -4.2231   -2.1194 C   0  0  0  0  0  0  0  0  0  0  0  0
   18.0583   -3.1512   -0.8386 Si  0  0  0  0  0  0  0  0  0  0  0  0
   17.8783   -1.3354   -1.2733 C   0  0  0  0  0  0  0  0  0  0  0  0
   17.3424   -3.4766    0.8620 C   0  0  0  0  0  0  0  0  0  0  0  0
   19.8790   -3.6084   -0.8456 C   0  0  0  0  0  0  0  0  0  0  0  0
   10.4175   -1.6902   -4.4498 C   0  0  0  0  0  0  0  0  0  0  0  0
    9.0808   -1.3930   -4.1438 C   0  0  0  0  0  0  0  0  0  0  0  0
    6.8121   -3.6779   -1.5802 N   0  0  0  0  0  0  0  0  0  0  0  0
    6.0894   -4.4531   -0.7817 C   0  0  0  0  0  0  0  0  0  0  0  0
    4.7499   -4.2651   -0.5808 C   0  0  0  0  0  0  0  0  0  0  0  0
    3.7963   -5.6003    0.3452 Br  0  0  0  0  0  0  0  0  0  0  0  0
    0.5717   -1.0283   -1.1566 H   0  0  0  0  0  0  0  0  0  0  0  0
    0.1414   -2.7256   -1.3427 H   0  0  0  0  0  0  0  0  0  0  0  0
    0.0884   -1.6445   -2.7363 H   0  0  0  0  0  0  0  0  0  0  0  0
    2.6129   -1.2742   -2.4517 H   0  0  0  0  0  0  0  0  0  0  0  0
    1.5612   -2.7720   -4.2223 H   0  0  0  0  0  0  0  0  0  0  0  0
    3.1275   -3.4086   -3.7181 H   0  0  0  0  0  0  0  0  0  0  0  0
    0.6548   -4.2581   -2.5893 H   0  0  0  0  0  0  0  0  0  0  0  0
    2.3385   -3.7554   -0.8238 H   0  0  0  0  0  0  0  0  0  0  0  0
    6.5144   -1.1893   -3.5377 H   0  0  0  0  0  0  0  0  0  0  0  0
    8.1196   -4.5249   -3.2819 H   0  0  0  0  0  0  0  0  0  0  0  0
   10.4671   -5.0055   -3.6426 H   0  0  0  0  0  0  0  0  0  0  0  0
   13.2593   -0.9487   -4.5023 H   0  0  0  0  0  0  0  0  0  0  0  0
   14.6372   -1.9604   -4.1534 H   0  0  0  0  0  0  0  0  0  0  0  0
   13.9434   -2.2537   -1.7949 H   0  0  0  0  0  0  0  0  0  0  0  0
   11.8366   -1.7723   -0.8280 H   0  0  0  0  0  0  0  0  0  0  0  0
   11.1373   -1.2064   -2.3572 H   0  0  0  0  0  0  0  0  0  0  0  0
   13.5128    0.1129   -1.0020 H   0  0  0  0  0  0  0  0  0  0  0  0
   12.8441    0.5588   -2.6401 H   0  0  0  0  0  0  0  0  0  0  0  0
   15.1160   -4.1402   -1.2920 H   0  0  0  0  0  0  0  0  0  0  0  0
   15.5445   -2.9299   -2.5434 H   0  0  0  0  0  0  0  0  0  0  0  0
   17.6071   -4.0349   -3.0923 H   0  0  0  0  0  0  0  0  0  0  0  0
   17.3126   -5.2731   -1.8731 H   0  0  0  0  0  0  0  0  0  0  0  0
   16.8262   -1.0363   -1.2828 H   0  0  0  0  0  0  0  0  0  0  0  0
   18.3017   -1.1312   -2.2616 H   0  0  0  0  0  0  0  0  0  0  0  0
   18.4034   -0.7092   -0.5443 H   0  0  0  0  0  0  0  0  0  0  0  0
   16.2797   -3.2203    0.8930 H   0  0  0  0  0  0  0  0  0  0  0  0
   17.8600   -2.8818    1.6207 H   0  0  0  0  0  0  0  0  0  0  0  0
   17.4483   -4.5329    1.1259 H   0  0  0  0  0  0  0  0  0  0  0  0
   20.3216   -3.4263   -1.8294 H   0  0  0  0  0  0  0  0  0  0  0  0
   20.0135   -4.6655   -0.5987 H   0  0  0  0  0  0  0  0  0  0  0  0
   20.4273   -3.0132   -0.1093 H   0  0  0  0  0  0  0  0  0  0  0  0
   11.0644   -0.8686   -4.7508 H   0  0  0  0  0  0  0  0  0  0  0  0
    8.7415   -0.3631   -4.2058 H   0  0  0  0  0  0  0  0  0  0  0  0
    6.6439   -5.2871   -0.3497 H   0  0  0  0  0  0  0  0  0  0  0  0
  1 36  1  0  0  0  0
  1 37  1  0  0  0  0
  1 38  1  0  0  0  0
  2  5  1  0  0  0  0
  2  3  1  0  0  0  0
  2  1  1  0  0  0  0
  2 39  1  6  0  0  0
  3  4  1  0  0  0  0
  3 40  1  0  0  0  0
  3 41  1  0  0  0  0
  4 42  1  0  0  0  0
  5  6  1  0  0  0  0
  5 43  1  0  0  0  0
  6  7  1  0  0  0  0
  6 34  2  0  0  0  0
  7  8  2  0  0  0  0
  8  9  1  0  0  0  0
  8 32  1  0  0  0  0
  9 10  1  0  0  0  0
  9 44  1  0  0  0  0
 10 11  1  0  0  0  0
 10 31  2  0  0  0  0
 11 12  2  0  0  0  0
 11 45  1  0  0  0  0
 12 13  1  0  0  0  0
 12 46  1  0  0  0  0
 13 14  1  0  0  0  0
 13 30  2  0  0  0  0
 14 15  2  0  0  0  0
 14 16  1  0  0  0  0
 14 20  2  0  0  0  0
 16 17  1  0  0  0  0
 16 47  1  0  0  0  0
 16 48  1  0  0  0  0
 17 18  1  0  0  0  0
 17 19  1  0  0  0  0
 17 49  1  0  0  0  0
 18 19  1  0  0  0  0
 18 50  1  0  0  0  0
 18 51  1  0  0  0  0
 19 52  1  0  0  0  0
 19 53  1  0  0  0  0
 20 21  1  0  0  0  0
 21 22  2  0  0  0  0
 21 23  2  0  0  0  0
 21 24  1  0  0  0  0
 24 25  1  0  0  0  0
 24 54  1  0  0  0  0
 24 55  1  0  0  0  0
 25 26  1  0  0  0  0
 25 56  1  0  0  0  0
 25 57  1  0  0  0  0
 26 27  1  0  0  0  0
 26 28  1  0  0  0  0
 26 29  1  0  0  0  0
 27 58  1  0  0  0  0
 27 59  1  0  0  0  0
 27 60  1  0  0  0  0
 28 61  1  0  0  0  0
 28 62  1  0  0  0  0
 28 63  1  0  0  0  0
 29 64  1  0  0  0  0
 29 65  1  0  0  0  0
 29 66  1  0  0  0  0
 30 31  1  0  0  0  0
 30 67  1  0  0  0  0
 31 68  1  0  0  0  0
 32 33  2  0  0  0  0
 33 34  1  0  0  0  0
 33 69  1  0  0  0  0
 34 35  1  0  0  0  0
M  END
$$$$
