CHEMBL220890
 OpenBabel04072215363D

 41 43  0  0  0  0  0  0  0  0999 V2000
    4.2182   -0.7376    4.4703 C   0  0  0  0  0  0  0  0  0  0  0  0
    5.1885   -0.7037    3.3487 C   0  0  0  0  0  0  0  0  0  0  0  0
    5.7514   -1.7204    2.6037 C   0  0  0  0  0  0  0  0  0  0  0  0
    6.4556   -1.1298    1.5158 C   0  0  0  0  0  0  0  0  0  0  0  0
    7.1233   -1.6293    0.3779 C   0  0  0  0  0  0  0  0  0  0  0  0
    7.2117   -2.9555    0.1840 F   0  0  0  0  0  0  0  0  0  0  0  0
    7.6496   -0.7479   -0.5761 C   0  0  0  0  0  0  0  0  0  0  0  0
    8.1801   -1.3099   -1.7243 O   0  0  0  0  0  0  0  0  0  0  0  0
    9.2850   -0.7044   -2.3192 C   0  0  0  0  0  0  0  0  0  0  0  0
   10.0693    0.0805   -1.5462 N   0  0  0  0  0  0  0  0  0  0  0  0
   11.1070    0.6531   -2.1557 C   0  0  0  0  0  0  0  0  0  0  0  0
   11.4403    0.5047   -3.4390 N   0  0  0  0  0  0  0  0  0  0  0  0
   10.6717   -0.3178   -4.1710 C   0  0  0  0  0  0  0  0  0  0  0  0
   11.0214   -0.3683   -5.5201 N   0  0  0  0  0  0  0  0  0  0  0  0
    9.5610   -0.9699   -3.6481 C   0  0  0  0  0  0  0  0  0  0  0  0
    8.7491   -1.8982   -4.4538 C   0  0  0  0  0  0  0  0  0  0  0  0
    9.2694   -2.5591   -5.4384 N   0  0  0  0  0  0  0  0  0  0  0  0
    8.3006   -3.3625   -6.0564 O   0  0  0  0  0  0  0  0  0  0  0  0
    8.9290   -4.0536   -7.1454 C   0  0  0  0  0  0  0  0  0  0  0  0
    7.9003   -4.9274   -7.8521 C   0  0  0  0  0  0  0  0  0  0  0  0
    6.8555   -4.1375   -8.4161 O   0  0  0  0  0  0  0  0  0  0  0  0
    7.5155    0.6330   -0.3848 C   0  0  0  0  0  0  0  0  0  0  0  0
    6.9077    1.1578    0.7628 C   0  0  0  0  0  0  0  0  0  0  0  0
    6.3691    0.2531    1.6825 C   0  0  0  0  0  0  0  0  0  0  0  0
    5.6640    0.4815    2.8427 N   0  0  0  0  0  0  0  0  0  0  0  0
    3.9198   -1.7649    4.7009 H   0  0  0  0  0  0  0  0  0  0  0  0
    3.3116   -0.1840    4.1952 H   0  0  0  0  0  0  0  0  0  0  0  0
    4.6366   -0.2858    5.3734 H   0  0  0  0  0  0  0  0  0  0  0  0
    5.6004   -2.7806    2.7637 H   0  0  0  0  0  0  0  0  0  0  0  0
   11.7301    1.3118   -1.5573 H   0  0  0  0  0  0  0  0  0  0  0  0
   11.9084    0.1052   -5.6515 H   0  0  0  0  0  0  0  0  0  0  0  0
   11.0017   -1.3250   -5.8735 H   0  0  0  0  0  0  0  0  0  0  0  0
    7.6850   -2.0223   -4.1825 H   0  0  0  0  0  0  0  0  0  0  0  0
    9.7386   -4.6794   -6.7529 H   0  0  0  0  0  0  0  0  0  0  0  0
    9.3415   -3.3157   -7.8439 H   0  0  0  0  0  0  0  0  0  0  0  0
    7.4428   -5.6367   -7.1558 H   0  0  0  0  0  0  0  0  0  0  0  0
    8.3723   -5.4872   -8.6652 H   0  0  0  0  0  0  0  0  0  0  0  0
    6.4936   -3.6017   -7.6865 H   0  0  0  0  0  0  0  0  0  0  0  0
    7.8885    1.3327   -1.1278 H   0  0  0  0  0  0  0  0  0  0  0  0
    6.8276    2.2308    0.9053 H   0  0  0  0  0  0  0  0  0  0  0  0
    5.4486    1.3985    3.2097 H   0  0  0  0  0  0  0  0  0  0  0  0
  1  2  1  0  0  0  0
  1 26  1  0  0  0  0
  1 27  1  0  0  0  0
  1 28  1  0  0  0  0
  2  3  2  0  0  0  0
  2 25  1  0  0  0  0
  3  4  1  0  0  0  0
  3 29  1  0  0  0  0
  4  5  1  0  0  0  0
  4 24  2  0  0  0  0
  5  6  1  0  0  0  0
  5  7  2  0  0  0  0
  7  8  1  0  0  0  0
  7 22  1  0  0  0  0
  8  9  1  0  0  0  0
  9 10  1  0  0  0  0
  9 15  2  0  0  0  0
 10 11  2  0  0  0  0
 11 12  1  0  0  0  0
 11 30  1  0  0  0  0
 12 13  2  0  0  0  0
 13 14  1  0  0  0  0
 13 15  1  0  0  0  0
 14 31  1  0  0  0  0
 14 32  1  0  0  0  0
 15 16  1  0  0  0  0
 16 17  2  0  0  0  0
 16 33  1  0  0  0  0
 17 18  1  0  0  0  0
 18 19  1  0  0  0  0
 19 20  1  0  0  0  0
 19 34  1  0  0  0  0
 19 35  1  0  0  0  0
 20 21  1  0  0  0  0
 20 36  1  0  0  0  0
 20 37  1  0  0  0  0
 21 38  1  0  0  0  0
 22 23  2  0  0  0  0
 22 39  1  0  0  0  0
 23 24  1  0  0  0  0
 23 40  1  0  0  0  0
 24 25  1  0  0  0  0
 25 41  1  0  0  0  0
M  END
$$$$
