CHEMBL1975128
 OpenBabel04072215363D

 36 39  0  0  0  0  0  0  0  0999 V2000
    1.9364    1.0764   -1.5692 N   0  0  0  0  0  0  0  0  0  0  0  0
    1.1745    0.1631   -0.9553 C   0  0  0  0  0  0  0  0  0  0  0  0
    1.5923   -1.0836   -0.7451 N   0  0  0  0  0  0  0  0  0  0  0  0
    0.5595   -1.6634   -0.1184 N   0  0  0  0  0  0  0  0  0  0  0  0
   -0.5161   -0.8389    0.0753 C   0  0  0  0  0  0  0  0  0  0  0  0
   -1.7597   -1.0665    0.6608 C   0  0  0  0  0  0  0  0  0  0  0  0
   -2.6663    0.0025    0.6665 C   0  0  0  0  0  0  0  0  0  0  0  0
   -2.3468    1.2642    0.1502 C   0  0  0  0  0  0  0  0  0  0  0  0
   -3.3112    2.3638    0.1244 C   0  0  0  0  0  0  0  0  0  0  0  0
   -3.2656    3.3139   -0.8750 N   0  0  0  0  0  0  0  0  0  0  0  0
   -4.2455    4.1841   -0.6860 N   0  0  0  0  0  0  0  0  0  0  0  0
   -4.9325    3.7935    0.4067 N   0  0  0  0  0  0  0  0  0  0  0  0
   -6.0490    4.6052    0.8700 C   0  0  0  0  0  0  0  0  0  0  0  0
   -7.3792    4.1464    0.3167 C   0  0  0  0  0  0  0  0  0  0  0  0
   -8.3985    3.7098    1.1766 C   0  0  0  0  0  0  0  0  0  0  0  0
   -9.6350    3.3006    0.6679 C   0  0  0  0  0  0  0  0  0  0  0  0
   -9.8708    3.3311   -0.7053 C   0  0  0  0  0  0  0  0  0  0  0  0
   -8.8745    3.7799   -1.5690 C   0  0  0  0  0  0  0  0  0  0  0  0
   -7.6387    4.1886   -1.0629 C   0  0  0  0  0  0  0  0  0  0  0  0
   -4.3522    2.6892    0.9816 C   0  0  0  0  0  0  0  0  0  0  0  0
   -4.9218    1.8351    2.7595 I   0  0  0  0  0  0  0  0  0  0  0  0
   -1.0719    1.4513   -0.4345 C   0  0  0  0  0  0  0  0  0  0  0  0
   -0.1466    0.3821   -0.4724 C   0  0  0  0  0  0  0  0  0  0  0  0
    2.7616    0.7306   -2.0525 H   0  0  0  0  0  0  0  0  0  0  0  0
    1.5139    1.8904   -2.0026 H   0  0  0  0  0  0  0  0  0  0  0  0
    0.6450   -2.6371    0.1460 H   0  0  0  0  0  0  0  0  0  0  0  0
   -2.0333   -2.0304    1.0760 H   0  0  0  0  0  0  0  0  0  0  0  0
   -3.6545   -0.2012    1.0653 H   0  0  0  0  0  0  0  0  0  0  0  0
   -5.8591    5.6449    0.5789 H   0  0  0  0  0  0  0  0  0  0  0  0
   -6.0485    4.5865    1.9647 H   0  0  0  0  0  0  0  0  0  0  0  0
   -8.2472    3.6877    2.2539 H   0  0  0  0  0  0  0  0  0  0  0  0
  -10.4159    2.9604    1.3431 H   0  0  0  0  0  0  0  0  0  0  0  0
  -10.8308    3.0114   -1.1007 H   0  0  0  0  0  0  0  0  0  0  0  0
   -9.0595    3.8131   -2.6402 H   0  0  0  0  0  0  0  0  0  0  0  0
   -6.8786    4.5424   -1.7578 H   0  0  0  0  0  0  0  0  0  0  0  0
   -0.7970    2.4073   -0.8711 H   0  0  0  0  0  0  0  0  0  0  0  0
  1  2  1  0  0  0  0
  1 24  1  0  0  0  0
  1 25  1  0  0  0  0
  2  3  2  0  0  0  0
  2 23  1  0  0  0  0
  3  4  1  0  0  0  0
  4  5  1  0  0  0  0
  4 26  1  0  0  0  0
  5  6  1  0  0  0  0
  5 23  2  0  0  0  0
  6  7  2  0  0  0  0
  6 27  1  0  0  0  0
  7  8  1  0  0  0  0
  7 28  1  0  0  0  0
  8  9  1  0  0  0  0
  8 22  2  0  0  0  0
  9 10  1  0  0  0  0
  9 20  2  0  0  0  0
 10 11  2  0  0  0  0
 11 12  1  0  0  0  0
 12 13  1  0  0  0  0
 12 20  1  0  0  0  0
 13 14  1  0  0  0  0
 13 29  1  0  0  0  0
 13 30  1  0  0  0  0
 14 15  1  0  0  0  0
 14 19  2  0  0  0  0
 15 16  2  0  0  0  0
 15 31  1  0  0  0  0
 16 17  1  0  0  0  0
 16 32  1  0  0  0  0
 17 18  2  0  0  0  0
 17 33  1  0  0  0  0
 18 19  1  0  0  0  0
 18 34  1  0  0  0  0
 19 35  1  0  0  0  0
 20 21  1  0  0  0  0
 22 23  1  0  0  0  0
 22 36  1  0  0  0  0
M  END
$$$$
