CHEMBL257802
 OpenBabel04072215363D

 46 49  0  0  0  0  0  0  0  0999 V2000
    4.9962    3.9796    5.6792 O   0  0  0  0  0  0  0  0  0  0  0  0
    4.3588    3.0258    5.2189 C   0  0  0  0  0  0  0  0  0  0  0  0
    3.0974    2.5329    5.8826 C   0  0  0  0  0  0  0  0  0  0  0  0
    1.8268    3.1356    5.3307 C   0  0  0  0  0  0  0  0  0  0  0  0
    0.6556    2.3636    5.3199 C   0  0  0  0  0  0  0  0  0  0  0  0
   -0.5424    2.8930    4.8432 C   0  0  0  0  0  0  0  0  0  0  0  0
   -0.5891    4.2079    4.3827 C   0  0  0  0  0  0  0  0  0  0  0  0
    0.5607    4.9934    4.4047 C   0  0  0  0  0  0  0  0  0  0  0  0
    1.7616    4.4640    4.8825 C   0  0  0  0  0  0  0  0  0  0  0  0
    4.8363    2.4463    4.0569 N   0  0  0  0  0  0  0  0  0  0  0  0
    4.4272    1.5068    3.1075 C   0  0  0  0  0  0  0  0  0  0  0  0
    3.0061    0.6490    3.0329 S   0  0  0  0  0  0  0  0  0  0  0  0
    5.3113    1.3607    2.0590 N   0  0  0  0  0  0  0  0  0  0  0  0
    6.7154    1.4343    2.0976 C   0  0  0  0  0  0  0  0  0  0  0  0
    7.3932    1.6636    0.8996 C   0  0  0  0  0  0  0  0  0  0  0  0
    8.7877    1.7494    0.8905 C   0  0  0  0  0  0  0  0  0  0  0  0
    9.5067    1.6302    2.0849 C   0  0  0  0  0  0  0  0  0  0  0  0
   10.8732    1.7391    2.1818 O   0  0  0  0  0  0  0  0  0  0  0  0
   11.5471    2.6113    1.3515 C   0  0  0  0  0  0  0  0  0  0  0  0
   11.0306    3.8430    0.9470 C   0  0  0  0  0  0  0  0  0  0  0  0
   11.7672    4.6186    0.0740 C   0  0  0  0  0  0  0  0  0  0  0  0
   12.9940    4.3177   -0.3847 N   0  0  0  0  0  0  0  0  0  0  0  0
   13.5362    3.1645    0.0936 C   0  0  0  0  0  0  0  0  0  0  0  0
   14.8480    2.6971   -0.2085 C   0  0  0  0  0  0  0  0  0  0  0  0
   15.1444    1.5125    0.4255 C   0  0  0  0  0  0  0  0  0  0  0  0
   13.8314    0.9394    1.3553 S   0  0  0  0  0  0  0  0  0  0  0  0
   12.8550    2.2993    0.9489 C   0  0  0  0  0  0  0  0  0  0  0  0
    8.8242    1.3223    3.2590 C   0  0  0  0  0  0  0  0  0  0  0  0
    9.4957    1.1165    4.4010 F   0  0  0  0  0  0  0  0  0  0  0  0
    7.4386    1.2254    3.2749 C   0  0  0  0  0  0  0  0  0  0  0  0
    3.1633    2.7962    6.9465 H   0  0  0  0  0  0  0  0  0  0  0  0
    3.0816    1.4390    5.8505 H   0  0  0  0  0  0  0  0  0  0  0  0
    0.6749    1.3333    5.6698 H   0  0  0  0  0  0  0  0  0  0  0  0
   -1.4379    2.2778    4.8276 H   0  0  0  0  0  0  0  0  0  0  0  0
   -1.5258    4.6215    4.0136 H   0  0  0  0  0  0  0  0  0  0  0  0
    0.5232    6.0218    4.0540 H   0  0  0  0  0  0  0  0  0  0  0  0
    2.6408    5.1059    4.8999 H   0  0  0  0  0  0  0  0  0  0  0  0
    5.6551    2.9646    3.7671 H   0  0  0  0  0  0  0  0  0  0  0  0
    4.8923    1.0324    1.1927 H   0  0  0  0  0  0  0  0  0  0  0  0
    6.8489    1.8171   -0.0299 H   0  0  0  0  0  0  0  0  0  0  0  0
    9.2955    1.9252   -0.0543 H   0  0  0  0  0  0  0  0  0  0  0  0
   10.0607    4.1946    1.2815 H   0  0  0  0  0  0  0  0  0  0  0  0
   11.3598    5.5549   -0.2999 H   0  0  0  0  0  0  0  0  0  0  0  0
   15.5390    3.2238   -0.8527 H   0  0  0  0  0  0  0  0  0  0  0  0
   16.0684    0.9526    0.3830 H   0  0  0  0  0  0  0  0  0  0  0  0
    6.9590    0.9450    4.2078 H   0  0  0  0  0  0  0  0  0  0  0  0
  1  2  2  0  0  0  0
  2  3  1  0  0  0  0
  2 10  1  0  0  0  0
  3  4  1  0  0  0  0
  3 31  1  0  0  0  0
  3 32  1  0  0  0  0
  4  5  1  0  0  0  0
  4  9  2  0  0  0  0
  5  6  2  0  0  0  0
  5 33  1  0  0  0  0
  6  7  1  0  0  0  0
  6 34  1  0  0  0  0
  7  8  2  0  0  0  0
  7 35  1  0  0  0  0
  8  9  1  0  0  0  0
  8 36  1  0  0  0  0
  9 37  1  0  0  0  0
 10 11  1  0  0  0  0
 10 38  1  0  0  0  0
 11 12  2  0  0  0  0
 11 13  1  0  0  0  0
 13 14  1  0  0  0  0
 13 39  1  0  0  0  0
 14 15  1  0  0  0  0
 14 30  2  0  0  0  0
 15 16  2  0  0  0  0
 15 40  1  0  0  0  0
 16 17  1  0  0  0  0
 16 41  1  0  0  0  0
 17 18  1  0  0  0  0
 17 28  2  0  0  0  0
 18 19  1  0  0  0  0
 19 20  1  0  0  0  0
 19 27  2  0  0  0  0
 20 21  2  0  0  0  0
 20 42  1  0  0  0  0
 21 22  1  0  0  0  0
 21 43  1  0  0  0  0
 22 23  2  0  0  0  0
 23 24  1  0  0  0  0
 23 27  1  0  0  0  0
 24 25  2  0  0  0  0
 24 44  1  0  0  0  0
 25 26  1  0  0  0  0
 25 45  1  0  0  0  0
 26 27  1  0  0  0  0
 28 29  1  0  0  0  0
 28 30  1  0  0  0  0
 30 46  1  0  0  0  0
M  END
$$$$
