CHEMBL4290345
 OpenBabel04072215383D

 37 40  0  0  0  0  0  0  0  0999 V2000
    2.9060    2.1240    0.1443 C   0  0  0  0  0  0  0  0  0  0  0  0
    2.9765    0.3194   -0.0001 S   0  0  0  0  0  0  0  0  0  0  0  0
    3.4895    0.1798   -1.6919 C   0  0  0  0  0  0  0  0  0  0  0  0
    3.0827   -0.9047   -2.3673 N   0  0  0  0  0  0  0  0  0  0  0  0
    3.4565   -0.9784   -3.6612 C   0  0  0  0  0  0  0  0  0  0  0  0
    4.2166   -0.0186   -4.2996 C   0  0  0  0  0  0  0  0  0  0  0  0
    4.5481    1.0807   -3.5241 C   0  0  0  0  0  0  0  0  0  0  0  0
    4.2288    1.1674   -2.2160 N   0  0  0  0  0  0  0  0  0  0  0  0
    5.1404    2.2339   -4.0607 N   0  0  0  0  0  0  0  0  0  0  0  0
    4.6259    2.7752   -5.1856 C   0  0  0  0  0  0  0  0  0  0  0  0
    4.2802    4.0568   -5.3115 N   0  0  0  0  0  0  0  0  0  0  0  0
    3.6837    4.1107   -6.5163 N   0  0  0  0  0  0  0  0  0  0  0  0
    3.6495    2.9128   -7.1768 C   0  0  0  0  0  0  0  0  0  0  0  0
    3.0407    2.7449   -8.5118 C   0  0  0  0  0  0  0  0  0  0  0  0
    4.2764    2.0332   -6.3364 C   0  0  0  0  0  0  0  0  0  0  0  0
    4.5837    0.7124   -6.6617 N   0  0  0  0  0  0  0  0  0  0  0  0
    4.6198   -0.1914   -5.7246 C   0  0  0  0  0  0  0  0  0  0  0  0
    5.1353   -1.5440   -6.1584 C   0  0  0  0  0  0  0  0  0  0  0  0
    5.8458   -2.3784   -5.2823 C   0  0  0  0  0  0  0  0  0  0  0  0
    6.3760   -3.5904   -5.7390 C   0  0  0  0  0  0  0  0  0  0  0  0
    6.2142   -3.9641   -7.0721 C   0  0  0  0  0  0  0  0  0  0  0  0
    6.8960   -5.4392   -7.6354 Cl  0  0  0  0  0  0  0  0  0  0  0  0
    5.5193   -3.1406   -7.9540 C   0  0  0  0  0  0  0  0  0  0  0  0
    4.9830   -1.9325   -7.4987 C   0  0  0  0  0  0  0  0  0  0  0  0
    2.5347    2.3892    1.1381 H   0  0  0  0  0  0  0  0  0  0  0  0
    2.2253    2.5474   -0.6003 H   0  0  0  0  0  0  0  0  0  0  0  0
    3.8990    2.5667    0.0243 H   0  0  0  0  0  0  0  0  0  0  0  0
    3.0950   -1.8624   -4.1802 H   0  0  0  0  0  0  0  0  0  0  0  0
    5.2409    2.9021   -3.3030 H   0  0  0  0  0  0  0  0  0  0  0  0
    3.3134    5.0039   -6.8253 H   0  0  0  0  0  0  0  0  0  0  0  0
    2.5456    3.6621   -8.8466 H   0  0  0  0  0  0  0  0  0  0  0  0
    2.2889    1.9492   -8.4872 H   0  0  0  0  0  0  0  0  0  0  0  0
    3.8014    2.4772   -9.2511 H   0  0  0  0  0  0  0  0  0  0  0  0
    6.0310   -2.0949   -4.2494 H   0  0  0  0  0  0  0  0  0  0  0  0
    6.9318   -4.2276   -5.0550 H   0  0  0  0  0  0  0  0  0  0  0  0
    5.4051   -3.4210   -8.9980 H   0  0  0  0  0  0  0  0  0  0  0  0
    4.4632   -1.2858   -8.2034 H   0  0  0  0  0  0  0  0  0  0  0  0
  1  2  1  0  0  0  0
  1 25  1  0  0  0  0
  1 26  1  0  0  0  0
  1 27  1  0  0  0  0
  2  3  1  0  0  0  0
  3  4  1  0  0  0  0
  3  8  2  0  0  0  0
  4  5  2  0  0  0  0
  5  6  1  0  0  0  0
  5 28  1  0  0  0  0
  6  7  2  0  0  0  0
  6 17  1  0  0  0  0
  7  8  1  0  0  0  0
  7  9  1  0  0  0  0
  9 10  1  0  0  0  0
  9 29  1  0  0  0  0
 10 11  2  0  0  0  0
 10 15  1  0  0  0  0
 11 12  1  0  0  0  0
 12 13  1  0  0  0  0
 12 30  1  0  0  0  0
 13 14  1  0  0  0  0
 13 15  2  0  0  0  0
 14 31  1  0  0  0  0
 14 32  1  0  0  0  0
 14 33  1  0  0  0  0
 15 16  1  0  0  0  0
 16 17  2  0  0  0  0
 17 18  1  0  0  0  0
 18 19  1  0  0  0  0
 18 24  2  0  0  0  0
 19 20  2  0  0  0  0
 19 34  1  0  0  0  0
 20 21  1  0  0  0  0
 20 35  1  0  0  0  0
 21 22  1  0  0  0  0
 21 23  2  0  0  0  0
 23 24  1  0  0  0  0
 23 36  1  0  0  0  0
 24 37  1  0  0  0  0
M  END
$$$$
