CHEMBL3891951
 OpenBabel04072215373D

 51 55  0  0  0  0  0  0  0  0999 V2000
    1.3543   -0.1558    0.1360 O   0  0  0  0  0  0  0  0  0  0  0  0
    2.5933   -0.2002    0.1206 C   0  0  0  0  0  0  0  0  0  0  0  0
    3.3082    0.5205    1.1985 C   0  0  0  0  0  0  0  0  0  0  0  0
    2.5956    0.8004    2.3737 C   0  0  0  0  0  0  0  0  0  0  0  0
    3.2105    1.4736    3.4226 C   0  0  0  0  0  0  0  0  0  0  0  0
    4.5464    1.8543    3.3111 C   0  0  0  0  0  0  0  0  0  0  0  0
    5.2726    1.5977    2.1436 C   0  0  0  0  0  0  0  0  0  0  0  0
    6.6428    1.9102    1.9933 N   0  0  0  0  0  0  0  0  0  0  0  0
    7.4785    2.4267    2.9618 C   0  0  0  0  0  0  0  0  0  0  0  0
    7.1633    2.7760    4.0900 O   0  0  0  0  0  0  0  0  0  0  0  0
    8.9194    2.5632    2.5944 C   0  0  0  0  0  0  0  0  0  0  0  0
    9.3179    3.5601    1.5323 C   0  0  0  0  0  0  0  0  0  0  0  0
    9.5893    2.0971    1.3278 C   0  0  0  0  0  0  0  0  0  0  0  0
    4.6290    0.9646    1.0687 C   0  0  0  0  0  0  0  0  0  0  0  0
    3.2487   -0.9881   -0.9628 C   0  0  0  0  0  0  0  0  0  0  0  0
    2.4907   -1.1080   -2.1344 C   0  0  0  0  0  0  0  0  0  0  0  0
    2.8751   -1.9532   -3.1698 C   0  0  0  0  0  0  0  0  0  0  0  0
    4.0808   -2.6328   -3.0160 C   0  0  0  0  0  0  0  0  0  0  0  0
    4.6422   -3.6172   -3.7738 N   0  0  0  0  0  0  0  0  0  0  0  0
    5.9031   -3.8981   -3.4523 N   0  0  0  0  0  0  0  0  0  0  0  0
    6.0815   -3.2788   -2.2724 C   0  0  0  0  0  0  0  0  0  0  0  0
    7.2510   -3.5215   -1.4853 C   0  0  0  0  0  0  0  0  0  0  0  0
    8.3635   -4.1345   -1.9449 C   0  0  0  0  0  0  0  0  0  0  0  0
    9.3580   -4.6779   -1.0149 C   0  0  0  0  0  0  0  0  0  0  0  0
   10.7146   -4.7550   -1.3085 C   0  0  0  0  0  0  0  0  0  0  0  0
   11.5646   -5.3425   -0.3671 C   0  0  0  0  0  0  0  0  0  0  0  0
   11.0343   -5.8610    0.8106 C   0  0  0  0  0  0  0  0  0  0  0  0
    9.6708   -5.7648    1.0084 C   0  0  0  0  0  0  0  0  0  0  0  0
    8.8342   -5.1747    0.1348 N   0  0  0  0  0  0  0  0  0  0  0  0
    4.9355   -2.4759   -1.9263 C   0  0  0  0  0  0  0  0  0  0  0  0
    4.4851   -1.6708   -0.8428 C   0  0  0  0  0  0  0  0  0  0  0  0
    1.5539    0.4987    2.4762 H   0  0  0  0  0  0  0  0  0  0  0  0
    2.6572    1.6932    4.3325 H   0  0  0  0  0  0  0  0  0  0  0  0
    4.9889    2.3602    4.1634 H   0  0  0  0  0  0  0  0  0  0  0  0
    7.0616    1.6828    1.1024 H   0  0  0  0  0  0  0  0  0  0  0  0
    9.5534    2.5279    3.4789 H   0  0  0  0  0  0  0  0  0  0  0  0
   10.1448    4.2203    1.7672 H   0  0  0  0  0  0  0  0  0  0  0  0
    8.5391    4.0241    0.9375 H   0  0  0  0  0  0  0  0  0  0  0  0
   10.6203    1.7622    1.4088 H   0  0  0  0  0  0  0  0  0  0  0  0
    9.0383    1.5736    0.5595 H   0  0  0  0  0  0  0  0  0  0  0  0
    5.1599    0.8233    0.1329 H   0  0  0  0  0  0  0  0  0  0  0  0
    1.5483   -0.5667   -2.2298 H   0  0  0  0  0  0  0  0  0  0  0  0
    2.2447   -2.0885   -4.0412 H   0  0  0  0  0  0  0  0  0  0  0  0
    4.2015   -4.1569   -4.5076 H   0  0  0  0  0  0  0  0  0  0  0  0
    7.1833   -3.2978   -0.4234 H   0  0  0  0  0  0  0  0  0  0  0  0
    8.4922   -4.3893   -2.9944 H   0  0  0  0  0  0  0  0  0  0  0  0
   11.1177   -4.3727   -2.2434 H   0  0  0  0  0  0  0  0  0  0  0  0
   12.6347   -5.4038   -0.5508 H   0  0  0  0  0  0  0  0  0  0  0  0
   11.6641   -6.3307    1.5581 H   0  0  0  0  0  0  0  0  0  0  0  0
    9.1938   -6.1694    1.8944 H   0  0  0  0  0  0  0  0  0  0  0  0
    5.0691   -1.6287    0.0728 H   0  0  0  0  0  0  0  0  0  0  0  0
  1  2  2  0  0  0  0
  2  3  1  0  0  0  0
  2 15  1  0  0  0  0
  3  4  1  0  0  0  0
  3 14  2  0  0  0  0
  4  5  2  0  0  0  0
  4 32  1  0  0  0  0
  5  6  1  0  0  0  0
  5 33  1  0  0  0  0
  6  7  2  0  0  0  0
  6 34  1  0  0  0  0
  7  8  1  0  0  0  0
  7 14  1  0  0  0  0
  8  9  1  0  0  0  0
  8 35  1  0  0  0  0
  9 10  2  0  0  0  0
  9 11  1  0  0  0  0
 11 12  1  0  0  0  0
 11 13  1  0  0  0  0
 11 36  1  0  0  0  0
 12 13  1  0  0  0  0
 12 37  1  0  0  0  0
 12 38  1  0  0  0  0
 13 39  1  0  0  0  0
 13 40  1  0  0  0  0
 14 41  1  0  0  0  0
 15 16  1  0  0  0  0
 15 31  2  0  0  0  0
 16 17  2  0  0  0  0
 16 42  1  0  0  0  0
 17 18  1  0  0  0  0
 17 43  1  0  0  0  0
 18 19  1  0  0  0  0
 18 30  2  0  0  0  0
 19 20  1  0  0  0  0
 19 44  1  0  0  0  0
 20 21  2  0  0  0  0
 21 22  1  0  0  0  0
 21 30  1  0  0  0  0
 22 23  2  0  0  0  0
 22 45  1  0  0  0  0
 23 24  1  0  0  0  0
 23 46  1  0  0  0  0
 24 25  1  0  0  0  0
 24 29  2  0  0  0  0
 25 26  2  0  0  0  0
 25 47  1  0  0  0  0
 26 27  1  0  0  0  0
 26 48  1  0  0  0  0
 27 28  2  0  0  0  0
 27 49  1  0  0  0  0
 28 29  1  0  0  0  0
 28 50  1  0  0  0  0
 30 31  1  0  0  0  0
 31 51  1  0  0  0  0
M  END
$$$$
