CHEMBL4562341
 OpenBabel04072215383D

 67 71  0  0  0  0  0  0  0  0999 V2000
    3.1516   -0.3993    4.0842 C   0  0  0  0  0  0  0  0  0  0  0  0
    3.7322   -1.6751    3.9211 O   0  0  0  0  0  0  0  0  0  0  0  0
    4.0172   -2.1416    2.6766 C   0  0  0  0  0  0  0  0  0  0  0  0
    4.2387   -3.4986    2.6989 C   0  0  0  0  0  0  0  0  0  0  0  0
    4.4354   -4.1859    1.5127 C   0  0  0  0  0  0  0  0  0  0  0  0
    4.5890   -3.5851    0.2307 C   0  0  0  0  0  0  0  0  0  0  0  0
    4.7467   -4.5547   -0.9876 C   0  0  0  0  0  0  0  0  0  0  0  0
    4.3943   -4.2811   -2.3223 C   0  0  0  0  0  0  0  0  0  0  0  0
    3.0788   -4.6455   -2.7625 C   0  0  0  0  0  0  0  0  0  0  0  0
    2.4221   -4.1653   -3.9079 C   0  0  0  0  0  0  0  0  0  0  0  0
    1.6921   -3.0171   -3.7244 C   0  0  0  0  0  0  0  0  0  0  0  0
    1.6746   -2.5537   -2.4302 C   0  0  0  0  0  0  0  0  0  0  0  0
    2.1355   -1.2710   -2.1689 O   0  0  0  0  0  0  0  0  0  0  0  0
    3.1688   -0.8726   -3.1178 C   0  0  0  0  0  0  0  0  0  0  0  0
    1.6713   -3.5297   -1.4000 C   0  0  0  0  0  0  0  0  0  0  0  0
    2.3134   -4.7795   -1.6629 C   0  0  0  0  0  0  0  0  0  0  0  0
    2.7836   -5.7480   -0.8189 N   0  0  0  0  0  0  0  0  0  0  0  0
    4.1361   -5.7470   -0.7040 C   0  0  0  0  0  0  0  0  0  0  0  0
    4.8571   -6.8734   -0.2746 N   0  0  0  0  0  0  0  0  0  0  0  0
    6.0756   -7.0077    0.4335 C   0  0  0  0  0  0  0  0  0  0  0  0
    6.3713   -8.2579    0.9823 C   0  0  0  0  0  0  0  0  0  0  0  0
    7.4375   -8.4345    1.8782 C   0  0  0  0  0  0  0  0  0  0  0  0
    8.2569   -7.3819    2.2549 C   0  0  0  0  0  0  0  0  0  0  0  0
    9.2236   -7.4523    3.2817 N   0  0  0  0  0  0  0  0  0  0  0  0
    9.6683   -8.6209    3.8867 C   0  0  0  0  0  0  0  0  0  0  0  0
    9.4630   -9.7559    3.4559 O   0  0  0  0  0  0  0  0  0  0  0  0
   10.5417   -8.4158    5.1359 C   0  0  0  0  0  0  0  0  0  0  0  0
   10.0578   -9.0202    6.3936 N   0  0  0  0  0  0  0  0  0  0  0  0
    9.7569  -10.4640    6.3661 C   0  0  0  0  0  0  0  0  0  0  0  0
    8.2918  -10.8532    6.0601 C   0  0  0  0  0  0  0  0  0  0  0  0
    7.3425  -10.0612    6.7880 O   0  0  0  0  0  0  0  0  0  0  0  0
    7.5822   -8.6645    6.5896 C   0  0  0  0  0  0  0  0  0  0  0  0
    8.9844   -8.2937    7.0797 C   0  0  0  0  0  0  0  0  0  0  0  0
    8.0599   -6.1557    1.6094 C   0  0  0  0  0  0  0  0  0  0  0  0
    7.0113   -5.9981    0.6702 C   0  0  0  0  0  0  0  0  0  0  0  0
    4.4262   -2.1905    0.2394 C   0  0  0  0  0  0  0  0  0  0  0  0
    4.0930   -1.4813    1.4470 C   0  0  0  0  0  0  0  0  0  0  0  0
    2.7807   -0.3542    5.1179 H   0  0  0  0  0  0  0  0  0  0  0  0
    2.2967   -0.2409    3.4231 H   0  0  0  0  0  0  0  0  0  0  0  0
    3.9112    0.3733    3.9691 H   0  0  0  0  0  0  0  0  0  0  0  0
    4.1888   -4.0544    3.6314 H   0  0  0  0  0  0  0  0  0  0  0  0
    4.3846   -5.2646    1.6331 H   0  0  0  0  0  0  0  0  0  0  0  0
    5.1338   -3.9184   -3.0302 H   0  0  0  0  0  0  0  0  0  0  0  0
    2.1894   -4.8097   -4.7501 H   0  0  0  0  0  0  0  0  0  0  0  0
    1.2843   -2.4523   -4.5529 H   0  0  0  0  0  0  0  0  0  0  0  0
    3.7573   -0.0454   -2.7098 H   0  0  0  0  0  0  0  0  0  0  0  0
    2.7104   -0.5378   -4.0542 H   0  0  0  0  0  0  0  0  0  0  0  0
    3.8933   -1.6733   -3.3364 H   0  0  0  0  0  0  0  0  0  0  0  0
    1.5252   -3.2436   -0.3612 H   0  0  0  0  0  0  0  0  0  0  0  0
    4.1981   -7.6299   -0.1327 H   0  0  0  0  0  0  0  0  0  0  0  0
    5.7380   -9.1134    0.7625 H   0  0  0  0  0  0  0  0  0  0  0  0
    7.5528   -9.4203    2.3148 H   0  0  0  0  0  0  0  0  0  0  0  0
    9.6520   -6.5783    3.5663 H   0  0  0  0  0  0  0  0  0  0  0  0
   10.7335   -7.3484    5.2989 H   0  0  0  0  0  0  0  0  0  0  0  0
   11.5217   -8.8506    4.8998 H   0  0  0  0  0  0  0  0  0  0  0  0
    9.9673  -10.8315    7.3808 H   0  0  0  0  0  0  0  0  0  0  0  0
   10.4483  -11.0108    5.7149 H   0  0  0  0  0  0  0  0  0  0  0  0
    8.1296  -11.8951    6.3581 H   0  0  0  0  0  0  0  0  0  0  0  0
    8.0504  -10.7923    4.9972 H   0  0  0  0  0  0  0  0  0  0  0  0
    6.8353   -8.1187    7.1746 H   0  0  0  0  0  0  0  0  0  0  0  0
    7.4312   -8.4030    5.5372 H   0  0  0  0  0  0  0  0  0  0  0  0
    9.0478   -8.5667    8.1433 H   0  0  0  0  0  0  0  0  0  0  0  0
    9.1466   -7.2120    7.0370 H   0  0  0  0  0  0  0  0  0  0  0  0
    8.6975   -5.2996    1.8039 H   0  0  0  0  0  0  0  0  0  0  0  0
    6.9332   -5.0200    0.1898 H   0  0  0  0  0  0  0  0  0  0  0  0
    4.4790   -1.6245   -0.6863 H   0  0  0  0  0  0  0  0  0  0  0  0
    3.8798   -0.4167    1.3870 H   0  0  0  0  0  0  0  0  0  0  0  0
  1  2  1  0  0  0  0
  1 38  1  0  0  0  0
  1 39  1  0  0  0  0
  1 40  1  0  0  0  0
  2  3  1  0  0  0  0
  3  4  1  0  0  0  0
  3 37  2  0  0  0  0
  4  5  2  0  0  0  0
  4 41  1  0  0  0  0
  5  6  1  0  0  0  0
  5 42  1  0  0  0  0
  6  7  1  0  0  0  0
  6 36  2  0  0  0  0
  7  8  1  0  0  0  0
  7 18  2  0  0  0  0
  8  9  2  0  0  0  0
  8 43  1  0  0  0  0
  9 10  1  0  0  0  0
  9 16  1  0  0  0  0
 10 11  2  0  0  0  0
 10 44  1  0  0  0  0
 11 12  1  0  0  0  0
 11 45  1  0  0  0  0
 12 13  1  0  0  0  0
 12 15  2  0  0  0  0
 13 14  1  0  0  0  0
 14 46  1  0  0  0  0
 14 47  1  0  0  0  0
 14 48  1  0  0  0  0
 15 16  1  0  0  0  0
 15 49  1  0  0  0  0
 16 17  2  0  0  0  0
 17 18  1  0  0  0  0
 18 19  1  0  0  0  0
 19 20  1  0  0  0  0
 19 50  1  0  0  0  0
 20 21  1  0  0  0  0
 20 35  2  0  0  0  0
 21 22  2  0  0  0  0
 21 51  1  0  0  0  0
 22 23  1  0  0  0  0
 22 52  1  0  0  0  0
 23 24  1  0  0  0  0
 23 34  2  0  0  0  0
 24 25  1  0  0  0  0
 24 53  1  0  0  0  0
 25 26  2  0  0  0  0
 25 27  1  0  0  0  0
 27 28  1  0  0  0  0
 27 54  1  0  0  0  0
 27 55  1  0  0  0  0
 28 29  1  0  0  0  0
 28 33  1  0  0  0  0
 29 30  1  0  0  0  0
 29 56  1  0  0  0  0
 29 57  1  0  0  0  0
 30 31  1  0  0  0  0
 30 58  1  0  0  0  0
 30 59  1  0  0  0  0
 31 32  1  0  0  0  0
 32 33  1  0  0  0  0
 32 60  1  0  0  0  0
 32 61  1  0  0  0  0
 33 62  1  0  0  0  0
 33 63  1  0  0  0  0
 34 35  1  0  0  0  0
 34 64  1  0  0  0  0
 35 65  1  0  0  0  0
 36 37  1  0  0  0  0
 36 66  1  0  0  0  0
 37 67  1  0  0  0  0
M  END
$$$$
