CHEMBL178174
 OpenBabel04072215363D

 59 62  0  0  0  0  0  0  0  0999 V2000
    0.7538    2.0938   -5.4406 C   0  0  0  0  0  0  0  0  0  0  0  0
    1.3873    1.8968   -4.0933 C   0  0  0  0  0  0  0  0  0  0  0  0
    2.7534    2.1243   -3.9182 C   0  0  0  0  0  0  0  0  0  0  0  0
    3.3440    1.9614   -2.6607 C   0  0  0  0  0  0  0  0  0  0  0  0
    2.5912    1.5943   -1.5350 C   0  0  0  0  0  0  0  0  0  0  0  0
    3.1984    1.4210   -0.2693 N   0  0  0  0  0  0  0  0  0  0  0  0
    4.4728    0.9220   -0.0559 C   0  0  0  0  0  0  0  0  0  0  0  0
    4.9764    0.1345   -0.9680 N   0  0  0  0  0  0  0  0  0  0  0  0
    6.2069   -0.4267   -0.8122 C   0  0  0  0  0  0  0  0  0  0  0  0
    6.9972   -0.2654    0.1930 N   0  0  0  0  0  0  0  0  0  0  0  0
    6.5090    0.5452    1.1405 N   0  0  0  0  0  0  0  0  0  0  0  0
    7.1840    0.8521    2.2776 C   0  0  0  0  0  0  0  0  0  0  0  0
    6.4347    1.7261    3.0206 C   0  0  0  0  0  0  0  0  0  0  0  0
    6.8330    2.2531    4.2437 N   0  0  0  0  0  0  0  0  0  0  0  0
    7.7742    1.6983    5.0799 C   0  0  0  0  0  0  0  0  0  0  0  0
    8.4524    0.6925    4.8986 O   0  0  0  0  0  0  0  0  0  0  0  0
    7.7619    2.3753    6.2682 O   0  0  0  0  0  0  0  0  0  0  0  0
    7.7602    1.5190    7.4204 C   0  0  0  0  0  0  0  0  0  0  0  0
    9.0530    1.5168    8.2313 C   0  0  0  0  0  0  0  0  0  0  0  0
    9.4290    2.8932    8.7702 C   0  0  0  0  0  0  0  0  0  0  0  0
   10.5976    2.8433    9.6353 N   0  0  0  0  0  0  0  0  0  0  0  0
   10.4727    2.6806   10.9721 N   0  0  0  0  0  0  0  0  0  0  0  0
   11.7515    2.7245   11.3634 C   0  0  0  0  0  0  0  0  0  0  0  0
   12.5843    2.9063   10.2545 C   0  0  0  0  0  0  0  0  0  0  0  0
   11.8500    2.9869    9.1378 N   0  0  0  0  0  0  0  0  0  0  0  0
    5.2054    1.9630    2.2855 C   0  0  0  0  0  0  0  0  0  0  0  0
    4.0499    2.8444    2.7280 C   0  0  0  0  0  0  0  0  0  0  0  0
    3.4609    2.4114    4.0759 C   0  0  0  0  0  0  0  0  0  0  0  0
    4.4050    4.3325    2.7662 C   0  0  0  0  0  0  0  0  0  0  0  0
    5.2928    1.1801    1.1187 C   0  0  0  0  0  0  0  0  0  0  0  0
    1.2265    1.3307   -1.7210 C   0  0  0  0  0  0  0  0  0  0  0  0
    0.6408    1.4785   -2.9882 C   0  0  0  0  0  0  0  0  0  0  0  0
   -0.6879    1.2100   -3.1753 O   0  0  0  0  0  0  0  0  0  0  0  0
    1.4822    2.4489   -6.1783 H   0  0  0  0  0  0  0  0  0  0  0  0
   -0.0411    2.8444   -5.3793 H   0  0  0  0  0  0  0  0  0  0  0  0
    0.3371    1.1524   -5.8121 H   0  0  0  0  0  0  0  0  0  0  0  0
    3.3752    2.4303   -4.7564 H   0  0  0  0  0  0  0  0  0  0  0  0
    4.4116    2.1480   -2.5671 H   0  0  0  0  0  0  0  0  0  0  0  0
    2.6022    1.5746    0.5270 H   0  0  0  0  0  0  0  0  0  0  0  0
    6.5413   -1.0831   -1.6333 H   0  0  0  0  0  0  0  0  0  0  0  0
    8.1649    0.4284    2.4416 H   0  0  0  0  0  0  0  0  0  0  0  0
    6.2775    2.9818    4.6591 H   0  0  0  0  0  0  0  0  0  0  0  0
    7.5004    0.4897    7.1434 H   0  0  0  0  0  0  0  0  0  0  0  0
    6.9402    1.8796    8.0495 H   0  0  0  0  0  0  0  0  0  0  0  0
    9.8776    1.1176    7.6302 H   0  0  0  0  0  0  0  0  0  0  0  0
    8.9140    0.8276    9.0757 H   0  0  0  0  0  0  0  0  0  0  0  0
    8.6102    3.3162    9.3649 H   0  0  0  0  0  0  0  0  0  0  0  0
    9.6523    3.5925    7.9575 H   0  0  0  0  0  0  0  0  0  0  0  0
   12.0061    2.6289   12.4111 H   0  0  0  0  0  0  0  0  0  0  0  0
   13.6616    2.9889   10.1984 H   0  0  0  0  0  0  0  0  0  0  0  0
    3.2405    2.7490    2.0005 H   0  0  0  0  0  0  0  0  0  0  0  0
    4.1739    2.5302    4.8977 H   0  0  0  0  0  0  0  0  0  0  0  0
    3.1512    1.3617    4.0531 H   0  0  0  0  0  0  0  0  0  0  0  0
    2.5816    3.0166    4.3249 H   0  0  0  0  0  0  0  0  0  0  0  0
    5.1246    4.5645    3.5573 H   0  0  0  0  0  0  0  0  0  0  0  0
    3.5054    4.9306    2.9586 H   0  0  0  0  0  0  0  0  0  0  0  0
    4.8278    4.6663    1.8134 H   0  0  0  0  0  0  0  0  0  0  0  0
    0.6239    0.9913   -0.8850 H   0  0  0  0  0  0  0  0  0  0  0  0
   -1.0498    0.8164   -2.3658 H   0  0  0  0  0  0  0  0  0  0  0  0
  1  2  1  0  0  0  0
  1 34  1  0  0  0  0
  1 35  1  0  0  0  0
  1 36  1  0  0  0  0
  2  3  1  0  0  0  0
  2 32  2  0  0  0  0
  3  4  2  0  0  0  0
  3 37  1  0  0  0  0
  4  5  1  0  0  0  0
  4 38  1  0  0  0  0
  5  6  1  0  0  0  0
  5 31  2  0  0  0  0
  6  7  1  0  0  0  0
  6 39  1  0  0  0  0
  7  8  2  0  0  0  0
  7 30  1  0  0  0  0
  8  9  1  0  0  0  0
  9 10  2  0  0  0  0
  9 40  1  0  0  0  0
 10 11  1  0  0  0  0
 11 12  1  0  0  0  0
 11 30  1  0  0  0  0
 12 13  2  0  0  0  0
 12 41  1  0  0  0  0
 13 14  1  0  0  0  0
 13 26  1  0  0  0  0
 14 15  1  0  0  0  0
 14 42  1  0  0  0  0
 15 16  2  0  0  0  0
 15 17  1  0  0  0  0
 17 18  1  0  0  0  0
 18 19  1  0  0  0  0
 18 43  1  0  0  0  0
 18 44  1  0  0  0  0
 19 20  1  0  0  0  0
 19 45  1  0  0  0  0
 19 46  1  0  0  0  0
 20 21  1  0  0  0  0
 20 47  1  0  0  0  0
 20 48  1  0  0  0  0
 21 22  1  0  0  0  0
 21 25  1  0  0  0  0
 22 23  2  0  0  0  0
 23 24  1  0  0  0  0
 23 49  1  0  0  0  0
 24 25  2  0  0  0  0
 24 50  1  0  0  0  0
 26 27  1  0  0  0  0
 26 30  2  0  0  0  0
 27 28  1  0  0  0  0
 27 29  1  0  0  0  0
 27 51  1  0  0  0  0
 28 52  1  0  0  0  0
 28 53  1  0  0  0  0
 28 54  1  0  0  0  0
 29 55  1  0  0  0  0
 29 56  1  0  0  0  0
 29 57  1  0  0  0  0
 31 32  1  0  0  0  0
 31 58  1  0  0  0  0
 32 33  1  0  0  0  0
 33 59  1  0  0  0  0
M  END
$$$$
