CHEMBL4227092
 OpenBabel04072215383D

 51 53  0  0  0  0  0  0  0  0999 V2000
    3.4196   -1.3113   -4.7611 C   0  0  0  0  0  0  0  0  0  0  0  0
    4.4699   -1.0088   -3.8208 N   0  0  0  0  0  0  0  0  0  0  0  0
    4.5180   -1.6151   -2.5843 C   0  0  0  0  0  0  0  0  0  0  0  0
    3.6936   -2.4345   -2.1954 O   0  0  0  0  0  0  0  0  0  0  0  0
    5.6797   -1.2678   -1.7343 C   0  0  0  0  0  0  0  0  0  0  0  0
    6.3059   -0.0256   -1.7879 C   0  0  0  0  0  0  0  0  0  0  0  0
    7.4276    0.2169   -0.9896 C   0  0  0  0  0  0  0  0  0  0  0  0
    7.9058   -0.7845   -0.1467 C   0  0  0  0  0  0  0  0  0  0  0  0
    9.3760   -0.6298    0.8609 S   0  0  0  0  0  0  0  0  0  0  0  0
    9.9496    1.0343    0.5886 C   0  0  0  0  0  0  0  0  0  0  0  0
    9.4065    2.0966    1.3097 C   0  0  0  0  0  0  0  0  0  0  0  0
    9.7828    3.4084    1.0142 C   0  0  0  0  0  0  0  0  0  0  0  0
   10.7138    3.6709    0.0023 C   0  0  0  0  0  0  0  0  0  0  0  0
   11.3150    2.6209   -0.6816 C   0  0  0  0  0  0  0  0  0  0  0  0
   12.2420    2.7476   -1.7333 N   0  0  0  0  0  0  0  0  0  0  0  0
   12.6021    3.7729   -2.5911 C   0  0  0  0  0  0  0  0  0  0  0  0
   12.5152    5.4197   -2.3767 S   0  0  0  0  0  0  0  0  0  0  0  0
   13.1440    3.2923   -3.7852 N   0  0  0  0  0  0  0  0  0  0  0  0
   12.7902    2.0747   -4.4118 C   0  0  0  0  0  0  0  0  0  0  0  0
   11.5403    1.4915   -4.1683 C   0  0  0  0  0  0  0  0  0  0  0  0
   11.2422    0.1955   -4.5932 C   0  0  0  0  0  0  0  0  0  0  0  0
    9.9460   -0.4568   -4.1778 C   0  0  0  0  0  0  0  0  0  0  0  0
    9.1117    0.3862   -3.5083 F   0  0  0  0  0  0  0  0  0  0  0  0
    9.2301   -0.9275   -5.2331 F   0  0  0  0  0  0  0  0  0  0  0  0
   10.1496   -1.5141   -3.3487 F   0  0  0  0  0  0  0  0  0  0  0  0
   12.1958   -0.4881   -5.3544 C   0  0  0  0  0  0  0  0  0  0  0  0
   13.4122    0.1269   -5.7105 C   0  0  0  0  0  0  0  0  0  0  0  0
   14.4212   -0.6066   -6.5636 C   0  0  0  0  0  0  0  0  0  0  0  0
   14.0384   -1.8741   -6.8804 F   0  0  0  0  0  0  0  0  0  0  0  0
   14.6517    0.0239   -7.7462 F   0  0  0  0  0  0  0  0  0  0  0  0
   15.6309   -0.7217   -5.9520 F   0  0  0  0  0  0  0  0  0  0  0  0
   13.6984    1.4242   -5.2406 C   0  0  0  0  0  0  0  0  0  0  0  0
   10.9353    1.2999   -0.3688 C   0  0  0  0  0  0  0  0  0  0  0  0
    7.2768   -1.9848   -0.0573 N   0  0  0  0  0  0  0  0  0  0  0  0
    6.1805   -2.1970   -0.8364 C   0  0  0  0  0  0  0  0  0  0  0  0
    3.6288   -0.7939   -5.7010 H   0  0  0  0  0  0  0  0  0  0  0  0
    2.4625   -0.9706   -4.3557 H   0  0  0  0  0  0  0  0  0  0  0  0
    3.3791   -2.3910   -4.9311 H   0  0  0  0  0  0  0  0  0  0  0  0
    5.2708   -0.4914   -4.1569 H   0  0  0  0  0  0  0  0  0  0  0  0
    5.9347    0.7662   -2.4320 H   0  0  0  0  0  0  0  0  0  0  0  0
    7.9105    1.1833   -1.0616 H   0  0  0  0  0  0  0  0  0  0  0  0
    8.6762    1.9115    2.0937 H   0  0  0  0  0  0  0  0  0  0  0  0
    9.3452    4.2344    1.5715 H   0  0  0  0  0  0  0  0  0  0  0  0
   10.9635    4.7059   -0.1959 H   0  0  0  0  0  0  0  0  0  0  0  0
   12.6764    1.8716   -1.9983 H   0  0  0  0  0  0  0  0  0  0  0  0
   13.7702    3.9228   -4.2771 H   0  0  0  0  0  0  0  0  0  0  0  0
   10.7802    2.0470   -3.6197 H   0  0  0  0  0  0  0  0  0  0  0  0
   11.9886   -1.5112   -5.6730 H   0  0  0  0  0  0  0  0  0  0  0  0
   14.6597    1.8803   -5.4732 H   0  0  0  0  0  0  0  0  0  0  0  0
   11.3684    0.4635   -0.9159 H   0  0  0  0  0  0  0  0  0  0  0  0
    5.7188   -3.1756   -0.7222 H   0  0  0  0  0  0  0  0  0  0  0  0
  1  2  1  0  0  0  0
  1 36  1  0  0  0  0
  1 37  1  0  0  0  0
  1 38  1  0  0  0  0
  2  3  1  0  0  0  0
  2 39  1  0  0  0  0
  3  4  2  0  0  0  0
  3  5  1  0  0  0  0
  5  6  1  0  0  0  0
  5 35  2  0  0  0  0
  6  7  2  0  0  0  0
  6 40  1  0  0  0  0
  7  8  1  0  0  0  0
  7 41  1  0  0  0  0
  8  9  1  0  0  0  0
  8 34  2  0  0  0  0
  9 10  1  0  0  0  0
 10 11  1  0  0  0  0
 10 33  2  0  0  0  0
 11 12  2  0  0  0  0
 11 42  1  0  0  0  0
 12 13  1  0  0  0  0
 12 43  1  0  0  0  0
 13 14  2  0  0  0  0
 13 44  1  0  0  0  0
 14 15  1  0  0  0  0
 14 33  1  0  0  0  0
 15 16  1  0  0  0  0
 15 45  1  0  0  0  0
 16 17  2  0  0  0  0
 16 18  1  0  0  0  0
 18 19  1  0  0  0  0
 18 46  1  0  0  0  0
 19 20  1  0  0  0  0
 19 32  2  0  0  0  0
 20 21  2  0  0  0  0
 20 47  1  0  0  0  0
 21 22  1  0  0  0  0
 21 26  1  0  0  0  0
 22 23  1  0  0  0  0
 22 24  1  0  0  0  0
 22 25  1  0  0  0  0
 26 27  2  0  0  0  0
 26 48  1  0  0  0  0
 27 28  1  0  0  0  0
 27 32  1  0  0  0  0
 28 29  1  0  0  0  0
 28 30  1  0  0  0  0
 28 31  1  0  0  0  0
 32 49  1  0  0  0  0
 33 50  1  0  0  0  0
 34 35  1  0  0  0  0
 35 51  1  0  0  0  0
M  END
$$$$
