CHEMBL1085295
 OpenBabel04072215363D

 68 75  0  0  1  0  0  0  0  0999 V2000
    0.5768    0.9446   -0.1088 C   0  0  0  0  0  0  0  0  0  0  0  0
    1.4317   -0.1568   -0.4820 N   0  0  0  0  0  0  0  0  0  0  0  0
    1.8603   -0.2812   -1.7563 N   0  0  0  0  0  0  0  0  0  0  0  0
    1.6644   -1.5915   -1.9971 C   0  0  0  0  0  0  0  0  0  0  0  0
    0.9888   -2.2483   -0.9233 C   0  0  0  0  0  0  0  0  0  0  0  0
    1.3613   -1.3808    0.1063 C   0  0  0  0  0  0  0  0  0  0  0  0
    1.7914   -1.7280    1.4966 C   0  0  0  0  0  0  0  0  0  0  0  0
    1.2643   -3.1240    1.7882 C   0  0  0  0  0  0  0  0  0  0  0  0
    1.5668   -3.9762    0.5769 C   0  0  0  0  0  0  0  0  0  0  0  0
    0.8900   -3.6584   -0.5961 C   0  0  0  0  0  0  0  0  0  0  0  0
   -0.0253   -4.6747   -0.8868 C   0  0  0  0  0  0  0  0  0  0  0  0
    0.2503   -6.0500   -0.5455 C   0  0  0  0  0  0  0  0  0  0  0  0
    1.5724   -6.2594   -0.0932 C   0  0  0  0  0  0  0  0  0  0  0  0
    2.3644   -7.3900   -0.0393 C   0  0  0  0  0  0  0  0  0  0  0  0
    2.2264   -8.7771   -0.1169 C   0  0  0  0  0  0  0  0  0  0  0  0
    3.3716   -9.6102   -0.0598 C   0  0  0  0  0  0  0  0  0  0  0  0
    3.1302  -11.0849    0.1765 C   0  0  3  0  0  0  0  0  0  0  0  0
    4.2917  -12.0803    0.3861 C   0  0  0  0  0  0  0  0  0  0  0  0
    4.7307  -12.8826   -0.8396 C   0  0  0  0  0  0  0  0  0  0  0  0
    3.6204  -13.0995   -1.8609 C   0  0  0  0  0  0  0  0  0  0  0  0
    2.8380  -11.8349   -2.0449 C   0  0  0  0  0  0  0  0  0  0  0  0
    2.1955  -11.5375   -0.8001 O   0  0  0  0  0  0  0  0  0  0  0  0
    4.6458   -9.0334   -0.1398 C   0  0  0  0  0  0  0  0  0  0  0  0
    4.8035   -7.6477   -0.1096 C   0  0  0  0  0  0  0  0  0  0  0  0
    3.6679   -6.8413    0.0624 C   0  0  0  0  0  0  0  0  0  0  0  0
    3.5386   -5.4835    0.2981 N   0  0  0  0  0  0  0  0  0  0  0  0
    4.5381   -4.4377    0.2808 C   0  0  0  0  0  0  0  0  0  0  0  0
    5.3016   -4.2095   -1.0266 C   0  0  0  0  0  0  0  0  0  0  0  0
    6.5050   -3.3592   -0.6031 C   0  0  0  0  0  0  0  0  0  0  0  0
    6.6076   -3.4720    0.9218 C   0  0  0  0  0  0  0  0  0  0  0  0
    5.6235   -4.5583    1.3315 C   0  0  0  0  0  0  0  0  0  0  0  0
    2.2005   -5.1768    0.4567 C   0  0  0  0  0  0  0  0  0  0  0  0
   -0.9082   -6.9150   -0.7034 C   0  0  0  0  0  0  0  0  0  0  0  0
   -1.8802   -5.9078   -1.1154 N   0  0  0  0  0  0  0  0  0  0  0  0
   -1.4108   -4.5980   -1.2452 C   0  0  0  0  0  0  0  0  0  0  0  0
   -2.1617   -3.6526   -1.4931 O   0  0  0  0  0  0  0  0  0  0  0  0
    1.1583    1.8691   -0.1026 H   0  0  0  0  0  0  0  0  0  0  0  0
    0.1571    0.7453    0.8817 H   0  0  0  0  0  0  0  0  0  0  0  0
   -0.2352    0.9844   -0.8391 H   0  0  0  0  0  0  0  0  0  0  0  0
    2.0951   -2.0144   -2.8969 H   0  0  0  0  0  0  0  0  0  0  0  0
    1.4691   -1.0021    2.2421 H   0  0  0  0  0  0  0  0  0  0  0  0
    2.8896   -1.7743    1.5268 H   0  0  0  0  0  0  0  0  0  0  0  0
    0.1611   -3.0612    1.8877 H   0  0  0  0  0  0  0  0  0  0  0  0
    1.6299   -3.5629    2.7173 H   0  0  0  0  0  0  0  0  0  0  0  0
    1.2388   -9.2232   -0.1136 H   0  0  0  0  0  0  0  0  0  0  0  0
    2.5872  -11.1004    1.1352 H   0  0  0  0  0  0  0  0  0  0  0  0
    3.9366  -12.8203    1.1187 H   0  0  0  0  0  0  0  0  0  0  0  0
    5.1603  -11.6117    0.8659 H   0  0  0  0  0  0  0  0  0  0  0  0
    5.1113  -13.8601   -0.5145 H   0  0  0  0  0  0  0  0  0  0  0  0
    5.5696  -12.3722   -1.3248 H   0  0  0  0  0  0  0  0  0  0  0  0
    2.9465  -13.8832   -1.4938 H   0  0  0  0  0  0  0  0  0  0  0  0
    4.0404  -13.4364   -2.8129 H   0  0  0  0  0  0  0  0  0  0  0  0
    2.0524  -11.9476   -2.7997 H   0  0  0  0  0  0  0  0  0  0  0  0
    3.4742  -10.9914   -2.3667 H   0  0  0  0  0  0  0  0  0  0  0  0
    5.5370   -9.6464   -0.2064 H   0  0  0  0  0  0  0  0  0  0  0  0
    5.7974   -7.2147   -0.1747 H   0  0  0  0  0  0  0  0  0  0  0  0
    4.0208   -3.4890    0.4765 H   0  0  0  0  0  0  0  0  0  0  0  0
    4.6940   -3.6896   -1.7781 H   0  0  0  0  0  0  0  0  0  0  0  0
    5.6450   -5.1442   -1.4815 H   0  0  0  0  0  0  0  0  0  0  0  0
    6.3631   -2.3105   -0.8903 H   0  0  0  0  0  0  0  0  0  0  0  0
    7.4201   -3.7085   -1.0924 H   0  0  0  0  0  0  0  0  0  0  0  0
    6.3170   -2.5187    1.3796 H   0  0  0  0  0  0  0  0  0  0  0  0
    7.6248   -3.7020    1.2525 H   0  0  0  0  0  0  0  0  0  0  0  0
    5.2301   -4.4031    2.3425 H   0  0  0  0  0  0  0  0  0  0  0  0
    6.1098   -5.5369    1.3069 H   0  0  0  0  0  0  0  0  0  0  0  0
   -1.2169   -7.3452    0.2537 H   0  0  0  0  0  0  0  0  0  0  0  0
   -0.8079   -7.6708   -1.4817 H   0  0  0  0  0  0  0  0  0  0  0  0
   -2.8784   -6.0614   -1.0667 H   0  0  0  0  0  0  0  0  0  0  0  0
  1  2  1  0  0  0  0
  1 37  1  0  0  0  0
  1 38  1  0  0  0  0
  1 39  1  0  0  0  0
  2  3  1  0  0  0  0
  2  6  1  0  0  0  0
  3  4  2  0  0  0  0
  4  5  1  0  0  0  0
  4 40  1  0  0  0  0
  5  6  2  0  0  0  0
  5 10  1  0  0  0  0
  6  7  1  0  0  0  0
  7  8  1  0  0  0  0
  7 41  1  0  0  0  0
  7 42  1  0  0  0  0
  8  9  1  0  0  0  0
  8 43  1  0  0  0  0
  8 44  1  0  0  0  0
  9 10  1  0  0  0  0
  9 32  2  0  0  0  0
 10 11  2  0  0  0  0
 11 12  1  0  0  0  0
 11 35  1  0  0  0  0
 12 13  2  0  0  0  0
 12 33  1  0  0  0  0
 13 14  1  0  0  0  0
 13 32  1  0  0  0  0
 14 15  1  0  0  0  0
 14 25  2  0  0  0  0
 15 16  2  0  0  0  0
 15 45  1  0  0  0  0
 16 17  1  0  0  0  0
 16 23  1  0  0  0  0
 17 18  1  0  0  0  0
 17 22  1  0  0  0  0
 17 46  1  0  0  0  0
 18 19  1  0  0  0  0
 18 47  1  0  0  0  0
 18 48  1  0  0  0  0
 19 20  1  0  0  0  0
 19 49  1  0  0  0  0
 19 50  1  0  0  0  0
 20 21  1  0  0  0  0
 20 51  1  0  0  0  0
 20 52  1  0  0  0  0
 21 22  1  0  0  0  0
 21 53  1  0  0  0  0
 21 54  1  0  0  0  0
 23 24  2  0  0  0  0
 23 55  1  0  0  0  0
 24 25  1  0  0  0  0
 24 56  1  0  0  0  0
 25 26  1  0  0  0  0
 26 27  1  0  0  0  0
 26 32  1  0  0  0  0
 27 28  1  0  0  0  0
 27 31  1  0  0  0  0
 27 57  1  0  0  0  0
 28 29  1  0  0  0  0
 28 58  1  0  0  0  0
 28 59  1  0  0  0  0
 29 30  1  0  0  0  0
 29 60  1  0  0  0  0
 29 61  1  0  0  0  0
 30 31  1  0  0  0  0
 30 62  1  0  0  0  0
 30 63  1  0  0  0  0
 31 64  1  0  0  0  0
 31 65  1  0  0  0  0
 33 34  1  0  0  0  0
 33 66  1  0  0  0  0
 33 67  1  0  0  0  0
 34 35  1  0  0  0  0
 34 68  1  0  0  0  0
 35 36  2  0  0  0  0
M  END
$$$$
