CHEMBL3109354
 OpenBabel04072215363D

 52 56  0  0  0  0  0  0  0  0999 V2000
    1.2714   -3.9019   -4.3035 C   0  0  0  0  0  0  0  0  0  0  0  0
    2.6568   -3.7130   -4.0529 O   0  0  0  0  0  0  0  0  0  0  0  0
    3.0553   -2.3593   -4.2761 C   0  0  0  0  0  0  0  0  0  0  0  0
    4.5479   -2.2407   -3.9948 C   0  0  0  0  0  0  0  0  0  0  0  0
    4.9714   -0.8920   -4.1923 O   0  0  0  0  0  0  0  0  0  0  0  0
    6.3146   -0.5949   -4.0377 C   0  0  0  0  0  0  0  0  0  0  0  0
    7.2478   -1.5839   -3.5060 C   0  0  0  0  0  0  0  0  0  0  0  0
    8.5326   -1.2425   -3.3123 C   0  0  0  0  0  0  0  0  0  0  0  0
    8.9844    0.0281   -3.6704 N   0  0  0  0  0  0  0  0  0  0  0  0
   10.2481    0.6056   -3.6045 C   0  0  0  0  0  0  0  0  0  0  0  0
   11.4811   -0.0270   -3.1431 C   0  0  0  0  0  0  0  0  0  0  0  0
   12.5091    0.6906   -2.5651 C   0  0  0  0  0  0  0  0  0  0  0  0
   13.6700    0.0116   -2.2088 C   0  0  0  0  0  0  0  0  0  0  0  0
   13.7921   -1.3620   -2.4597 C   0  0  0  0  0  0  0  0  0  0  0  0
   14.9648   -2.0533   -2.1093 C   0  0  0  0  0  0  0  0  0  0  0  0
   15.0880   -3.4149   -2.3664 C   0  0  0  0  0  0  0  0  0  0  0  0
   14.0536   -4.0856   -3.0078 C   0  0  0  0  0  0  0  0  0  0  0  0
   12.8973   -3.3961   -3.4016 C   0  0  0  0  0  0  0  0  0  0  0  0
   12.0184   -4.1884   -4.1273 O   0  0  0  0  0  0  0  0  0  0  0  0
   11.1124   -3.4540   -4.9544 C   0  0  0  0  0  0  0  0  0  0  0  0
   10.5309   -4.3428   -5.9816 C   0  0  0  0  0  0  0  0  0  0  0  0
    9.6689   -4.0465   -7.0179 C   0  0  0  0  0  0  0  0  0  0  0  0
    9.3565   -5.1681   -7.7302 N   0  0  0  0  0  0  0  0  0  0  0  0
   10.0172   -6.1430   -7.1401 C   0  0  0  0  0  0  0  0  0  0  0  0
   10.7410   -5.6904   -6.0742 N   0  0  0  0  0  0  0  0  0  0  0  0
   12.7193   -2.0284   -3.0890 C   0  0  0  0  0  0  0  0  0  0  0  0
   11.5827   -1.3498   -3.3898 N   0  0  0  0  0  0  0  0  0  0  0  0
   10.0529    1.8865   -4.0975 C   0  0  0  0  0  0  0  0  0  0  0  0
    8.7509    2.1208   -4.4439 N   0  0  0  0  0  0  0  0  0  0  0  0
    8.1222    0.9950   -4.1892 C   0  0  0  0  0  0  0  0  0  0  0  0
    6.7500    0.6424   -4.3500 C   0  0  0  0  0  0  0  0  0  0  0  0
    1.0309   -4.9536   -4.1246 H   0  0  0  0  0  0  0  0  0  0  0  0
    1.0344   -3.6610   -5.3438 H   0  0  0  0  0  0  0  0  0  0  0  0
    0.6735   -3.2862   -3.6253 H   0  0  0  0  0  0  0  0  0  0  0  0
    2.4941   -1.6891   -3.6144 H   0  0  0  0  0  0  0  0  0  0  0  0
    2.8437   -2.0683   -5.3114 H   0  0  0  0  0  0  0  0  0  0  0  0
    5.0920   -2.9158   -4.6667 H   0  0  0  0  0  0  0  0  0  0  0  0
    4.7311   -2.5493   -2.9580 H   0  0  0  0  0  0  0  0  0  0  0  0
    6.9280   -2.5857   -3.2503 H   0  0  0  0  0  0  0  0  0  0  0  0
    9.2453   -1.9330   -2.8862 H   0  0  0  0  0  0  0  0  0  0  0  0
   12.4251    1.7570   -2.3875 H   0  0  0  0  0  0  0  0  0  0  0  0
   14.4849    0.5665   -1.7494 H   0  0  0  0  0  0  0  0  0  0  0  0
   15.7929   -1.5311   -1.6334 H   0  0  0  0  0  0  0  0  0  0  0  0
   15.9955   -3.9453   -2.0882 H   0  0  0  0  0  0  0  0  0  0  0  0
   14.1565   -5.1447   -3.2317 H   0  0  0  0  0  0  0  0  0  0  0  0
   11.6203   -2.6347   -5.4764 H   0  0  0  0  0  0  0  0  0  0  0  0
   10.2819   -3.1031   -4.3437 H   0  0  0  0  0  0  0  0  0  0  0  0
    9.2594   -3.0768   -7.2762 H   0  0  0  0  0  0  0  0  0  0  0  0
   10.0073   -7.1797   -7.4383 H   0  0  0  0  0  0  0  0  0  0  0  0
   11.3215   -6.2448   -5.4604 H   0  0  0  0  0  0  0  0  0  0  0  0
   10.8019    2.6566   -4.2328 H   0  0  0  0  0  0  0  0  0  0  0  0
    6.0680    1.3980   -4.7225 H   0  0  0  0  0  0  0  0  0  0  0  0
  1  2  1  0  0  0  0
  1 32  1  0  0  0  0
  1 33  1  0  0  0  0
  1 34  1  0  0  0  0
  2  3  1  0  0  0  0
  3  4  1  0  0  0  0
  3 35  1  0  0  0  0
  3 36  1  0  0  0  0
  4  5  1  0  0  0  0
  4 37  1  0  0  0  0
  4 38  1  0  0  0  0
  5  6  1  0  0  0  0
  6  7  1  0  0  0  0
  6 31  2  0  0  0  0
  7  8  2  0  0  0  0
  7 39  1  0  0  0  0
  8  9  1  0  0  0  0
  8 40  1  0  0  0  0
  9 10  1  0  0  0  0
  9 30  1  0  0  0  0
 10 11  1  0  0  0  0
 10 28  2  0  0  0  0
 11 12  1  0  0  0  0
 11 27  2  0  0  0  0
 12 13  2  0  0  0  0
 12 41  1  0  0  0  0
 13 14  1  0  0  0  0
 13 42  1  0  0  0  0
 14 15  1  0  0  0  0
 14 26  2  0  0  0  0
 15 16  2  0  0  0  0
 15 43  1  0  0  0  0
 16 17  1  0  0  0  0
 16 44  1  0  0  0  0
 17 18  2  0  0  0  0
 17 45  1  0  0  0  0
 18 19  1  0  0  0  0
 18 26  1  0  0  0  0
 19 20  1  0  0  0  0
 20 21  1  0  0  0  0
 20 46  1  0  0  0  0
 20 47  1  0  0  0  0
 21 22  2  0  0  0  0
 21 25  1  0  0  0  0
 22 23  1  0  0  0  0
 22 48  1  0  0  0  0
 23 24  2  0  0  0  0
 24 25  1  0  0  0  0
 24 49  1  0  0  0  0
 25 50  1  0  0  0  0
 26 27  1  0  0  0  0
 28 29  1  0  0  0  0
 28 51  1  0  0  0  0
 29 30  2  0  0  0  0
 30 31  1  0  0  0  0
 31 52  1  0  0  0  0
M  END
$$$$
