CHEMBL396219
 OpenBabel04072215373D

 51 53  0  0  0  0  0  0  0  0999 V2000
    1.0241    0.6662   -0.5923 C   0  0  0  0  0  0  0  0  0  0  0  0
    2.2874    0.1055   -0.2895 O   0  0  0  0  0  0  0  0  0  0  0  0
    2.8031   -0.7248   -1.3351 C   0  0  0  0  0  0  0  0  0  0  0  0
    4.1306   -1.2693   -0.8218 C   0  0  0  0  0  0  0  0  0  0  0  0
    4.7585   -2.1492   -1.7452 O   0  0  0  0  0  0  0  0  0  0  0  0
    6.1169   -2.3306   -1.6293 C   0  0  0  0  0  0  0  0  0  0  0  0
    6.7177   -2.6876   -2.8554 C   0  0  0  0  0  0  0  0  0  0  0  0
    8.0878   -2.8726   -2.9973 C   0  0  0  0  0  0  0  0  0  0  0  0
    8.5747   -3.2162   -4.1963 N   0  0  0  0  0  0  0  0  0  0  0  0
    9.8982   -3.3752   -4.2881 C   0  0  0  0  0  0  0  0  0  0  0  0
   10.7782   -3.2278   -3.2939 N   0  0  0  0  0  0  0  0  0  0  0  0
   10.2791   -2.9073   -2.0837 C   0  0  0  0  0  0  0  0  0  0  0  0
   11.1785   -2.8174   -0.9804 N   0  0  0  0  0  0  0  0  0  0  0  0
   12.5895   -2.8607   -1.1073 C   0  0  0  0  0  0  0  0  0  0  0  0
   13.2524   -2.0462   -2.0327 C   0  0  0  0  0  0  0  0  0  0  0  0
   14.6288   -2.1699   -2.2186 C   0  0  0  0  0  0  0  0  0  0  0  0
   15.2434   -1.4152   -3.1794 O   0  0  0  0  0  0  0  0  0  0  0  0
   15.3681   -3.0731   -1.4482 C   0  0  0  0  0  0  0  0  0  0  0  0
   17.0634   -3.2809   -1.6908 Cl  0  0  0  0  0  0  0  0  0  0  0  0
   14.7298   -3.8500   -0.4831 C   0  0  0  0  0  0  0  0  0  0  0  0
   13.3524   -3.7356   -0.3211 C   0  0  0  0  0  0  0  0  0  0  0  0
   12.7366   -4.5123    0.5847 F   0  0  0  0  0  0  0  0  0  0  0  0
    8.9069   -2.6897   -1.8801 C   0  0  0  0  0  0  0  0  0  0  0  0
    8.3185   -2.3266   -0.6463 C   0  0  0  0  0  0  0  0  0  0  0  0
    6.9329   -2.2126   -0.4979 C   0  0  0  0  0  0  0  0  0  0  0  0
    6.5563   -1.9387    0.7840 O   0  0  0  0  0  0  0  0  0  0  0  0
    5.5683   -2.8105    1.3433 C   0  0  0  0  0  0  0  0  0  0  0  0
    6.1027   -3.7594    2.4049 C   0  0  0  0  0  0  0  0  0  0  0  0
    6.6298   -3.0313    3.5123 O   0  0  0  0  0  0  0  0  0  0  0  0
    6.8958   -3.8953    4.6093 C   0  0  0  0  0  0  0  0  0  0  0  0
    0.7112    1.2676    0.2660 H   0  0  0  0  0  0  0  0  0  0  0  0
    0.2818   -0.1202   -0.7550 H   0  0  0  0  0  0  0  0  0  0  0  0
    1.0965    1.3166   -1.4679 H   0  0  0  0  0  0  0  0  0  0  0  0
    2.9391   -0.1532   -2.2582 H   0  0  0  0  0  0  0  0  0  0  0  0
    2.1089   -1.5505   -1.5352 H   0  0  0  0  0  0  0  0  0  0  0  0
    3.8422   -1.8331    0.0619 H   0  0  0  0  0  0  0  0  0  0  0  0
    4.7819   -0.4388   -0.5284 H   0  0  0  0  0  0  0  0  0  0  0  0
    6.0878   -2.8134   -3.7307 H   0  0  0  0  0  0  0  0  0  0  0  0
   10.2968   -3.6554   -5.2568 H   0  0  0  0  0  0  0  0  0  0  0  0
   10.8686   -3.4604   -0.2530 H   0  0  0  0  0  0  0  0  0  0  0  0
   12.6762   -1.3333   -2.6155 H   0  0  0  0  0  0  0  0  0  0  0  0
   14.5622   -1.0345   -3.7595 H   0  0  0  0  0  0  0  0  0  0  0  0
   15.2839   -4.5587    0.1229 H   0  0  0  0  0  0  0  0  0  0  0  0
    8.9498   -2.1326    0.2204 H   0  0  0  0  0  0  0  0  0  0  0  0
    5.0703   -3.4205    0.5826 H   0  0  0  0  0  0  0  0  0  0  0  0
    4.8385   -2.1520    1.8271 H   0  0  0  0  0  0  0  0  0  0  0  0
    6.8824   -4.4041    1.9902 H   0  0  0  0  0  0  0  0  0  0  0  0
    5.2613   -4.3755    2.7494 H   0  0  0  0  0  0  0  0  0  0  0  0
    7.3682   -3.3127    5.4038 H   0  0  0  0  0  0  0  0  0  0  0  0
    7.5721   -4.7016    4.3095 H   0  0  0  0  0  0  0  0  0  0  0  0
    5.9594   -4.3136    4.9915 H   0  0  0  0  0  0  0  0  0  0  0  0
  1  2  1  0  0  0  0
  1 31  1  0  0  0  0
  1 32  1  0  0  0  0
  1 33  1  0  0  0  0
  2  3  1  0  0  0  0
  3  4  1  0  0  0  0
  3 34  1  0  0  0  0
  3 35  1  0  0  0  0
  4  5  1  0  0  0  0
  4 36  1  0  0  0  0
  4 37  1  0  0  0  0
  5  6  1  0  0  0  0
  6  7  1  0  0  0  0
  6 25  2  0  0  0  0
  7  8  2  0  0  0  0
  7 38  1  0  0  0  0
  8  9  1  0  0  0  0
  8 23  1  0  0  0  0
  9 10  2  0  0  0  0
 10 11  1  0  0  0  0
 10 39  1  0  0  0  0
 11 12  2  0  0  0  0
 12 13  1  0  0  0  0
 12 23  1  0  0  0  0
 13 14  1  0  0  0  0
 13 40  1  0  0  0  0
 14 15  1  0  0  0  0
 14 21  2  0  0  0  0
 15 16  2  0  0  0  0
 15 41  1  0  0  0  0
 16 17  1  0  0  0  0
 16 18  1  0  0  0  0
 17 42  1  0  0  0  0
 18 19  1  0  0  0  0
 18 20  2  0  0  0  0
 20 21  1  0  0  0  0
 20 43  1  0  0  0  0
 21 22  1  0  0  0  0
 23 24  2  0  0  0  0
 24 25  1  0  0  0  0
 24 44  1  0  0  0  0
 25 26  1  0  0  0  0
 26 27  1  0  0  0  0
 27 28  1  0  0  0  0
 27 45  1  0  0  0  0
 27 46  1  0  0  0  0
 28 29  1  0  0  0  0
 28 47  1  0  0  0  0
 28 48  1  0  0  0  0
 29 30  1  0  0  0  0
 30 49  1  0  0  0  0
 30 50  1  0  0  0  0
 30 51  1  0  0  0  0
M  END
$$$$
