CHEMBL3904674
 OpenBabel04072215373D

 72 75  0  0  0  0  0  0  0  0999 V2000
    1.7863    4.2951    3.8150 C   0  0  0  0  0  0  0  0  0  0  0  0
    1.7997    3.0049    3.3479 O   0  0  0  0  0  0  0  0  0  0  0  0
    2.7865    2.2845    2.7538 C   0  0  0  0  0  0  0  0  0  0  0  0
    2.3267    1.1836    2.0576 C   0  0  0  0  0  0  0  0  0  0  0  0
    3.1747    0.3824    1.3303 C   0  0  0  0  0  0  0  0  0  0  0  0
    2.6027   -0.6518    0.6751 O   0  0  0  0  0  0  0  0  0  0  0  0
    3.2449   -1.7285    0.1276 C   0  0  0  0  0  0  0  0  0  0  0  0
    4.5392    0.6901    1.2745 C   0  0  0  0  0  0  0  0  0  0  0  0
    5.0896    1.7618    2.0358 C   0  0  0  0  0  0  0  0  0  0  0  0
    6.4949    2.0983    1.8798 N   0  0  0  0  0  0  0  0  0  0  0  0
    6.9156    2.0887    0.3978 C   0  0  0  0  0  0  0  0  0  0  0  0
    8.2355    1.3707    0.1413 C   0  0  0  0  0  0  0  0  0  0  0  0
    8.2102   -0.0875    0.5568 C   0  0  0  0  0  0  0  0  0  0  0  0
    9.5474   -0.7024    0.4193 N   0  0  0  0  0  0  0  0  0  0  0  0
   10.5462    0.0067    1.2482 C   0  0  0  0  0  0  0  0  0  0  0  0
   11.9263   -0.6200    1.1264 C   0  0  0  0  0  0  0  0  0  0  0  0
   11.8629   -2.0762    1.5541 C   0  0  0  0  0  0  0  0  0  0  0  0
   10.8097   -2.8130    0.7226 C   0  0  0  0  0  0  0  0  0  0  0  0
    9.4485   -2.1107    0.8476 C   0  0  0  0  0  0  0  0  0  0  0  0
    7.4079    2.6976    2.8762 C   0  0  0  0  0  0  0  0  0  0  0  0
    8.1007    3.6951    2.2903 C   0  0  0  0  0  0  0  0  0  0  0  0
    9.1708    4.1580    2.7943 C   0  0  0  0  0  0  0  0  0  0  0  0
    9.6341    3.8190    3.9506 C   0  0  0  0  0  0  0  0  0  0  0  0
   10.8689    4.1201    3.9183 N   0  0  0  0  0  0  0  0  0  0  0  0
   11.6575    4.2190    4.8740 C   0  0  0  0  0  0  0  0  0  0  0  0
   11.1924    4.2608    6.1385 C   0  0  0  0  0  0  0  0  0  0  0  0
   12.4041    5.2241    6.7874 C   0  0  0  0  0  0  0  0  0  0  0  0
   13.1765    6.1677    5.9870 C   0  0  0  0  0  0  0  0  0  0  0  0
   14.0668    6.8556    6.6733 N   0  0  0  0  0  0  0  0  0  0  0  0
   13.9862    6.5038    7.9586 N   0  0  0  0  0  0  0  0  0  0  0  0
   14.9057    7.1231    8.9883 C   0  0  0  0  0  0  0  0  0  0  0  0
   13.0037    5.5256    8.1024 C   0  0  0  0  0  0  0  0  0  0  0  0
    9.8919    3.4720    6.2175 N   0  0  0  0  0  0  0  0  0  0  0  0
    9.0776    3.1582    4.9856 C   0  0  0  0  0  0  0  0  0  0  0  0
    7.7778    2.4131    4.3572 C   0  0  0  0  0  0  0  0  0  0  0  0
    4.1884    2.5631    2.7920 C   0  0  0  0  0  0  0  0  0  0  0  0
    2.2281    0.6552   -2.1543 Cl  0  0  0  0  0  0  0  0  0  0  0  0
    0.8919    4.8235    3.4041 H   0  0  0  0  0  0  0  0  0  0  0  0
    2.6886    4.8697    3.5326 H   0  0  0  0  0  0  0  0  0  0  0  0
    1.6660    4.2342    4.9107 H   0  0  0  0  0  0  0  0  0  0  0  0
    1.2696    0.9496    2.0661 H   0  0  0  0  0  0  0  0  0  0  0  0
    2.4947   -2.3043   -0.4490 H   0  0  0  0  0  0  0  0  0  0  0  0
    3.6523   -2.3573    0.9460 H   0  0  0  0  0  0  0  0  0  0  0  0
    4.0424   -1.3991   -0.5667 H   0  0  0  0  0  0  0  0  0  0  0  0
    5.1746    0.0994    0.6286 H   0  0  0  0  0  0  0  0  0  0  0  0
    7.0566    3.0988   -0.0418 H   0  0  0  0  0  0  0  0  0  0  0  0
    6.1787    1.7038   -0.3360 H   0  0  0  0  0  0  0  0  0  0  0  0
    8.9577    1.9311    0.7351 H   0  0  0  0  0  0  0  0  0  0  0  0
    8.5595    1.4283   -0.9285 H   0  0  0  0  0  0  0  0  0  0  0  0
    7.4769   -0.6162   -0.0978 H   0  0  0  0  0  0  0  0  0  0  0  0
    7.8612   -0.1490    1.6096 H   0  0  0  0  0  0  0  0  0  0  0  0
   10.2208    0.0379    2.3151 H   0  0  0  0  0  0  0  0  0  0  0  0
   10.7365    1.0368    0.8900 H   0  0  0  0  0  0  0  0  0  0  0  0
   12.6376   -0.0570    1.7704 H   0  0  0  0  0  0  0  0  0  0  0  0
   12.2625   -0.5399    0.0685 H   0  0  0  0  0  0  0  0  0  0  0  0
   11.5890   -2.1230    2.6305 H   0  0  0  0  0  0  0  0  0  0  0  0
   12.8602   -2.5408    1.4143 H   0  0  0  0  0  0  0  0  0  0  0  0
   10.7232   -3.8596    1.0826 H   0  0  0  0  0  0  0  0  0  0  0  0
   11.1166   -2.8224   -0.3459 H   0  0  0  0  0  0  0  0  0  0  0  0
    9.1010   -2.1708    1.9025 H   0  0  0  0  0  0  0  0  0  0  0  0
    8.7189   -2.6580    0.2064 H   0  0  0  0  0  0  0  0  0  0  0  0
    8.0020    4.0984    1.3282 H   0  0  0  0  0  0  0  0  0  0  0  0
    9.7538    4.8537    2.2160 H   0  0  0  0  0  0  0  0  0  0  0  0
   12.5656    4.5271    4.4874 H   0  0  0  0  0  0  0  0  0  0  0  0
   13.1501    6.3882    4.9034 H   0  0  0  0  0  0  0  0  0  0  0  0
   15.6081    7.9151    8.5290 H   0  0  0  0  0  0  0  0  0  0  0  0
   15.5371    6.4283    9.5044 H   0  0  0  0  0  0  0  0  0  0  0  0
   14.3057    7.7366    9.7128 H   0  0  0  0  0  0  0  0  0  0  0  0
   12.7693    5.1196    9.0443 H   0  0  0  0  0  0  0  0  0  0  0  0
    7.1578    1.6461    4.8553 H   0  0  0  0  0  0  0  0  0  0  0  0
    4.5482    3.4242    3.3380 H   0  0  0  0  0  0  0  0  0  0  0  0
    1.8017    0.9436   -0.8827 H   0  0  0  0  0  0  0  0  0  0  0  0
  1  2  1  0  0  0  0
  1 38  1  0  0  0  0
  1 39  1  0  0  0  0
  1 40  1  0  0  0  0
  2  3  1  0  0  0  0
  3  4  1  0  0  0  0
  3 36  2  0  0  0  0
  4  5  2  0  0  0  0
  4 41  1  0  0  0  0
  5  6  1  0  0  0  0
  5  8  1  0  0  0  0
  6  7  1  0  0  0  0
  7 42  1  0  0  0  0
  7 43  1  0  0  0  0
  7 44  1  0  0  0  0
  8  9  2  0  0  0  0
  8 45  1  0  0  0  0
  9 10  1  0  0  0  0
  9 36  1  0  0  0  0
 10 11  1  0  0  0  0
 10 20  1  0  0  0  0
 11 12  1  0  0  0  0
 11 46  1  0  0  0  0
 11 47  1  0  0  0  0
 12 13  1  0  0  0  0
 12 48  1  0  0  0  0
 12 49  1  0  0  0  0
 13 14  1  0  0  0  0
 13 50  1  0  0  0  0
 13 51  1  0  0  0  0
 14 15  1  0  0  0  0
 14 19  1  0  0  0  0
 15 16  1  0  0  0  0
 15 52  1  0  0  0  0
 15 53  1  0  0  0  0
 16 17  1  0  0  0  0
 16 54  1  0  0  0  0
 16 55  1  0  0  0  0
 17 18  1  0  0  0  0
 17 56  1  0  0  0  0
 17 57  1  0  0  0  0
 18 19  1  0  0  0  0
 18 58  1  0  0  0  0
 18 59  1  0  0  0  0
 19 60  1  0  0  0  0
 19 61  1  0  0  0  0
 20 21  1  0  0  0  0
 20 35  2  0  0  0  0
 21 22  2  0  0  0  0
 21 62  1  0  0  0  0
 22 23  1  0  0  0  0
 22 63  1  0  0  0  0
 23 24  1  0  0  0  0
 23 34  2  0  0  0  0
 24 25  2  0  0  0  0
 25 26  1  0  0  0  0
 25 64  1  0  0  0  0
 26 27  1  0  0  0  0
 26 33  2  0  0  0  0
 27 28  1  0  0  0  0
 27 32  2  0  0  0  0
 28 29  2  0  0  0  0
 28 65  1  0  0  0  0
 29 30  1  0  0  0  0
 30 31  1  0  0  0  0
 30 32  1  0  0  0  0
 31 66  1  0  0  0  0
 31 67  1  0  0  0  0
 31 68  1  0  0  0  0
 32 69  1  0  0  0  0
 33 34  1  0  0  0  0
 34 35  1  0  0  0  0
 35 70  1  0  0  0  0
 36 71  1  0  0  0  0
 37 72  1  0  0  0  0
M  END
$$$$
