CHEMBL3951403
 OpenBabel04072215373D

 71 75  0  0  1  0  0  0  0  0999 V2000
   -0.4178    3.1515    2.8384 C   0  0  0  0  0  0  0  0  0  0  0  0
    0.7318    3.5726    2.1273 O   0  0  0  0  0  0  0  0  0  0  0  0
    1.7713    2.7018    1.9697 C   0  0  0  0  0  0  0  0  0  0  0  0
    3.0131    3.3461    1.9585 C   0  0  0  0  0  0  0  0  0  0  0  0
    4.2194    2.6295    1.7547 C   0  0  0  0  0  0  0  0  0  0  0  0
    5.5116    3.1685    1.7575 C   0  0  0  0  0  0  0  0  0  0  0  0
    5.7014    4.5447    2.0274 N   0  0  0  0  0  0  0  0  0  0  0  0
    6.8771    5.2319    1.6917 C   0  0  0  0  0  0  0  0  0  0  0  0
    7.4174    5.0866    0.3990 C   0  0  0  0  0  0  0  0  0  0  0  0
    8.6464    5.6497    0.0704 C   0  0  0  0  0  0  0  0  0  0  0  0
    9.3513    6.3761    1.0237 C   0  0  0  0  0  0  0  0  0  0  0  0
   10.9010    6.9967    0.5731 Cl  0  0  0  0  0  0  0  0  0  0  0  0
    8.8026    6.5668    2.3015 C   0  0  0  0  0  0  0  0  0  0  0  0
    9.6223    7.4707    3.5282 Cl  0  0  0  0  0  0  0  0  0  0  0  0
    7.5640    6.0006    2.6328 C   0  0  0  0  0  0  0  0  0  0  0  0
    6.6024    2.4137    1.5003 N   0  0  0  0  0  0  0  0  0  0  0  0
    6.4105    1.1190    1.2430 C   0  0  0  0  0  0  0  0  0  0  0  0
    5.2311    0.5062    1.2295 N   0  0  0  0  0  0  0  0  0  0  0  0
    4.1685    1.2682    1.4827 C   0  0  0  0  0  0  0  0  0  0  0  0
    2.9385    0.6509    1.4718 C   0  0  0  0  0  0  0  0  0  0  0  0
    1.7348    1.3203    1.7611 C   0  0  0  0  0  0  0  0  0  0  0  0
    0.5462    0.6296    1.8161 O   0  0  0  0  0  0  0  0  0  0  0  0
    0.7364   -0.7715    2.0713 C   0  0  0  0  0  0  0  0  0  0  0  0
   -0.5366   -1.4642    2.5075 C   0  0  3  0  0  0  0  0  0  0  0  0
   -1.1479   -0.7801    3.7488 C   0  0  0  0  0  0  0  0  0  0  0  0
   -2.3594   -1.4810    4.2424 N   0  0  0  0  0  0  0  0  0  0  0  0
   -3.4313   -1.3362    3.2407 C   0  0  0  0  0  0  0  0  0  0  0  0
   -4.7542   -1.9911    3.6211 C   0  0  0  0  0  0  0  0  0  0  0  0
   -5.8269   -1.8315    2.5221 C   0  0  0  0  0  0  0  0  0  0  0  0
   -7.1068   -2.5445    2.9832 C   0  0  0  0  0  0  0  0  0  0  0  0
   -8.1979   -2.5286    1.9192 C   0  0  0  0  0  0  0  0  0  0  0  0
   -7.6981   -3.1054    0.6002 C   0  0  0  0  0  0  0  0  0  0  0  0
   -6.4697   -2.3544    0.1097 C   0  0  0  0  0  0  0  0  0  0  0  0
   -5.3588   -2.3675    1.1536 C   0  0  0  0  0  0  0  0  0  0  0  0
   -1.9633   -2.8908    4.4842 C   0  0  0  0  0  0  0  0  0  0  0  0
   -1.3197   -3.5750    3.2678 C   0  0  0  0  0  0  0  0  0  0  0  0
   -0.1926   -2.8360    2.7881 O   0  0  0  0  0  0  0  0  0  0  0  0
   -0.7013    3.9692    3.5113 H   0  0  0  0  0  0  0  0  0  0  0  0
   -0.2599    2.2690    3.4618 H   0  0  0  0  0  0  0  0  0  0  0  0
   -1.2466    2.9987    2.1386 H   0  0  0  0  0  0  0  0  0  0  0  0
    3.0394    4.4242    2.1017 H   0  0  0  0  0  0  0  0  0  0  0  0
    5.3418    4.7660    2.9537 H   0  0  0  0  0  0  0  0  0  0  0  0
    6.8867    4.4981   -0.3470 H   0  0  0  0  0  0  0  0  0  0  0  0
    9.0549    5.4873   -0.9275 H   0  0  0  0  0  0  0  0  0  0  0  0
    7.1664    6.1278    3.6335 H   0  0  0  0  0  0  0  0  0  0  0  0
    7.2870    0.5207    1.0253 H   0  0  0  0  0  0  0  0  0  0  0  0
    2.9598   -0.4067    1.2232 H   0  0  0  0  0  0  0  0  0  0  0  0
    1.4866   -0.9321    2.8592 H   0  0  0  0  0  0  0  0  0  0  0  0
    1.0743   -1.2683    1.1523 H   0  0  0  0  0  0  0  0  0  0  0  0
   -1.2249   -1.4376    1.6560 H   0  0  0  0  0  0  0  0  0  0  0  0
   -1.3924    0.2671    3.5408 H   0  0  0  0  0  0  0  0  0  0  0  0
   -0.4089   -0.7665    4.5615 H   0  0  0  0  0  0  0  0  0  0  0  0
   -3.1120   -1.7496    2.2835 H   0  0  0  0  0  0  0  0  0  0  0  0
   -3.6154   -0.2678    3.0730 H   0  0  0  0  0  0  0  0  0  0  0  0
   -5.1182   -1.5499    4.5574 H   0  0  0  0  0  0  0  0  0  0  0  0
   -4.6096   -3.0615    3.8040 H   0  0  0  0  0  0  0  0  0  0  0  0
   -6.0472   -0.7614    2.4075 H   0  0  0  0  0  0  0  0  0  0  0  0
   -7.4841   -2.0701    3.8971 H   0  0  0  0  0  0  0  0  0  0  0  0
   -6.8761   -3.5865    3.2407 H   0  0  0  0  0  0  0  0  0  0  0  0
   -8.5404   -1.4986    1.7641 H   0  0  0  0  0  0  0  0  0  0  0  0
   -9.0587   -3.1065    2.2714 H   0  0  0  0  0  0  0  0  0  0  0  0
   -8.4907   -3.0498   -0.1535 H   0  0  0  0  0  0  0  0  0  0  0  0
   -7.4503   -4.1661    0.7309 H   0  0  0  0  0  0  0  0  0  0  0  0
   -6.7386   -1.3164   -0.1221 H   0  0  0  0  0  0  0  0  0  0  0  0
   -6.1042   -2.8042   -0.8206 H   0  0  0  0  0  0  0  0  0  0  0  0
   -4.5362   -1.7594    0.7613 H   0  0  0  0  0  0  0  0  0  0  0  0
   -4.9762   -3.3901    1.2662 H   0  0  0  0  0  0  0  0  0  0  0  0
   -2.8068   -3.4824    4.8542 H   0  0  0  0  0  0  0  0  0  0  0  0
   -1.2321   -2.8863    5.3043 H   0  0  0  0  0  0  0  0  0  0  0  0
   -2.0329   -3.7119    2.4472 H   0  0  0  0  0  0  0  0  0  0  0  0
   -0.9607   -4.5692    3.5531 H   0  0  0  0  0  0  0  0  0  0  0  0
  1  2  1  0  0  0  0
  1 38  1  0  0  0  0
  1 39  1  0  0  0  0
  1 40  1  0  0  0  0
  2  3  1  0  0  0  0
  3  4  1  0  0  0  0
  3 21  2  0  0  0  0
  4  5  2  0  0  0  0
  4 41  1  0  0  0  0
  5  6  1  0  0  0  0
  5 19  1  0  0  0  0
  6  7  1  0  0  0  0
  6 16  2  0  0  0  0
  7  8  1  0  0  0  0
  7 42  1  0  0  0  0
  8  9  1  0  0  0  0
  8 15  2  0  0  0  0
  9 10  2  0  0  0  0
  9 43  1  0  0  0  0
 10 11  1  0  0  0  0
 10 44  1  0  0  0  0
 11 12  1  0  0  0  0
 11 13  2  0  0  0  0
 13 14  1  0  0  0  0
 13 15  1  0  0  0  0
 15 45  1  0  0  0  0
 16 17  1  0  0  0  0
 17 18  2  0  0  0  0
 17 46  1  0  0  0  0
 18 19  1  0  0  0  0
 19 20  2  0  0  0  0
 20 21  1  0  0  0  0
 20 47  1  0  0  0  0
 21 22  1  0  0  0  0
 22 23  1  0  0  0  0
 23 24  1  0  0  0  0
 23 48  1  0  0  0  0
 23 49  1  0  0  0  0
 24 25  1  0  0  0  0
 24 37  1  0  0  0  0
 24 50  1  0  0  0  0
 25 26  1  0  0  0  0
 25 51  1  0  0  0  0
 25 52  1  0  0  0  0
 26 27  1  0  0  0  0
 26 35  1  0  0  0  0
 27 28  1  0  0  0  0
 27 53  1  0  0  0  0
 27 54  1  0  0  0  0
 28 29  1  0  0  0  0
 28 55  1  0  0  0  0
 28 56  1  0  0  0  0
 29 30  1  0  0  0  0
 29 34  1  0  0  0  0
 29 57  1  0  0  0  0
 30 31  1  0  0  0  0
 30 58  1  0  0  0  0
 30 59  1  0  0  0  0
 31 32  1  0  0  0  0
 31 60  1  0  0  0  0
 31 61  1  0  0  0  0
 32 33  1  0  0  0  0
 32 62  1  0  0  0  0
 32 63  1  0  0  0  0
 33 34  1  0  0  0  0
 33 64  1  0  0  0  0
 33 65  1  0  0  0  0
 34 66  1  0  0  0  0
 34 67  1  0  0  0  0
 35 36  1  0  0  0  0
 35 68  1  0  0  0  0
 35 69  1  0  0  0  0
 36 37  1  0  0  0  0
 36 70  1  0  0  0  0
 36 71  1  0  0  0  0
M  END
$$$$
