CHEMBL478629
 OpenBabel04072215383D

 55 59  0  0  0  0  0  0  0  0999 V2000
    2.9344   -2.3668   -2.3294 C   0  0  0  0  0  0  0  0  0  0  0  0
    3.3015   -1.2883   -1.5422 C   0  0  0  0  0  0  0  0  0  0  0  0
    2.3403   -0.6985   -0.7189 C   0  0  0  0  0  0  0  0  0  0  0  0
    2.6661    0.4234    0.1485 C   0  0  0  0  0  0  0  0  0  0  0  0
    1.8499    1.4796    0.6121 C   0  0  0  0  0  0  0  0  0  0  0  0
    2.4830    2.3187    1.4317 N   0  0  0  0  0  0  0  0  0  0  0  0
    3.7382    1.8170    1.5169 N   0  0  0  0  0  0  0  0  0  0  0  0
    4.7955    2.3243    2.2650 C   0  0  0  0  0  0  0  0  0  0  0  0
    5.9922    1.7168    2.2487 C   0  0  0  0  0  0  0  0  0  0  0  0
    7.1392    2.1978    3.0110 C   0  0  0  0  0  0  0  0  0  0  0  0
    7.3305    1.7774    4.3297 C   0  0  0  0  0  0  0  0  0  0  0  0
    8.4223    2.2460    5.0667 C   0  0  0  0  0  0  0  0  0  0  0  0
    9.3353    3.1364    4.4942 C   0  0  0  0  0  0  0  0  0  0  0  0
   10.4212    3.6685    5.1459 O   0  0  0  0  0  0  0  0  0  0  0  0
   10.9972    2.7919    6.1216 C   0  0  0  0  0  0  0  0  0  0  0  0
   12.2621    3.4133    6.7414 C   0  0  0  0  0  0  0  0  0  0  0  0
   12.8592    2.5629    7.7963 N   0  0  0  0  0  0  0  0  0  0  0  0
   13.3135    1.2656    7.2706 C   0  0  0  0  0  0  0  0  0  0  0  0
   13.8600    0.3718    8.3824 C   0  0  0  0  0  0  0  0  0  0  0  0
   14.9930    1.0551    9.1308 C   0  0  0  0  0  0  0  0  0  0  0  0
   14.5534    2.4340    9.6082 C   0  0  0  0  0  0  0  0  0  0  0  0
   13.9667    3.2678    8.4643 C   0  0  0  0  0  0  0  0  0  0  0  0
    9.1358    3.5667    3.1818 C   0  0  0  0  0  0  0  0  0  0  0  0
    8.0465    3.0962    2.4399 C   0  0  0  0  0  0  0  0  0  0  0  0
    6.0626    0.4947    1.3921 C   0  0  0  0  0  0  0  0  0  0  0  0
    5.0945   -0.0087    0.6861 N   0  0  0  0  0  0  0  0  0  0  0  0
    3.8955    0.6630    0.7394 C   0  0  0  0  0  0  0  0  0  0  0  0
    1.0424   -1.2164   -0.7418 C   0  0  0  0  0  0  0  0  0  0  0  0
    0.7726   -2.2976   -1.5672 C   0  0  0  0  0  0  0  0  0  0  0  0
    1.6885   -2.8847   -2.3616 N   0  0  0  0  0  0  0  0  0  0  0  0
    3.6589   -2.8573   -2.9731 H   0  0  0  0  0  0  0  0  0  0  0  0
    4.3237   -0.9279   -1.5793 H   0  0  0  0  0  0  0  0  0  0  0  0
    0.8099    1.6740    0.3804 H   0  0  0  0  0  0  0  0  0  0  0  0
    4.5785    3.2152    2.8402 H   0  0  0  0  0  0  0  0  0  0  0  0
    6.6318    1.0904    4.8013 H   0  0  0  0  0  0  0  0  0  0  0  0
    8.5170    1.9112    6.0945 H   0  0  0  0  0  0  0  0  0  0  0  0
   11.2453    1.8508    5.6179 H   0  0  0  0  0  0  0  0  0  0  0  0
   10.2895    2.6091    6.9373 H   0  0  0  0  0  0  0  0  0  0  0  0
   11.9674    4.3773    7.1792 H   0  0  0  0  0  0  0  0  0  0  0  0
   12.9902    3.6500    5.9552 H   0  0  0  0  0  0  0  0  0  0  0  0
   14.0741    1.4072    6.4922 H   0  0  0  0  0  0  0  0  0  0  0  0
   12.4815    0.7161    6.8205 H   0  0  0  0  0  0  0  0  0  0  0  0
   14.2109   -0.5738    7.9545 H   0  0  0  0  0  0  0  0  0  0  0  0
   13.0516    0.1241    9.0830 H   0  0  0  0  0  0  0  0  0  0  0  0
   15.8616    1.1534    8.4685 H   0  0  0  0  0  0  0  0  0  0  0  0
   15.3033    0.4399    9.9823 H   0  0  0  0  0  0  0  0  0  0  0  0
   15.4088    2.9580   10.0493 H   0  0  0  0  0  0  0  0  0  0  0  0
   13.8036    2.3217   10.4019 H   0  0  0  0  0  0  0  0  0  0  0  0
   14.7599    3.5140    7.7462 H   0  0  0  0  0  0  0  0  0  0  0  0
   13.6059    4.2132    8.8879 H   0  0  0  0  0  0  0  0  0  0  0  0
    9.8344    4.2659    2.7295 H   0  0  0  0  0  0  0  0  0  0  0  0
    7.9125    3.4426    1.4167 H   0  0  0  0  0  0  0  0  0  0  0  0
    7.0425   -0.0124    1.3712 H   0  0  0  0  0  0  0  0  0  0  0  0
    0.2506   -0.8107   -0.1217 H   0  0  0  0  0  0  0  0  0  0  0  0
   -0.2213   -2.7360   -1.6051 H   0  0  0  0  0  0  0  0  0  0  0  0
  1  2  1  0  0  0  0
  1 30  2  0  0  0  0
  1 31  1  0  0  0  0
  2  3  2  0  0  0  0
  2 32  1  0  0  0  0
  3  4  1  0  0  0  0
  3 28  1  0  0  0  0
  4  5  1  0  0  0  0
  4 27  2  0  0  0  0
  5  6  2  0  0  0  0
  5 33  1  0  0  0  0
  6  7  1  0  0  0  0
  7  8  1  0  0  0  0
  7 27  1  0  0  0  0
  8  9  2  0  0  0  0
  8 34  1  0  0  0  0
  9 10  1  0  0  0  0
  9 25  1  0  0  0  0
 10 11  1  0  0  0  0
 10 24  2  0  0  0  0
 11 12  2  0  0  0  0
 11 35  1  0  0  0  0
 12 13  1  0  0  0  0
 12 36  1  0  0  0  0
 13 14  1  0  0  0  0
 13 23  2  0  0  0  0
 14 15  1  0  0  0  0
 15 16  1  0  0  0  0
 15 37  1  0  0  0  0
 15 38  1  0  0  0  0
 16 17  1  0  0  0  0
 16 39  1  0  0  0  0
 16 40  1  0  0  0  0
 17 18  1  0  0  0  0
 17 22  1  0  0  0  0
 18 19  1  0  0  0  0
 18 41  1  0  0  0  0
 18 42  1  0  0  0  0
 19 20  1  0  0  0  0
 19 43  1  0  0  0  0
 19 44  1  0  0  0  0
 20 21  1  0  0  0  0
 20 45  1  0  0  0  0
 20 46  1  0  0  0  0
 21 22  1  0  0  0  0
 21 47  1  0  0  0  0
 21 48  1  0  0  0  0
 22 49  1  0  0  0  0
 22 50  1  0  0  0  0
 23 24  1  0  0  0  0
 23 51  1  0  0  0  0
 24 52  1  0  0  0  0
 25 26  2  0  0  0  0
 25 53  1  0  0  0  0
 26 27  1  0  0  0  0
 28 29  2  0  0  0  0
 28 54  1  0  0  0  0
 29 30  1  0  0  0  0
 29 55  1  0  0  0  0
M  END
$$$$
