CHEMBL3952277
 OpenBabel04072215373D

 60 63  0  0  0  0  0  0  0  0999 V2000
    1.3423    0.0874    0.4780 C   0  0  0  0  0  0  0  0  0  0  0  0
    2.3066   -0.1039   -0.5550 O   0  0  0  0  0  0  0  0  0  0  0  0
    2.9586    1.0219   -1.0006 C   0  0  0  0  0  0  0  0  0  0  0  0
    2.5742    2.3228   -0.7206 C   0  0  0  0  0  0  0  0  0  0  0  0
    3.2962    3.3838   -1.2649 C   0  0  0  0  0  0  0  0  0  0  0  0
    2.9920    4.7083   -1.1031 O   0  0  0  0  0  0  0  0  0  0  0  0
    1.9826    5.0126   -0.1475 C   0  0  0  0  0  0  0  0  0  0  0  0
    4.4284    3.1362   -2.0550 C   0  0  0  0  0  0  0  0  0  0  0  0
    4.9137    1.8441   -2.2790 C   0  0  0  0  0  0  0  0  0  0  0  0
    6.1120    1.6329   -3.0071 N   0  0  0  0  0  0  0  0  0  0  0  0
    6.7606    0.2617   -2.9306 C   0  0  0  0  0  0  0  0  0  0  0  0
    7.9148    0.2695   -1.8954 C   0  0  0  0  0  0  0  0  0  0  0  0
    8.6656   -0.9769   -1.6325 N   0  0  0  0  0  0  0  0  0  0  0  0
    9.3741   -1.4713   -2.8184 C   0  0  0  0  0  0  0  0  0  0  0  0
    9.6583   -0.6699   -0.5873 C   0  0  0  0  0  0  0  0  0  0  0  0
    7.1006    2.5855   -3.4839 C   0  0  0  0  0  0  0  0  0  0  0  0
    7.6709    2.2733   -4.7193 C   0  0  0  0  0  0  0  0  0  0  0  0
    8.9690    2.6384   -4.9800 C   0  0  0  0  0  0  0  0  0  0  0  0
    9.6801    3.4417   -4.1305 C   0  0  0  0  0  0  0  0  0  0  0  0
   10.9846    3.5205   -4.3889 N   0  0  0  0  0  0  0  0  0  0  0  0
   11.6702    4.4336   -3.6943 C   0  0  0  0  0  0  0  0  0  0  0  0
   11.0534    5.3236   -2.8351 C   0  0  0  0  0  0  0  0  0  0  0  0
   11.7936    6.5492   -2.5542 C   0  0  0  0  0  0  0  0  0  0  0  0
   11.6473    7.8257   -3.1551 C   0  0  0  0  0  0  0  0  0  0  0  0
   12.6591    8.6560   -2.8731 N   0  0  0  0  0  0  0  0  0  0  0  0
   13.4623    7.9161   -2.0911 N   0  0  0  0  0  0  0  0  0  0  0  0
   14.5628    8.5328   -1.3866 C   0  0  0  0  0  0  0  0  0  0  0  0
   13.0603    6.6098   -1.9965 C   0  0  0  0  0  0  0  0  0  0  0  0
    9.7421    5.1442   -2.4542 N   0  0  0  0  0  0  0  0  0  0  0  0
    9.0354    4.1201   -3.0600 C   0  0  0  0  0  0  0  0  0  0  0  0
    7.7289    3.6024   -2.7155 C   0  0  0  0  0  0  0  0  0  0  0  0
    4.0938    0.7940   -1.7965 C   0  0  0  0  0  0  0  0  0  0  0  0
    1.0174   -0.8967    0.8300 H   0  0  0  0  0  0  0  0  0  0  0  0
    0.4586    0.6127    0.1008 H   0  0  0  0  0  0  0  0  0  0  0  0
    1.7781    0.6156    1.3331 H   0  0  0  0  0  0  0  0  0  0  0  0
    1.7050    2.5119   -0.1076 H   0  0  0  0  0  0  0  0  0  0  0  0
    1.9016    6.1002   -0.0819 H   0  0  0  0  0  0  0  0  0  0  0  0
    2.2525    4.6379    0.8455 H   0  0  0  0  0  0  0  0  0  0  0  0
    1.0090    4.6260   -0.4654 H   0  0  0  0  0  0  0  0  0  0  0  0
    4.9329    3.9914   -2.4958 H   0  0  0  0  0  0  0  0  0  0  0  0
    7.1365   -0.0333   -3.9173 H   0  0  0  0  0  0  0  0  0  0  0  0
    6.0625   -0.5413   -2.6893 H   0  0  0  0  0  0  0  0  0  0  0  0
    7.4680    0.5990   -0.9485 H   0  0  0  0  0  0  0  0  0  0  0  0
    8.6459    1.0329   -2.1800 H   0  0  0  0  0  0  0  0  0  0  0  0
    8.6741   -1.7881   -3.5976 H   0  0  0  0  0  0  0  0  0  0  0  0
    9.9668   -2.3579   -2.5615 H   0  0  0  0  0  0  0  0  0  0  0  0
   10.0558   -0.7244   -3.2424 H   0  0  0  0  0  0  0  0  0  0  0  0
    9.1626   -0.2863    0.3117 H   0  0  0  0  0  0  0  0  0  0  0  0
   10.3818    0.0854   -0.9214 H   0  0  0  0  0  0  0  0  0  0  0  0
   10.2089   -1.5675   -0.2902 H   0  0  0  0  0  0  0  0  0  0  0  0
    7.1586    1.6024   -5.4026 H   0  0  0  0  0  0  0  0  0  0  0  0
    9.4721    2.2235   -5.8623 H   0  0  0  0  0  0  0  0  0  0  0  0
   12.7304    4.4936   -3.9233 H   0  0  0  0  0  0  0  0  0  0  0  0
   10.8721    8.1714   -3.8279 H   0  0  0  0  0  0  0  0  0  0  0  0
   14.6122    9.5977   -1.6312 H   0  0  0  0  0  0  0  0  0  0  0  0
   15.4974    8.0393   -1.6637 H   0  0  0  0  0  0  0  0  0  0  0  0
   14.3706    8.4137   -0.3169 H   0  0  0  0  0  0  0  0  0  0  0  0
   13.6962    5.8645   -1.5392 H   0  0  0  0  0  0  0  0  0  0  0  0
    7.2859    3.9435   -1.7831 H   0  0  0  0  0  0  0  0  0  0  0  0
    4.2945   -0.2440   -2.0278 H   0  0  0  0  0  0  0  0  0  0  0  0
  1  2  1  0  0  0  0
  1 33  1  0  0  0  0
  1 34  1  0  0  0  0
  1 35  1  0  0  0  0
  2  3  1  0  0  0  0
  3  4  1  0  0  0  0
  3 32  2  0  0  0  0
  4  5  2  0  0  0  0
  4 36  1  0  0  0  0
  5  6  1  0  0  0  0
  5  8  1  0  0  0  0
  6  7  1  0  0  0  0
  7 37  1  0  0  0  0
  7 38  1  0  0  0  0
  7 39  1  0  0  0  0
  8  9  2  0  0  0  0
  8 40  1  0  0  0  0
  9 10  1  0  0  0  0
  9 32  1  0  0  0  0
 10 11  1  0  0  0  0
 10 16  1  0  0  0  0
 11 12  1  0  0  0  0
 11 41  1  0  0  0  0
 11 42  1  0  0  0  0
 12 13  1  0  0  0  0
 12 43  1  0  0  0  0
 12 44  1  0  0  0  0
 13 14  1  0  0  0  0
 13 15  1  0  0  0  0
 14 45  1  0  0  0  0
 14 46  1  0  0  0  0
 14 47  1  0  0  0  0
 15 48  1  0  0  0  0
 15 49  1  0  0  0  0
 15 50  1  0  0  0  0
 16 17  1  0  0  0  0
 16 31  2  0  0  0  0
 17 18  2  0  0  0  0
 17 51  1  0  0  0  0
 18 19  1  0  0  0  0
 18 52  1  0  0  0  0
 19 20  1  0  0  0  0
 19 30  2  0  0  0  0
 20 21  2  0  0  0  0
 21 22  1  0  0  0  0
 21 53  1  0  0  0  0
 22 23  1  0  0  0  0
 22 29  2  0  0  0  0
 23 24  1  0  0  0  0
 23 28  2  0  0  0  0
 24 25  2  0  0  0  0
 24 54  1  0  0  0  0
 25 26  1  0  0  0  0
 26 27  1  0  0  0  0
 26 28  1  0  0  0  0
 27 55  1  0  0  0  0
 27 56  1  0  0  0  0
 27 57  1  0  0  0  0
 28 58  1  0  0  0  0
 29 30  1  0  0  0  0
 30 31  1  0  0  0  0
 31 59  1  0  0  0  0
 32 60  1  0  0  0  0
M  END
$$$$
