CHEMBL407008
 OpenBabel04072215383D

 42 45  0  0  0  0  0  0  0  0999 V2000
    1.9496   -1.2111   -0.3014 N   0  0  0  0  0  0  0  0  0  0  0  0
    2.4707   -0.0441    0.1830 C   0  0  0  0  0  0  0  0  0  0  0  0
    2.2845    0.2882    1.3467 O   0  0  0  0  0  0  0  0  0  0  0  0
    3.1974    0.8321   -0.7737 C   0  0  0  0  0  0  0  0  0  0  0  0
    3.3218    2.1842   -0.4565 C   0  0  0  0  0  0  0  0  0  0  0  0
    3.9302    3.0651   -1.3556 C   0  0  0  0  0  0  0  0  0  0  0  0
    4.3641    2.6479   -2.6284 C   0  0  0  0  0  0  0  0  0  0  0  0
    4.8748    3.6091   -3.6446 C   0  0  0  0  0  0  0  0  0  0  0  0
    5.8968    3.1318   -4.3916 N   0  0  0  0  0  0  0  0  0  0  0  0
    6.5263    3.9290   -5.3170 N   0  0  0  0  0  0  0  0  0  0  0  0
    6.1709    5.2204   -5.4765 C   0  0  0  0  0  0  0  0  0  0  0  0
    6.8158    6.0237   -6.4558 N   0  0  0  0  0  0  0  0  0  0  0  0
    8.1163    5.8577   -6.9744 C   0  0  0  0  0  0  0  0  0  0  0  0
    9.1584    5.3540   -6.1798 C   0  0  0  0  0  0  0  0  0  0  0  0
   10.4684    5.2908   -6.6632 C   0  0  0  0  0  0  0  0  0  0  0  0
   10.7600    5.7442   -7.9461 C   0  0  0  0  0  0  0  0  0  0  0  0
    9.7362    6.2627   -8.7371 C   0  0  0  0  0  0  0  0  0  0  0  0
   10.0936    6.8308  -10.3226 Cl  0  0  0  0  0  0  0  0  0  0  0  0
    8.4262    6.3371   -8.2553 C   0  0  0  0  0  0  0  0  0  0  0  0
    5.1243    5.7756   -4.7136 C   0  0  0  0  0  0  0  0  0  0  0  0
    4.7855    7.1522   -4.7781 C   0  0  0  0  0  0  0  0  0  0  0  0
    3.7435    7.6909   -4.0262 C   0  0  0  0  0  0  0  0  0  0  0  0
    2.9659    6.8539   -3.2472 C   0  0  0  0  0  0  0  0  0  0  0  0
    3.2769    5.4973   -3.1725 C   0  0  0  0  0  0  0  0  0  0  0  0
    4.4082    4.9362   -3.8238 C   0  0  0  0  0  0  0  0  0  0  0  0
    4.3195    1.2633   -2.8839 C   0  0  0  0  0  0  0  0  0  0  0  0
    3.7522    0.3623   -1.9670 C   0  0  0  0  0  0  0  0  0  0  0  0
    1.3448   -1.7227    0.3288 H   0  0  0  0  0  0  0  0  0  0  0  0
    1.8712   -1.4090   -1.2877 H   0  0  0  0  0  0  0  0  0  0  0  0
    2.9338    2.5658    0.4864 H   0  0  0  0  0  0  0  0  0  0  0  0
    4.0421    4.1010   -1.0419 H   0  0  0  0  0  0  0  0  0  0  0  0
    6.1364    6.2981   -7.1594 H   0  0  0  0  0  0  0  0  0  0  0  0
    8.9615    5.0110   -5.1674 H   0  0  0  0  0  0  0  0  0  0  0  0
   11.2574    4.8966   -6.0284 H   0  0  0  0  0  0  0  0  0  0  0  0
   11.7793    5.7035   -8.3151 H   0  0  0  0  0  0  0  0  0  0  0  0
    7.6500    6.7573   -8.8854 H   0  0  0  0  0  0  0  0  0  0  0  0
    5.3699    7.8340   -5.3944 H   0  0  0  0  0  0  0  0  0  0  0  0
    3.5360    8.7570   -4.0609 H   0  0  0  0  0  0  0  0  0  0  0  0
    2.1261    7.2504   -2.6822 H   0  0  0  0  0  0  0  0  0  0  0  0
    2.6090    4.8741   -2.5826 H   0  0  0  0  0  0  0  0  0  0  0  0
    4.7303    0.8683   -3.8136 H   0  0  0  0  0  0  0  0  0  0  0  0
    3.7606   -0.6981   -2.2018 H   0  0  0  0  0  0  0  0  0  0  0  0
  1  2  1  0  0  0  0
  1 28  1  0  0  0  0
  1 29  1  0  0  0  0
  2  3  2  0  0  0  0
  2  4  1  0  0  0  0
  4  5  1  0  0  0  0
  4 27  2  0  0  0  0
  5  6  2  0  0  0  0
  5 30  1  0  0  0  0
  6  7  1  0  0  0  0
  6 31  1  0  0  0  0
  7  8  1  0  0  0  0
  7 26  2  0  0  0  0
  8  9  1  0  0  0  0
  8 25  2  0  0  0  0
  9 10  2  0  0  0  0
 10 11  1  0  0  0  0
 11 12  1  0  0  0  0
 11 20  2  0  0  0  0
 12 13  1  0  0  0  0
 12 32  1  0  0  0  0
 13 14  1  0  0  0  0
 13 19  2  0  0  0  0
 14 15  2  0  0  0  0
 14 33  1  0  0  0  0
 15 16  1  0  0  0  0
 15 34  1  0  0  0  0
 16 17  2  0  0  0  0
 16 35  1  0  0  0  0
 17 18  1  0  0  0  0
 17 19  1  0  0  0  0
 19 36  1  0  0  0  0
 20 21  1  0  0  0  0
 20 25  1  0  0  0  0
 21 22  2  0  0  0  0
 21 37  1  0  0  0  0
 22 23  1  0  0  0  0
 22 38  1  0  0  0  0
 23 24  2  0  0  0  0
 23 39  1  0  0  0  0
 24 25  1  0  0  0  0
 24 40  1  0  0  0  0
 26 27  1  0  0  0  0
 26 41  1  0  0  0  0
 27 42  1  0  0  0  0
M  END
$$$$
