CHEMBL233825
 OpenBabel04072215363D

 41 43  0  0  0  0  0  0  0  0999 V2000
    2.3426    0.6647    0.7934 O   0  0  0  0  0  0  0  0  0  0  0  0
    2.1048   -0.0732   -0.1585 C   0  0  0  0  0  0  0  0  0  0  0  0
    1.0468    0.1003   -1.0426 N   0  0  0  0  0  0  0  0  0  0  0  0
    0.0155    1.0623   -0.9583 C   0  0  0  0  0  0  0  0  0  0  0  0
   -0.0594    2.0107    0.0637 C   0  0  0  0  0  0  0  0  0  0  0  0
   -1.1329    2.8990    0.1525 C   0  0  0  0  0  0  0  0  0  0  0  0
   -2.1722    2.8732   -0.7856 C   0  0  0  0  0  0  0  0  0  0  0  0
   -3.3411    3.8074   -0.6171 C   0  0  0  0  0  0  0  0  0  0  0  0
   -3.2465    4.5759    0.5088 F   0  0  0  0  0  0  0  0  0  0  0  0
   -3.4780    4.6908   -1.6424 F   0  0  0  0  0  0  0  0  0  0  0  0
   -4.5314    3.1571   -0.5020 F   0  0  0  0  0  0  0  0  0  0  0  0
   -2.0809    1.9551   -1.8376 C   0  0  0  0  0  0  0  0  0  0  0  0
   -3.2879    1.8766   -3.0709 Cl  0  0  0  0  0  0  0  0  0  0  0  0
   -1.0006    1.0560   -1.9241 C   0  0  0  0  0  0  0  0  0  0  0  0
    2.9233   -1.2463   -0.4464 C   0  0  0  0  0  0  0  0  0  0  0  0
    2.7014   -2.0148   -1.5091 N   0  0  0  0  0  0  0  0  0  0  0  0
    3.6075   -3.0367   -1.4350 C   0  0  0  0  0  0  0  0  0  0  0  0
    4.3928   -2.9058   -0.3163 C   0  0  0  0  0  0  0  0  0  0  0  0
    3.9764   -1.7498    0.2974 N   0  0  0  0  0  0  0  0  0  0  0  0
    4.5291   -1.2526    1.5523 C   0  0  0  0  0  0  0  0  0  0  0  0
    6.0429   -1.0029    1.4862 C   0  0  0  0  0  0  0  0  0  0  0  0
    6.7353   -0.4732    2.7256 C   0  0  0  0  0  0  0  0  0  0  0  0
    6.1079   -0.2508    3.9532 C   0  0  0  0  0  0  0  0  0  0  0  0
    6.8694    0.2237    5.0176 C   0  0  0  0  0  0  0  0  0  0  0  0
    8.1901    0.4862    4.9483 N   0  0  0  0  0  0  0  0  0  0  0  0
    8.7835    0.2679    3.7573 C   0  0  0  0  0  0  0  0  0  0  0  0
    8.1089   -0.2029    2.6401 C   0  0  0  0  0  0  0  0  0  0  0  0
    1.0126   -0.5922   -1.7906 H   0  0  0  0  0  0  0  0  0  0  0  0
    0.6986    2.0875    0.8356 H   0  0  0  0  0  0  0  0  0  0  0  0
   -1.1509    3.6068    0.9811 H   0  0  0  0  0  0  0  0  0  0  0  0
   -0.9686    0.3450   -2.7462 H   0  0  0  0  0  0  0  0  0  0  0  0
    3.6466   -3.8202   -2.1797 H   0  0  0  0  0  0  0  0  0  0  0  0
    5.1912   -3.5207    0.0787 H   0  0  0  0  0  0  0  0  0  0  0  0
    4.2867   -2.0051    2.3124 H   0  0  0  0  0  0  0  0  0  0  0  0
    4.0237   -0.3310    1.8388 H   0  0  0  0  0  0  0  0  0  0  0  0
    6.2412   -0.3007    0.6658 H   0  0  0  0  0  0  0  0  0  0  0  0
    6.5445   -1.9443    1.2284 H   0  0  0  0  0  0  0  0  0  0  0  0
    5.0516   -0.4330    4.1120 H   0  0  0  0  0  0  0  0  0  0  0  0
    6.4188    0.4094    5.9888 H   0  0  0  0  0  0  0  0  0  0  0  0
    9.8468    0.4856    3.7194 H   0  0  0  0  0  0  0  0  0  0  0  0
    8.6557   -0.3579    1.7138 H   0  0  0  0  0  0  0  0  0  0  0  0
  1  2  2  0  0  0  0
  2  3  1  0  0  0  0
  2 15  1  0  0  0  0
  3  4  1  0  0  0  0
  3 28  1  0  0  0  0
  4  5  1  0  0  0  0
  4 14  2  0  0  0  0
  5  6  2  0  0  0  0
  5 29  1  0  0  0  0
  6  7  1  0  0  0  0
  6 30  1  0  0  0  0
  7  8  1  0  0  0  0
  7 12  2  0  0  0  0
  8  9  1  0  0  0  0
  8 10  1  0  0  0  0
  8 11  1  0  0  0  0
 12 13  1  0  0  0  0
 12 14  1  0  0  0  0
 14 31  1  0  0  0  0
 15 16  2  0  0  0  0
 15 19  1  0  0  0  0
 16 17  1  0  0  0  0
 17 18  2  0  0  0  0
 17 32  1  0  0  0  0
 18 19  1  0  0  0  0
 18 33  1  0  0  0  0
 19 20  1  0  0  0  0
 20 21  1  0  0  0  0
 20 34  1  0  0  0  0
 20 35  1  0  0  0  0
 21 22  1  0  0  0  0
 21 36  1  0  0  0  0
 21 37  1  0  0  0  0
 22 23  1  0  0  0  0
 22 27  2  0  0  0  0
 23 24  2  0  0  0  0
 23 38  1  0  0  0  0
 24 25  1  0  0  0  0
 24 39  1  0  0  0  0
 25 26  2  0  0  0  0
 26 27  1  0  0  0  0
 26 40  1  0  0  0  0
 27 41  1  0  0  0  0
M  END
$$$$
