CHEMBL412291
 OpenBabel04072215383D

 56 60  0  0  0  0  0  0  0  0999 V2000
    4.9673    1.0212   -1.6110 C   0  0  0  0  0  0  0  0  0  0  0  0
    3.8664    0.2232   -1.1727 O   0  0  0  0  0  0  0  0  0  0  0  0
    4.1755   -0.8850   -0.4319 C   0  0  0  0  0  0  0  0  0  0  0  0
    5.3490   -0.9678    0.3361 C   0  0  0  0  0  0  0  0  0  0  0  0
    5.7641   -2.1433    0.9497 C   0  0  0  0  0  0  0  0  0  0  0  0
    6.9715   -2.1516    1.5377 N   0  0  0  0  0  0  0  0  0  0  0  0
    7.4336   -3.3137    2.0412 C   0  0  0  0  0  0  0  0  0  0  0  0
    6.7473   -4.5037    1.9626 C   0  0  0  0  0  0  0  0  0  0  0  0
    5.4948   -4.5036    1.3476 C   0  0  0  0  0  0  0  0  0  0  0  0
    4.9395   -5.7705    1.2628 O   0  0  0  0  0  0  0  0  0  0  0  0
    4.0986   -6.1108    0.2295 C   0  0  0  0  0  0  0  0  0  0  0  0
    4.2108   -5.6405   -1.0712 C   0  0  0  0  0  0  0  0  0  0  0  0
    3.1270   -5.7813   -1.9465 C   0  0  0  0  0  0  0  0  0  0  0  0
    1.9755   -6.5425   -1.6116 C   0  0  0  0  0  0  0  0  0  0  0  0
    0.8075   -6.7047   -2.4176 C   0  0  0  0  0  0  0  0  0  0  0  0
    0.5495   -6.0076   -3.7171 C   0  0  0  0  0  0  0  0  0  0  0  0
   -0.5898   -5.6004   -3.9249 O   0  0  0  0  0  0  0  0  0  0  0  0
    1.5993   -5.9532   -4.6144 N   0  0  0  0  0  0  0  0  0  0  0  0
    1.5759   -5.3818   -5.9074 C   0  0  0  0  0  0  0  0  0  0  0  0
    0.5008   -4.6464   -6.4207 C   0  0  0  0  0  0  0  0  0  0  0  0
    0.5089   -4.1927   -7.7452 C   0  0  0  0  0  0  0  0  0  0  0  0
    1.6022   -4.4566   -8.5639 C   0  0  0  0  0  0  0  0  0  0  0  0
    2.6890   -5.1430   -8.0392 C   0  0  0  0  0  0  0  0  0  0  0  0
    3.7489   -5.3918   -8.8196 F   0  0  0  0  0  0  0  0  0  0  0  0
    2.6914   -5.5960   -6.7222 C   0  0  0  0  0  0  0  0  0  0  0  0
   -0.2615   -7.5055   -1.9680 C   0  0  0  0  0  0  0  0  0  0  0  0
   -0.2047   -8.1480   -0.7398 C   0  0  0  0  0  0  0  0  0  0  0  0
    0.9060   -7.9691    0.0747 C   0  0  0  0  0  0  0  0  0  0  0  0
    1.9833   -7.1653   -0.3345 C   0  0  0  0  0  0  0  0  0  0  0  0
    3.0278   -6.9338    0.5693 C   0  0  0  0  0  0  0  0  0  0  0  0
    4.9371   -3.2765    0.8878 C   0  0  0  0  0  0  0  0  0  0  0  0
    3.6463   -3.0940    0.3387 C   0  0  0  0  0  0  0  0  0  0  0  0
    3.2938   -1.9618   -0.4045 C   0  0  0  0  0  0  0  0  0  0  0  0
    2.1010   -2.1413   -1.0448 O   0  0  0  0  0  0  0  0  0  0  0  0
    1.7041   -1.2571   -2.0788 C   0  0  0  0  0  0  0  0  0  0  0  0
    4.7232    1.4217   -2.5993 H   0  0  0  0  0  0  0  0  0  0  0  0
    5.9033    0.4608   -1.7224 H   0  0  0  0  0  0  0  0  0  0  0  0
    5.1050    1.8603   -0.9224 H   0  0  0  0  0  0  0  0  0  0  0  0
    6.0076   -0.1083    0.4342 H   0  0  0  0  0  0  0  0  0  0  0  0
    8.4126   -3.2602    2.5095 H   0  0  0  0  0  0  0  0  0  0  0  0
    7.1819   -5.4168    2.3421 H   0  0  0  0  0  0  0  0  0  0  0  0
    5.0617   -5.0370   -1.3760 H   0  0  0  0  0  0  0  0  0  0  0  0
    3.1845   -5.2136   -2.8707 H   0  0  0  0  0  0  0  0  0  0  0  0
    2.4324   -6.4743   -4.3738 H   0  0  0  0  0  0  0  0  0  0  0  0
   -0.3723   -4.4151   -5.8172 H   0  0  0  0  0  0  0  0  0  0  0  0
   -0.3476   -3.6471   -8.1341 H   0  0  0  0  0  0  0  0  0  0  0  0
    1.6128   -4.1353   -9.6002 H   0  0  0  0  0  0  0  0  0  0  0  0
    3.5620   -6.1352   -6.3652 H   0  0  0  0  0  0  0  0  0  0  0  0
   -1.1556   -7.6165   -2.5823 H   0  0  0  0  0  0  0  0  0  0  0  0
   -1.0391   -8.7605   -0.4027 H   0  0  0  0  0  0  0  0  0  0  0  0
    0.9133   -8.4486    1.0538 H   0  0  0  0  0  0  0  0  0  0  0  0
    2.9832   -7.3394    1.5786 H   0  0  0  0  0  0  0  0  0  0  0  0
    2.9064   -3.8871    0.4011 H   0  0  0  0  0  0  0  0  0  0  0  0
    0.9518   -1.7811   -2.6800 H   0  0  0  0  0  0  0  0  0  0  0  0
    2.5176   -0.9939   -2.7605 H   0  0  0  0  0  0  0  0  0  0  0  0
    1.2279   -0.3732   -1.6477 H   0  0  0  0  0  0  0  0  0  0  0  0
  1  2  1  0  0  0  0
  1 36  1  0  0  0  0
  1 37  1  0  0  0  0
  1 38  1  0  0  0  0
  2  3  1  0  0  0  0
  3  4  1  0  0  0  0
  3 33  2  0  0  0  0
  4  5  2  0  0  0  0
  4 39  1  0  0  0  0
  5  6  1  0  0  0  0
  5 31  1  0  0  0  0
  6  7  2  0  0  0  0
  7  8  1  0  0  0  0
  7 40  1  0  0  0  0
  8  9  2  0  0  0  0
  8 41  1  0  0  0  0
  9 10  1  0  0  0  0
  9 31  1  0  0  0  0
 10 11  1  0  0  0  0
 11 12  1  0  0  0  0
 11 30  2  0  0  0  0
 12 13  2  0  0  0  0
 12 42  1  0  0  0  0
 13 14  1  0  0  0  0
 13 43  1  0  0  0  0
 14 15  1  0  0  0  0
 14 29  2  0  0  0  0
 15 16  1  0  0  0  0
 15 26  2  0  0  0  0
 16 17  2  0  0  0  0
 16 18  1  0  0  0  0
 18 19  1  0  0  0  0
 18 44  1  0  0  0  0
 19 20  1  0  0  0  0
 19 25  2  0  0  0  0
 20 21  2  0  0  0  0
 20 45  1  0  0  0  0
 21 22  1  0  0  0  0
 21 46  1  0  0  0  0
 22 23  2  0  0  0  0
 22 47  1  0  0  0  0
 23 24  1  0  0  0  0
 23 25  1  0  0  0  0
 25 48  1  0  0  0  0
 26 27  1  0  0  0  0
 26 49  1  0  0  0  0
 27 28  2  0  0  0  0
 27 50  1  0  0  0  0
 28 29  1  0  0  0  0
 28 51  1  0  0  0  0
 29 30  1  0  0  0  0
 30 52  1  0  0  0  0
 31 32  2  0  0  0  0
 32 33  1  0  0  0  0
 32 53  1  0  0  0  0
 33 34  1  0  0  0  0
 34 35  1  0  0  0  0
 35 54  1  0  0  0  0
 35 55  1  0  0  0  0
 35 56  1  0  0  0  0
M  END
$$$$
