CHEMBL1980391
 OpenBabel04072215363D

 39 42  0  0  0  0  0  0  0  0999 V2000
    1.2222    0.4670    0.3963 C   0  0  0  0  0  0  0  0  0  0  0  0
    2.3239   -0.3402    0.0012 O   0  0  0  0  0  0  0  0  0  0  0  0
    2.9351   -0.0254   -1.1809 C   0  0  0  0  0  0  0  0  0  0  0  0
    4.0283   -0.8394   -1.4923 C   0  0  0  0  0  0  0  0  0  0  0  0
    4.7986   -0.6311   -2.6517 C   0  0  0  0  0  0  0  0  0  0  0  0
    4.4234    0.3930   -3.5474 C   0  0  0  0  0  0  0  0  0  0  0  0
    3.3347    1.2182   -3.2280 C   0  0  0  0  0  0  0  0  0  0  0  0
    2.6057    1.0064   -2.0585 C   0  0  0  0  0  0  0  0  0  0  0  0
    1.5765    1.8307   -1.8163 F   0  0  0  0  0  0  0  0  0  0  0  0
    5.1219    0.6120   -4.8636 C   0  0  0  0  0  0  0  0  0  0  0  0
    4.2668    0.7956   -6.1010 C   0  0  0  0  0  0  0  0  0  0  0  0
    3.0880    0.0329   -6.2185 C   0  0  0  0  0  0  0  0  0  0  0  0
    2.3383    0.0441   -7.3983 C   0  0  0  0  0  0  0  0  0  0  0  0
    2.7666    0.7938   -8.4883 C   0  0  0  0  0  0  0  0  0  0  0  0
    3.9235    1.5642   -8.3856 C   0  0  0  0  0  0  0  0  0  0  0  0
    4.6679    1.5828   -7.1967 C   0  0  0  0  0  0  0  0  0  0  0  0
    6.0260    2.6569   -7.1748 Cl  0  0  0  0  0  0  0  0  0  0  0  0
    6.4046    0.6072   -5.0736 N   0  0  0  0  0  0  0  0  0  0  0  0
    7.2795    0.2765   -4.0473 C   0  0  0  0  0  0  0  0  0  0  0  0
    7.1512   -0.7283   -3.0671 C   0  0  0  0  0  0  0  0  0  0  0  0
    8.2854   -0.8973   -2.3858 N   0  0  0  0  0  0  0  0  0  0  0  0
    9.1078    0.0356   -2.9094 N   0  0  0  0  0  0  0  0  0  0  0  0
    8.5454    0.7822   -3.9084 C   0  0  0  0  0  0  0  0  0  0  0  0
    9.2612    1.8606   -4.6212 C   0  0  0  0  0  0  0  0  0  0  0  0
    5.9953   -1.3757   -2.7937 N   0  0  0  0  0  0  0  0  0  0  0  0
    0.8777    0.1063    1.3705 H   0  0  0  0  0  0  0  0  0  0  0  0
    0.3920    0.3636   -0.3092 H   0  0  0  0  0  0  0  0  0  0  0  0
    1.5187    1.5136    0.5203 H   0  0  0  0  0  0  0  0  0  0  0  0
    4.3106   -1.6170   -0.7833 H   0  0  0  0  0  0  0  0  0  0  0  0
    3.0413    2.0390   -3.8757 H   0  0  0  0  0  0  0  0  0  0  0  0
    2.7515   -0.6109   -5.4094 H   0  0  0  0  0  0  0  0  0  0  0  0
    1.4347   -0.5567   -7.4742 H   0  0  0  0  0  0  0  0  0  0  0  0
    2.2052    0.7768   -9.4195 H   0  0  0  0  0  0  0  0  0  0  0  0
    4.2496    2.1488   -9.2433 H   0  0  0  0  0  0  0  0  0  0  0  0
   10.0473    0.1069   -2.5346 H   0  0  0  0  0  0  0  0  0  0  0  0
   10.2507    2.0402   -4.1897 H   0  0  0  0  0  0  0  0  0  0  0  0
    8.6962    2.7974   -4.5586 H   0  0  0  0  0  0  0  0  0  0  0  0
    9.3894    1.6075   -5.6776 H   0  0  0  0  0  0  0  0  0  0  0  0
    6.1053   -2.0836   -2.0767 H   0  0  0  0  0  0  0  0  0  0  0  0
  1  2  1  0  0  0  0
  1 26  1  0  0  0  0
  1 27  1  0  0  0  0
  1 28  1  0  0  0  0
  2  3  1  0  0  0  0
  3  4  1  0  0  0  0
  3  8  2  0  0  0  0
  4  5  2  0  0  0  0
  4 29  1  0  0  0  0
  5  6  1  0  0  0  0
  5 25  1  0  0  0  0
  6  7  2  0  0  0  0
  6 10  1  0  0  0  0
  7  8  1  0  0  0  0
  7 30  1  0  0  0  0
  8  9  1  0  0  0  0
 10 11  1  0  0  0  0
 10 18  2  0  0  0  0
 11 12  1  0  0  0  0
 11 16  2  0  0  0  0
 12 13  2  0  0  0  0
 12 31  1  0  0  0  0
 13 14  1  0  0  0  0
 13 32  1  0  0  0  0
 14 15  2  0  0  0  0
 14 33  1  0  0  0  0
 15 16  1  0  0  0  0
 15 34  1  0  0  0  0
 16 17  1  0  0  0  0
 18 19  1  0  0  0  0
 19 20  1  0  0  0  0
 19 23  2  0  0  0  0
 20 21  2  0  0  0  0
 20 25  1  0  0  0  0
 21 22  1  0  0  0  0
 22 23  1  0  0  0  0
 22 35  1  0  0  0  0
 23 24  1  0  0  0  0
 24 36  1  0  0  0  0
 24 37  1  0  0  0  0
 24 38  1  0  0  0  0
 25 39  1  0  0  0  0
M  END
$$$$
