CHEMBL3926245
 OpenBabel04072215373D

 82 87  0  0  1  0  0  0  0  0999 V2000
    0.3249   -1.4165   -3.5534 C   0  0  0  0  0  0  0  0  0  0  0  0
    1.5958   -2.0704   -3.6533 O   0  0  0  0  0  0  0  0  0  0  0  0
    2.6434   -1.5078   -2.9688 C   0  0  0  0  0  0  0  0  0  0  0  0
    2.5611   -0.3077   -2.2649 C   0  0  0  0  0  0  0  0  0  0  0  0
    3.6555    0.1734   -1.5532 C   0  0  0  0  0  0  0  0  0  0  0  0
    3.6930    1.3066   -0.8016 O   0  0  0  0  0  0  0  0  0  0  0  0
    2.5419    2.1396   -0.8533 C   0  0  0  0  0  0  0  0  0  0  0  0
    4.8454   -0.5768   -1.5455 C   0  0  0  0  0  0  0  0  0  0  0  0
    4.9802   -1.7952   -2.2289 C   0  0  0  0  0  0  0  0  0  0  0  0
    6.1062   -2.6399   -2.0455 N   0  0  0  0  0  0  0  0  0  0  0  0
    6.7220   -2.6186   -0.6451 C   0  0  0  0  0  0  0  0  0  0  0  0
    5.7817   -2.9704    0.5638 C   0  0  0  0  0  0  0  0  0  0  0  0
    6.4560   -2.8914    1.8981 N   0  0  0  0  0  0  0  0  0  0  0  0
    5.5464   -3.2292    3.0556 C   0  0  0  0  0  0  0  0  0  0  0  0
    5.6403   -1.9879    3.9968 C   0  0  2  0  0  0  0  0  0  0  0  0
    5.7215   -0.8894    2.9390 C   0  0  0  0  0  0  0  0  0  0  0  0
    6.9393   -1.5263    2.2638 C   0  0  1  0  0  0  0  0  0  0  0  0
    7.9073   -1.6410    3.4765 C   0  0  0  0  0  0  0  0  0  0  0  0
    6.9893   -1.9268    4.5683 N   0  0  0  0  0  0  0  0  0  0  0  0
    7.4390   -2.0680    5.8527 C   0  0  0  0  0  0  0  0  0  0  0  0
    8.6318   -1.9874    6.1218 O   0  0  0  0  0  0  0  0  0  0  0  0
    6.4538   -2.2839    6.7733 O   0  0  0  0  0  0  0  0  0  0  0  0
    6.8383   -2.4897    8.1705 C   0  0  0  0  0  0  0  0  0  0  0  0
    7.5345   -1.2542    8.7673 C   0  0  0  0  0  0  0  0  0  0  0  0
    5.5388   -2.7127    8.9684 C   0  0  0  0  0  0  0  0  0  0  0  0
    7.6901   -3.7598    8.3128 C   0  0  0  0  0  0  0  0  0  0  0  0
    7.1597   -2.9725   -2.9879 C   0  0  0  0  0  0  0  0  0  0  0  0
    7.6648   -4.2614   -2.8272 C   0  0  0  0  0  0  0  0  0  0  0  0
    8.9702   -4.5363   -3.1775 C   0  0  0  0  0  0  0  0  0  0  0  0
    9.7556   -3.6337   -3.8536 C   0  0  0  0  0  0  0  0  0  0  0  0
   11.0308   -4.0053   -3.9080 N   0  0  0  0  0  0  0  0  0  0  0  0
   11.8254   -3.2842   -4.6975 C   0  0  0  0  0  0  0  0  0  0  0  0
   11.3417   -2.2569   -5.4805 C   0  0  0  0  0  0  0  0  0  0  0  0
   12.2349   -1.8500   -6.5670 C   0  0  0  0  0  0  0  0  0  0  0  0
   12.3021   -2.3248   -7.9085 C   0  0  0  0  0  0  0  0  0  0  0  0
   13.4240   -1.9559   -8.5431 N   0  0  0  0  0  0  0  0  0  0  0  0
   14.0952   -1.2640   -7.6082 N   0  0  0  0  0  0  0  0  0  0  0  0
   15.2300   -0.4457   -7.9687 C   0  0  0  0  0  0  0  0  0  0  0  0
   13.5106   -1.3377   -6.3725 C   0  0  0  0  0  0  0  0  0  0  0  0
   10.0546   -1.7774   -5.3125 N   0  0  0  0  0  0  0  0  0  0  0  0
    9.2139   -2.4500   -4.3895 C   0  0  0  0  0  0  0  0  0  0  0  0
    7.8853   -2.1087   -3.8707 C   0  0  0  0  0  0  0  0  0  0  0  0
    3.8561   -2.2352   -2.9636 C   0  0  0  0  0  0  0  0  0  0  0  0
   -0.4187   -2.0008   -4.1057 H   0  0  0  0  0  0  0  0  0  0  0  0
    0.3567   -0.4188   -4.0048 H   0  0  0  0  0  0  0  0  0  0  0  0
   -0.0171   -1.3603   -2.5113 H   0  0  0  0  0  0  0  0  0  0  0  0
    1.6386    0.2484   -2.2557 H   0  0  0  0  0  0  0  0  0  0  0  0
    2.7593    3.0435   -0.2780 H   0  0  0  0  0  0  0  0  0  0  0  0
    1.6787    1.6479   -0.3911 H   0  0  0  0  0  0  0  0  0  0  0  0
    2.3225    2.4461   -1.8818 H   0  0  0  0  0  0  0  0  0  0  0  0
    5.6690   -0.1903   -0.9522 H   0  0  0  0  0  0  0  0  0  0  0  0
    7.2038   -1.6466   -0.5090 H   0  0  0  0  0  0  0  0  0  0  0  0
    7.5374   -3.3503   -0.5733 H   0  0  0  0  0  0  0  0  0  0  0  0
    5.4514   -4.0096    0.4289 H   0  0  0  0  0  0  0  0  0  0  0  0
    4.8784   -2.3547    0.5576 H   0  0  0  0  0  0  0  0  0  0  0  0
    5.8990   -4.1337    3.5635 H   0  0  0  0  0  0  0  0  0  0  0  0
    4.5108   -3.3774    2.7298 H   0  0  0  0  0  0  0  0  0  0  0  0
    4.8458   -1.8965    4.7393 H   0  0  0  0  0  0  0  0  0  0  0  0
    5.9447    0.0993    3.3558 H   0  0  0  0  0  0  0  0  0  0  0  0
    4.8360   -0.8224    2.2991 H   0  0  0  0  0  0  0  0  0  0  0  0
    7.3894   -0.9614    1.4485 H   0  0  0  0  0  0  0  0  0  0  0  0
    8.4199   -0.6950    3.6825 H   0  0  0  0  0  0  0  0  0  0  0  0
    8.6444   -2.4450    3.3829 H   0  0  0  0  0  0  0  0  0  0  0  0
    6.8891   -0.3716    8.6931 H   0  0  0  0  0  0  0  0  0  0  0  0
    8.4646   -1.0001    8.2534 H   0  0  0  0  0  0  0  0  0  0  0  0
    7.7819   -1.4095    9.8240 H   0  0  0  0  0  0  0  0  0  0  0  0
    4.8810   -1.8386    8.9073 H   0  0  0  0  0  0  0  0  0  0  0  0
    5.7475   -2.9058   10.0291 H   0  0  0  0  0  0  0  0  0  0  0  0
    4.9724   -3.5619    8.5717 H   0  0  0  0  0  0  0  0  0  0  0  0
    8.6438   -3.6855    7.7840 H   0  0  0  0  0  0  0  0  0  0  0  0
    7.1640   -4.6204    7.8837 H   0  0  0  0  0  0  0  0  0  0  0  0
    7.9151   -3.9778    9.3623 H   0  0  0  0  0  0  0  0  0  0  0  0
    7.1050   -5.0037   -2.2683 H   0  0  0  0  0  0  0  0  0  0  0  0
    9.4098   -5.4857   -2.8688 H   0  0  0  0  0  0  0  0  0  0  0  0
   12.8589   -3.6082   -4.7331 H   0  0  0  0  0  0  0  0  0  0  0  0
   11.6072   -2.9633   -8.4403 H   0  0  0  0  0  0  0  0  0  0  0  0
   15.3826   -0.4726   -9.0513 H   0  0  0  0  0  0  0  0  0  0  0  0
   16.1225   -0.8029   -7.4496 H   0  0  0  0  0  0  0  0  0  0  0  0
   14.9967    0.5780   -7.6621 H   0  0  0  0  0  0  0  0  0  0  0  0
   14.0381   -1.0062   -5.4890 H   0  0  0  0  0  0  0  0  0  0  0  0
    7.4689   -1.1332   -4.1221 H   0  0  0  0  0  0  0  0  0  0  0  0
    3.8893   -3.1945   -3.4785 H   0  0  0  0  0  0  0  0  0  0  0  0
  1  2  1  0  0  0  0
  1 44  1  0  0  0  0
  1 45  1  0  0  0  0
  1 46  1  0  0  0  0
  2  3  1  0  0  0  0
  3  4  1  0  0  0  0
  3 43  2  0  0  0  0
  4  5  2  0  0  0  0
  4 47  1  0  0  0  0
  5  6  1  0  0  0  0
  5  8  1  0  0  0  0
  6  7  1  0  0  0  0
  7 48  1  0  0  0  0
  7 49  1  0  0  0  0
  7 50  1  0  0  0  0
  8  9  2  0  0  0  0
  8 51  1  0  0  0  0
  9 10  1  0  0  0  0
  9 43  1  0  0  0  0
 10 11  1  0  0  0  0
 10 27  1  0  0  0  0
 11 12  1  0  0  0  0
 11 52  1  0  0  0  0
 11 53  1  0  0  0  0
 12 13  1  0  0  0  0
 12 54  1  0  0  0  0
 12 55  1  0  0  0  0
 13 14  1  0  0  0  0
 13 17  1  0  0  0  0
 14 15  1  0  0  0  0
 14 56  1  0  0  0  0
 14 57  1  0  0  0  0
 15 16  1  0  0  0  0
 15 19  1  0  0  0  0
 15 58  1  1  0  0  0
 16 17  1  0  0  0  0
 16 59  1  0  0  0  0
 16 60  1  0  0  0  0
 17 18  1  0  0  0  0
 17 61  1  6  0  0  0
 18 19  1  0  0  0  0
 18 62  1  0  0  0  0
 18 63  1  0  0  0  0
 19 20  1  0  0  0  0
 20 21  2  0  0  0  0
 20 22  1  0  0  0  0
 22 23  1  0  0  0  0
 23 24  1  0  0  0  0
 23 25  1  0  0  0  0
 23 26  1  0  0  0  0
 24 64  1  0  0  0  0
 24 65  1  0  0  0  0
 24 66  1  0  0  0  0
 25 67  1  0  0  0  0
 25 68  1  0  0  0  0
 25 69  1  0  0  0  0
 26 70  1  0  0  0  0
 26 71  1  0  0  0  0
 26 72  1  0  0  0  0
 27 28  1  0  0  0  0
 27 42  2  0  0  0  0
 28 29  2  0  0  0  0
 28 73  1  0  0  0  0
 29 30  1  0  0  0  0
 29 74  1  0  0  0  0
 30 31  1  0  0  0  0
 30 41  2  0  0  0  0
 31 32  2  0  0  0  0
 32 33  1  0  0  0  0
 32 75  1  0  0  0  0
 33 34  1  0  0  0  0
 33 40  2  0  0  0  0
 34 35  1  0  0  0  0
 34 39  2  0  0  0  0
 35 36  2  0  0  0  0
 35 76  1  0  0  0  0
 36 37  1  0  0  0  0
 37 38  1  0  0  0  0
 37 39  1  0  0  0  0
 38 77  1  0  0  0  0
 38 78  1  0  0  0  0
 38 79  1  0  0  0  0
 39 80  1  0  0  0  0
 40 41  1  0  0  0  0
 41 42  1  0  0  0  0
 42 81  1  0  0  0  0
 43 82  1  0  0  0  0
M  END
$$$$
