CHEMBL218646
 OpenBabel04072215363D

 74 77  0  0  0  0  0  0  0  0999 V2000
    7.7817   -7.3731    8.0919 C   0  0  0  0  0  0  0  0  0  0  0  0
    7.7237   -8.0355    6.8142 N   0  0  0  0  0  0  0  0  0  0  0  0
    6.7070   -7.6925    5.9466 C   0  0  0  0  0  0  0  0  0  0  0  0
    6.4942   -8.5340    4.9317 N   0  0  0  0  0  0  0  0  0  0  0  0
    5.5795   -8.1643    4.0171 C   0  0  0  0  0  0  0  0  0  0  0  0
    4.8486   -7.0020    4.0922 C   0  0  0  0  0  0  0  0  0  0  0  0
    5.1015   -6.2014    5.1853 C   0  0  0  0  0  0  0  0  0  0  0  0
    4.3927   -4.9395    5.4770 C   0  0  0  0  0  0  0  0  0  0  0  0
    4.1039   -4.6157    6.8212 C   0  0  0  0  0  0  0  0  0  0  0  0
    3.4903   -3.4151    7.1665 C   0  0  0  0  0  0  0  0  0  0  0  0
    3.1329   -2.5602    6.1483 C   0  0  0  0  0  0  0  0  0  0  0  0
    3.3537   -2.8272    4.8474 N   0  0  0  0  0  0  0  0  0  0  0  0
    4.0101   -3.9801    4.5314 C   0  0  0  0  0  0  0  0  0  0  0  0
    4.3363   -4.1775    3.1835 O   0  0  0  0  0  0  0  0  0  0  0  0
    4.4185   -3.0532    2.3841 C   0  0  0  0  0  0  0  0  0  0  0  0
    5.1061   -1.9008    2.7903 C   0  0  0  0  0  0  0  0  0  0  0  0
    5.1045   -0.7645    1.9849 C   0  0  0  0  0  0  0  0  0  0  0  0
    4.4668   -0.7912    0.7452 C   0  0  0  0  0  0  0  0  0  0  0  0
    4.4700    0.3338    0.0185 F   0  0  0  0  0  0  0  0  0  0  0  0
    3.8389   -1.9505    0.2905 C   0  0  0  0  0  0  0  0  0  0  0  0
    3.1387   -1.9964   -1.0306 C   0  0  0  0  0  0  0  0  0  0  0  0
    2.2809   -2.8600   -1.1969 O   0  0  0  0  0  0  0  0  0  0  0  0
    3.5974   -1.1134   -2.0026 N   0  0  0  0  0  0  0  0  0  0  0  0
    3.0629   -1.0724   -3.3148 C   0  0  0  0  0  0  0  0  0  0  0  0
    3.9940   -1.2640   -4.3549 C   0  0  0  0  0  0  0  0  0  0  0  0
    3.5756   -1.4057   -5.6860 C   0  0  0  0  0  0  0  0  0  0  0  0
    4.5466   -1.7247   -6.7923 C   0  0  0  0  0  0  0  0  0  0  0  0
    5.8379   -1.8369   -6.3727 F   0  0  0  0  0  0  0  0  0  0  0  0
    4.2563   -2.8994   -7.4180 F   0  0  0  0  0  0  0  0  0  0  0  0
    4.5549   -0.7759   -7.7714 F   0  0  0  0  0  0  0  0  0  0  0  0
    2.2149   -1.2838   -5.9694 C   0  0  0  0  0  0  0  0  0  0  0  0
    1.2955   -1.0205   -4.9472 C   0  0  0  0  0  0  0  0  0  0  0  0
    1.6848   -0.8962   -3.5954 C   0  0  0  0  0  0  0  0  0  0  0  0
    0.7343   -0.5493   -2.6311 N   0  0  0  0  0  0  0  0  0  0  0  0
   -0.6547   -0.9621   -2.7939 C   0  0  0  0  0  0  0  0  0  0  0  0
    0.9778    0.5783   -1.7188 C   0  0  0  0  0  0  0  0  0  0  0  0
    1.1020    1.9211   -2.4488 C   0  0  0  0  0  0  0  0  0  0  0  0
    1.2891    3.0631   -1.4347 C   0  0  0  0  0  0  0  0  0  0  0  0
    1.4725    4.3931   -2.0450 N   0  0  0  0  0  0  0  0  0  0  0  0
    0.3070    4.8138   -2.8245 C   0  0  0  0  0  0  0  0  0  0  0  0
    1.7484    5.3893   -1.0034 C   0  0  0  0  0  0  0  0  0  0  0  0
    3.8189   -3.0900    1.1174 C   0  0  0  0  0  0  0  0  0  0  0  0
    6.0248   -6.5534    6.1151 N   0  0  0  0  0  0  0  0  0  0  0  0
    8.6827   -7.6977    8.6231 H   0  0  0  0  0  0  0  0  0  0  0  0
    6.9172   -7.6156    8.7186 H   0  0  0  0  0  0  0  0  0  0  0  0
    7.8533   -6.2854    7.9797 H   0  0  0  0  0  0  0  0  0  0  0  0
    7.8633   -9.0370    6.7869 H   0  0  0  0  0  0  0  0  0  0  0  0
    5.4540   -8.8536    3.1872 H   0  0  0  0  0  0  0  0  0  0  0  0
    4.1144   -6.7591    3.3366 H   0  0  0  0  0  0  0  0  0  0  0  0
    4.3820   -5.3056    7.6180 H   0  0  0  0  0  0  0  0  0  0  0  0
    3.3047   -3.1574    8.2029 H   0  0  0  0  0  0  0  0  0  0  0  0
    2.6610   -1.6037    6.3529 H   0  0  0  0  0  0  0  0  0  0  0  0
    5.5970   -1.8656    3.7570 H   0  0  0  0  0  0  0  0  0  0  0  0
    5.5764    0.1512    2.3306 H   0  0  0  0  0  0  0  0  0  0  0  0
    4.5425   -0.7725   -1.8862 H   0  0  0  0  0  0  0  0  0  0  0  0
    5.0485   -1.3868   -4.1176 H   0  0  0  0  0  0  0  0  0  0  0  0
    1.8548   -1.3881   -6.9939 H   0  0  0  0  0  0  0  0  0  0  0  0
    0.2608   -0.8825   -5.2345 H   0  0  0  0  0  0  0  0  0  0  0  0
   -0.7699   -1.8330   -3.4489 H   0  0  0  0  0  0  0  0  0  0  0  0
   -1.2628   -0.1409   -3.1885 H   0  0  0  0  0  0  0  0  0  0  0  0
   -1.0661   -1.2557   -1.8216 H   0  0  0  0  0  0  0  0  0  0  0  0
    1.8559    0.4090   -1.0921 H   0  0  0  0  0  0  0  0  0  0  0  0
    0.1382    0.6449   -1.0141 H   0  0  0  0  0  0  0  0  0  0  0  0
    0.2002    2.0804   -3.0501 H   0  0  0  0  0  0  0  0  0  0  0  0
    1.9538    1.9046   -3.1390 H   0  0  0  0  0  0  0  0  0  0  0  0
    2.1828    2.8320   -0.8403 H   0  0  0  0  0  0  0  0  0  0  0  0
    0.4401    3.0783   -0.7383 H   0  0  0  0  0  0  0  0  0  0  0  0
    0.1705    4.1783   -3.7048 H   0  0  0  0  0  0  0  0  0  0  0  0
    0.4464    5.8301   -3.2108 H   0  0  0  0  0  0  0  0  0  0  0  0
   -0.6143    4.7969   -2.2314 H   0  0  0  0  0  0  0  0  0  0  0  0
    2.6528    5.1256   -0.4427 H   0  0  0  0  0  0  0  0  0  0  0  0
    0.9179    5.4862   -0.2942 H   0  0  0  0  0  0  0  0  0  0  0  0
    1.9354    6.3731   -1.4492 H   0  0  0  0  0  0  0  0  0  0  0  0
    3.3180   -3.9951    0.7846 H   0  0  0  0  0  0  0  0  0  0  0  0
  1  2  1  0  0  0  0
  1 44  1  0  0  0  0
  1 45  1  0  0  0  0
  1 46  1  0  0  0  0
  2  3  1  0  0  0  0
  2 47  1  0  0  0  0
  3  4  1  0  0  0  0
  3 43  2  0  0  0  0
  4  5  2  0  0  0  0
  5  6  1  0  0  0  0
  5 48  1  0  0  0  0
  6  7  2  0  0  0  0
  6 49  1  0  0  0  0
  7  8  1  0  0  0  0
  7 43  1  0  0  0  0
  8  9  1  0  0  0  0
  8 13  2  0  0  0  0
  9 10  2  0  0  0  0
  9 50  1  0  0  0  0
 10 11  1  0  0  0  0
 10 51  1  0  0  0  0
 11 12  2  0  0  0  0
 11 52  1  0  0  0  0
 12 13  1  0  0  0  0
 13 14  1  0  0  0  0
 14 15  1  0  0  0  0
 15 16  1  0  0  0  0
 15 42  2  0  0  0  0
 16 17  2  0  0  0  0
 16 53  1  0  0  0  0
 17 18  1  0  0  0  0
 17 54  1  0  0  0  0
 18 19  1  0  0  0  0
 18 20  2  0  0  0  0
 20 21  1  0  0  0  0
 20 42  1  0  0  0  0
 21 22  2  0  0  0  0
 21 23  1  0  0  0  0
 23 24  1  0  0  0  0
 23 55  1  0  0  0  0
 24 25  1  0  0  0  0
 24 33  2  0  0  0  0
 25 26  2  0  0  0  0
 25 56  1  0  0  0  0
 26 27  1  0  0  0  0
 26 31  1  0  0  0  0
 27 28  1  0  0  0  0
 27 29  1  0  0  0  0
 27 30  1  0  0  0  0
 31 32  2  0  0  0  0
 31 57  1  0  0  0  0
 32 33  1  0  0  0  0
 32 58  1  0  0  0  0
 33 34  1  0  0  0  0
 34 35  1  0  0  0  0
 34 36  1  0  0  0  0
 35 59  1  0  0  0  0
 35 60  1  0  0  0  0
 35 61  1  0  0  0  0
 36 37  1  0  0  0  0
 36 62  1  0  0  0  0
 36 63  1  0  0  0  0
 37 38  1  0  0  0  0
 37 64  1  0  0  0  0
 37 65  1  0  0  0  0
 38 39  1  0  0  0  0
 38 66  1  0  0  0  0
 38 67  1  0  0  0  0
 39 40  1  0  0  0  0
 39 41  1  0  0  0  0
 40 68  1  0  0  0  0
 40 69  1  0  0  0  0
 40 70  1  0  0  0  0
 41 71  1  0  0  0  0
 41 72  1  0  0  0  0
 41 73  1  0  0  0  0
 42 74  1  0  0  0  0
M  END
$$$$
