CHEMBL3893698
 OpenBabel04072215373D

 33 35  0  0  0  0  0  0  0  0999 V2000
    1.8387    0.4163   -0.7370 C   0  0  0  0  0  0  0  0  0  0  0  0
    1.4544    0.2909    0.7297 C   0  0  0  0  0  0  0  0  0  0  0  0
    2.0829   -0.8560    1.3775 N   0  0  0  0  0  0  0  0  0  0  0  0
    1.4019   -2.0599    1.3631 C   0  0  0  0  0  0  0  0  0  0  0  0
    0.3343   -2.2597    0.7914 O   0  0  0  0  0  0  0  0  0  0  0  0
    2.1093   -3.1435    2.1274 C   0  0  0  0  0  0  0  0  0  0  0  0
    3.6323   -2.4180    2.7340 S   0  0  0  0  0  0  0  0  0  0  0  0
    3.3164   -0.8720    1.9754 C   0  0  0  0  0  0  0  0  0  0  0  0
    4.2383    0.0283    2.0961 N   0  0  0  0  0  0  0  0  0  0  0  0
    4.0425    1.2547    1.5594 N   0  0  0  0  0  0  0  0  0  0  0  0
    4.6875    2.3700    2.1468 C   0  0  0  0  0  0  0  0  0  0  0  0
    5.0703    3.3206    1.2559 N   0  0  0  0  0  0  0  0  0  0  0  0
    5.6714    4.4680    1.6680 N   0  0  0  0  0  0  0  0  0  0  0  0
    5.8915    4.6480    2.9819 C   0  0  0  0  0  0  0  0  0  0  0  0
    5.5200    3.7294    3.9528 C   0  0  0  0  0  0  0  0  0  0  0  0
    5.7860    3.9645    5.3163 C   0  0  0  0  0  0  0  0  0  0  0  0
    5.4128    3.0383    6.2880 C   0  0  0  0  0  0  0  0  0  0  0  0
    4.7485    1.8803    5.9119 C   0  0  0  0  0  0  0  0  0  0  0  0
    4.4705    1.6481    4.5626 C   0  0  0  0  0  0  0  0  0  0  0  0
    4.8717    2.5470    3.5413 C   0  0  0  0  0  0  0  0  0  0  0  0
    1.2672    1.2205   -1.2103 H   0  0  0  0  0  0  0  0  0  0  0  0
    1.6359   -0.5138   -1.2790 H   0  0  0  0  0  0  0  0  0  0  0  0
    2.8998    0.6382   -0.8630 H   0  0  0  0  0  0  0  0  0  0  0  0
    0.3631    0.1745    0.7919 H   0  0  0  0  0  0  0  0  0  0  0  0
    1.6828    1.2094    1.2770 H   0  0  0  0  0  0  0  0  0  0  0  0
    2.3353   -3.9780    1.4599 H   0  0  0  0  0  0  0  0  0  0  0  0
    1.4812   -3.4753    2.9580 H   0  0  0  0  0  0  0  0  0  0  0  0
    4.2712    1.3463    0.5661 H   0  0  0  0  0  0  0  0  0  0  0  0
    6.3866    5.5804    3.2310 H   0  0  0  0  0  0  0  0  0  0  0  0
    6.2980    4.8728    5.6303 H   0  0  0  0  0  0  0  0  0  0  0  0
    5.6391    3.2209    7.3352 H   0  0  0  0  0  0  0  0  0  0  0  0
    4.4520    1.1483    6.6593 H   0  0  0  0  0  0  0  0  0  0  0  0
    3.9415    0.7312    4.3185 H   0  0  0  0  0  0  0  0  0  0  0  0
  1  2  1  0  0  0  0
  1 21  1  0  0  0  0
  1 22  1  0  0  0  0
  1 23  1  0  0  0  0
  2  3  1  0  0  0  0
  2 24  1  0  0  0  0
  2 25  1  0  0  0  0
  3  4  1  0  0  0  0
  3  8  1  0  0  0  0
  4  5  2  0  0  0  0
  4  6  1  0  0  0  0
  6  7  1  0  0  0  0
  6 26  1  0  0  0  0
  6 27  1  0  0  0  0
  7  8  1  0  0  0  0
  8  9  2  0  0  0  0
  9 10  1  0  0  0  0
 10 11  1  0  0  0  0
 10 28  1  0  0  0  0
 11 12  1  0  0  0  0
 11 20  2  0  0  0  0
 12 13  2  0  0  0  0
 13 14  1  0  0  0  0
 14 15  2  0  0  0  0
 14 29  1  0  0  0  0
 15 16  1  0  0  0  0
 15 20  1  0  0  0  0
 16 17  2  0  0  0  0
 16 30  1  0  0  0  0
 17 18  1  0  0  0  0
 17 31  1  0  0  0  0
 18 19  2  0  0  0  0
 18 32  1  0  0  0  0
 19 20  1  0  0  0  0
 19 33  1  0  0  0  0
M  END
$$$$
