CHEMBL1984162
 OpenBabel04072215363D

 72 77  0  0  1  0  0  0  0  0999 V2000
    0.6793   -4.8694    3.3560 C   0  0  0  0  0  0  0  0  0  0  0  0
    2.0920   -4.8997    3.4865 O   0  0  0  0  0  0  0  0  0  0  0  0
    2.7095   -3.7322    2.9407 C   0  0  0  0  0  0  0  0  0  0  0  0
    4.2194   -3.8884    3.0860 C   0  0  0  0  0  0  0  0  0  0  0  0
    4.9069   -2.7907    2.4866 O   0  0  0  0  0  0  0  0  0  0  0  0
    6.3291   -2.8352    2.6783 C   0  0  3  0  0  0  0  0  0  0  0  0
    6.9039   -1.5428    2.0849 C   0  0  0  0  0  0  0  0  0  0  0  0
    8.4300   -1.5138    2.0996 C   0  0  0  0  0  0  0  0  0  0  0  0
    9.0286   -2.7505    1.4163 C   0  0  3  0  0  0  0  0  0  0  0  0
   10.4870   -2.7216    1.4407 N   0  0  0  0  0  0  0  0  0  0  0  0
   11.1462   -2.7034    2.6173 N   0  0  0  0  0  0  0  0  0  0  0  0
   12.4469   -2.6431    2.2727 C   0  0  0  0  0  0  0  0  0  0  0  0
   13.4822   -2.6135    3.3082 C   0  0  0  0  0  0  0  0  0  0  0  0
   13.3050   -3.3294    4.4955 C   0  0  0  0  0  0  0  0  0  0  0  0
   14.3470   -3.4320    5.4202 C   0  0  0  0  0  0  0  0  0  0  0  0
   15.5932   -2.8416    5.1720 C   0  0  0  0  0  0  0  0  0  0  0  0
   16.6972   -3.0032    6.0331 N   0  0  0  0  0  0  0  0  0  0  0  0
   16.8890   -4.0889    6.8065 C   0  0  0  0  0  0  0  0  0  0  0  0
   17.4631   -4.1507    7.9888 N   0  0  0  0  0  0  0  0  0  0  0  0
   17.3104   -5.4673    8.3507 C   0  0  0  0  0  0  0  0  0  0  0  0
   17.6558   -6.1423    9.5255 C   0  0  0  0  0  0  0  0  0  0  0  0
   17.3256   -7.5054    9.6320 C   0  0  0  0  0  0  0  0  0  0  0  0
   17.6401   -8.2631   10.8950 C   0  0  0  0  0  0  0  0  0  0  0  0
   16.6850   -8.1711    8.5671 C   0  0  0  0  0  0  0  0  0  0  0  0
   16.3444   -7.5181    7.3685 C   0  0  0  0  0  0  0  0  0  0  0  0
   15.6485   -8.2112    6.2439 C   0  0  0  0  0  0  0  0  0  0  0  0
   16.6831   -6.1677    7.3375 C   0  0  0  0  0  0  0  0  0  0  0  0
   16.4397   -5.2911    6.3272 O   0  0  0  0  0  0  0  0  0  0  0  0
   15.7360   -2.0488    4.0315 C   0  0  0  0  0  0  0  0  0  0  0  0
   14.6820   -1.9165    3.1221 C   0  0  0  0  0  0  0  0  0  0  0  0
   12.6069   -2.6781    0.8489 C   0  0  0  0  0  0  0  0  0  0  0  0
   13.6364   -2.6991   -0.1064 C   0  0  0  0  0  0  0  0  0  0  0  0
   14.9969   -2.7257    0.1685 N   0  0  0  0  0  0  0  0  0  0  0  0
   13.3101   -2.7196   -1.4137 N   0  0  0  0  0  0  0  0  0  0  0  0
   12.0084   -2.7363   -1.7544 C   0  0  0  0  0  0  0  0  0  0  0  0
   10.9435   -2.7455   -0.9395 N   0  0  0  0  0  0  0  0  0  0  0  0
   11.3138   -2.7143    0.3527 C   0  0  0  0  0  0  0  0  0  0  0  0
    8.4765   -4.0419    2.0287 C   0  0  0  0  0  0  0  0  0  0  0  0
    6.9525   -4.0642    2.0018 C   0  0  0  0  0  0  0  0  0  0  0  0
    0.2795   -5.7998    3.7695 H   0  0  0  0  0  0  0  0  0  0  0  0
    0.3905   -4.8047    2.3027 H   0  0  0  0  0  0  0  0  0  0  0  0
    0.2619   -4.0291    3.9177 H   0  0  0  0  0  0  0  0  0  0  0  0
    2.3653   -2.8367    3.4706 H   0  0  0  0  0  0  0  0  0  0  0  0
    2.4443   -3.6233    1.8820 H   0  0  0  0  0  0  0  0  0  0  0  0
    4.5048   -4.8242    2.5950 H   0  0  0  0  0  0  0  0  0  0  0  0
    4.4844   -3.9701    4.1467 H   0  0  0  0  0  0  0  0  0  0  0  0
    6.5412   -2.8520    3.7554 H   0  0  0  0  0  0  0  0  0  0  0  0
    6.5140   -0.6792    2.6375 H   0  0  0  0  0  0  0  0  0  0  0  0
    6.5437   -1.4193    1.0551 H   0  0  0  0  0  0  0  0  0  0  0  0
    8.7761   -1.4464    3.1389 H   0  0  0  0  0  0  0  0  0  0  0  0
    8.7826   -0.6053    1.5953 H   0  0  0  0  0  0  0  0  0  0  0  0
    8.7321   -2.7280    0.3595 H   0  0  0  0  0  0  0  0  0  0  0  0
   12.3634   -3.8328    4.7022 H   0  0  0  0  0  0  0  0  0  0  0  0
   14.1733   -3.9991    6.3323 H   0  0  0  0  0  0  0  0  0  0  0  0
   16.9927   -2.1274    6.4490 H   0  0  0  0  0  0  0  0  0  0  0  0
   18.1448   -5.6070   10.3322 H   0  0  0  0  0  0  0  0  0  0  0  0
   18.1236   -7.6181   11.6371 H   0  0  0  0  0  0  0  0  0  0  0  0
   18.3231   -9.0870   10.6682 H   0  0  0  0  0  0  0  0  0  0  0  0
   16.7233   -8.6602   11.3306 H   0  0  0  0  0  0  0  0  0  0  0  0
   16.4371   -9.2272    8.6794 H   0  0  0  0  0  0  0  0  0  0  0  0
   15.4746   -9.2684    6.4678 H   0  0  0  0  0  0  0  0  0  0  0  0
   16.2526   -8.1523    5.3330 H   0  0  0  0  0  0  0  0  0  0  0  0
   14.6782   -7.7404    6.0552 H   0  0  0  0  0  0  0  0  0  0  0  0
   16.6854   -1.5652    3.8149 H   0  0  0  0  0  0  0  0  0  0  0  0
   14.8294   -1.2845    2.2493 H   0  0  0  0  0  0  0  0  0  0  0  0
   15.2496   -3.2716    0.9837 H   0  0  0  0  0  0  0  0  0  0  0  0
   15.5168   -2.9499   -0.6733 H   0  0  0  0  0  0  0  0  0  0  0  0
   11.7965   -2.7512   -2.8193 H   0  0  0  0  0  0  0  0  0  0  0  0
    8.8166   -4.1526    3.0664 H   0  0  0  0  0  0  0  0  0  0  0  0
    8.8589   -4.9130    1.4823 H   0  0  0  0  0  0  0  0  0  0  0  0
    6.6183   -4.9824    2.4973 H   0  0  0  0  0  0  0  0  0  0  0  0
    6.5931   -4.1326    0.9669 H   0  0  0  0  0  0  0  0  0  0  0  0
  1  2  1  0  0  0  0
  1 40  1  0  0  0  0
  1 41  1  0  0  0  0
  1 42  1  0  0  0  0
  2  3  1  0  0  0  0
  3  4  1  0  0  0  0
  3 43  1  0  0  0  0
  3 44  1  0  0  0  0
  4  5  1  0  0  0  0
  4 45  1  0  0  0  0
  4 46  1  0  0  0  0
  5  6  1  0  0  0  0
  6  7  1  0  0  0  0
  6 39  1  0  0  0  0
  6 47  1  0  0  0  0
  7  8  1  0  0  0  0
  7 48  1  0  0  0  0
  7 49  1  0  0  0  0
  8  9  1  0  0  0  0
  8 50  1  0  0  0  0
  8 51  1  0  0  0  0
  9 10  1  0  0  0  0
  9 38  1  0  0  0  0
  9 52  1  0  0  0  0
 10 11  1  0  0  0  0
 10 37  1  0  0  0  0
 11 12  2  0  0  0  0
 12 13  1  0  0  0  0
 12 31  1  0  0  0  0
 13 14  1  0  0  0  0
 13 30  2  0  0  0  0
 14 15  2  0  0  0  0
 14 53  1  0  0  0  0
 15 16  1  0  0  0  0
 15 54  1  0  0  0  0
 16 17  1  0  0  0  0
 16 29  2  0  0  0  0
 17 18  1  0  0  0  0
 17 55  1  0  0  0  0
 18 19  2  0  0  0  0
 18 28  1  0  0  0  0
 19 20  1  0  0  0  0
 20 21  1  0  0  0  0
 20 27  2  0  0  0  0
 21 22  2  0  0  0  0
 21 56  1  0  0  0  0
 22 23  1  0  0  0  0
 22 24  1  0  0  0  0
 23 57  1  0  0  0  0
 23 58  1  0  0  0  0
 23 59  1  0  0  0  0
 24 25  2  0  0  0  0
 24 60  1  0  0  0  0
 25 26  1  0  0  0  0
 25 27  1  0  0  0  0
 26 61  1  0  0  0  0
 26 62  1  0  0  0  0
 26 63  1  0  0  0  0
 27 28  1  0  0  0  0
 29 30  1  0  0  0  0
 29 64  1  0  0  0  0
 30 65  1  0  0  0  0
 31 32  1  0  0  0  0
 31 37  2  0  0  0  0
 32 33  1  0  0  0  0
 32 34  2  0  0  0  0
 33 66  1  0  0  0  0
 33 67  1  0  0  0  0
 34 35  1  0  0  0  0
 35 36  2  0  0  0  0
 35 68  1  0  0  0  0
 36 37  1  0  0  0  0
 38 39  1  0  0  0  0
 38 69  1  0  0  0  0
 38 70  1  0  0  0  0
 39 71  1  0  0  0  0
 39 72  1  0  0  0  0
M  END
$$$$
