CHEMBL380131
 OpenBabel04072215373D

 46 49  0  0  0  0  0  0  0  0999 V2000
    2.1040    0.0565   -0.0166 C   0  0  0  0  0  0  0  0  0  0  0  0
    0.6649   -0.0644    0.0023 N   0  0  0  0  0  0  0  0  0  0  0  0
   -0.2076    0.9834    0.1125 C   0  0  0  0  0  0  0  0  0  0  0  0
   -1.4518    0.5689    0.2050 N   0  0  0  0  0  0  0  0  0  0  0  0
   -1.3786   -0.7856    0.0887 C   0  0  0  0  0  0  0  0  0  0  0  0
   -2.4670   -1.5656    0.1363 N   0  0  0  0  0  0  0  0  0  0  0  0
   -3.7040   -1.1292    0.7425 C   0  0  0  0  0  0  0  0  0  0  0  0
   -4.4179   -2.3372    1.3087 C   0  0  0  0  0  0  0  0  0  0  0  0
   -3.7952   -3.1496    2.2656 C   0  0  0  0  0  0  0  0  0  0  0  0
   -4.4819   -4.2472    2.7662 C   0  0  0  0  0  0  0  0  0  0  0  0
   -5.7315   -4.5825    2.3831 N   0  0  0  0  0  0  0  0  0  0  0  0
   -6.3203   -3.7826    1.4678 C   0  0  0  0  0  0  0  0  0  0  0  0
   -5.7151   -2.6673    0.9086 C   0  0  0  0  0  0  0  0  0  0  0  0
   -0.0773   -1.2216   -0.0369 C   0  0  0  0  0  0  0  0  0  0  0  0
    0.4440   -2.5451   -0.0874 C   0  0  0  0  0  0  0  0  0  0  0  0
    1.7290   -2.8393   -0.0261 N   0  0  0  0  0  0  0  0  0  0  0  0
    1.8219   -4.2084    0.0006 N   0  0  0  0  0  0  0  0  0  0  0  0
    0.5935   -4.6757   -0.0474 C   0  0  0  0  0  0  0  0  0  0  0  0
    0.0970   -5.9248    0.0032 N   0  0  0  0  0  0  0  0  0  0  0  0
    0.7277   -7.0482    0.5708 C   0  0  0  0  0  0  0  0  0  0  0  0
    1.9674   -6.9932    1.2200 C   0  0  0  0  0  0  0  0  0  0  0  0
    2.5713   -8.1413    1.7386 C   0  0  0  0  0  0  0  0  0  0  0  0
    1.9558   -9.3919    1.5988 C   0  0  0  0  0  0  0  0  0  0  0  0
    2.6042  -10.6363    2.1499 C   0  0  0  0  0  0  0  0  0  0  0  0
    3.8036  -10.4074    2.7538 F   0  0  0  0  0  0  0  0  0  0  0  0
    1.8295  -11.2552    3.0831 F   0  0  0  0  0  0  0  0  0  0  0  0
    2.8439  -11.5665    1.1852 F   0  0  0  0  0  0  0  0  0  0  0  0
    0.7296   -9.4640    0.9300 C   0  0  0  0  0  0  0  0  0  0  0  0
    0.1270   -8.3085    0.4171 C   0  0  0  0  0  0  0  0  0  0  0  0
   -0.3356   -3.6767   -0.1421 O   0  0  0  0  0  0  0  0  0  0  0  0
    2.3828    1.1130   -0.0118 H   0  0  0  0  0  0  0  0  0  0  0  0
    2.4860   -0.4163   -0.9243 H   0  0  0  0  0  0  0  0  0  0  0  0
    2.5051   -0.4270    0.8783 H   0  0  0  0  0  0  0  0  0  0  0  0
    0.1138    2.0169    0.1352 H   0  0  0  0  0  0  0  0  0  0  0  0
   -2.5239   -2.4102   -0.4211 H   0  0  0  0  0  0  0  0  0  0  0  0
   -4.3238   -0.6256   -0.0070 H   0  0  0  0  0  0  0  0  0  0  0  0
   -3.5325   -0.4233    1.5655 H   0  0  0  0  0  0  0  0  0  0  0  0
   -2.7895   -2.9342    2.6122 H   0  0  0  0  0  0  0  0  0  0  0  0
   -4.0320   -4.8990    3.5077 H   0  0  0  0  0  0  0  0  0  0  0  0
   -7.3280   -4.0714    1.1873 H   0  0  0  0  0  0  0  0  0  0  0  0
   -6.2517   -2.0729    0.1776 H   0  0  0  0  0  0  0  0  0  0  0  0
   -0.9058   -6.0190   -0.1037 H   0  0  0  0  0  0  0  0  0  0  0  0
    2.4904   -6.0495    1.3592 H   0  0  0  0  0  0  0  0  0  0  0  0
    3.5270   -8.0469    2.2496 H   0  0  0  0  0  0  0  0  0  0  0  0
    0.2342  -10.4244    0.7990 H   0  0  0  0  0  0  0  0  0  0  0  0
   -0.8189   -8.4033   -0.1122 H   0  0  0  0  0  0  0  0  0  0  0  0
  1  2  1  0  0  0  0
  1 31  1  0  0  0  0
  1 32  1  0  0  0  0
  1 33  1  0  0  0  0
  2  3  1  0  0  0  0
  2 14  1  0  0  0  0
  3  4  2  0  0  0  0
  3 34  1  0  0  0  0
  4  5  1  0  0  0  0
  5  6  1  0  0  0  0
  5 14  2  0  0  0  0
  6  7  1  0  0  0  0
  6 35  1  0  0  0  0
  7  8  1  0  0  0  0
  7 36  1  0  0  0  0
  7 37  1  0  0  0  0
  8  9  1  0  0  0  0
  8 13  2  0  0  0  0
  9 10  2  0  0  0  0
  9 38  1  0  0  0  0
 10 11  1  0  0  0  0
 10 39  1  0  0  0  0
 11 12  2  0  0  0  0
 12 13  1  0  0  0  0
 12 40  1  0  0  0  0
 13 41  1  0  0  0  0
 14 15  1  0  0  0  0
 15 16  2  0  0  0  0
 15 30  1  0  0  0  0
 16 17  1  0  0  0  0
 17 18  2  0  0  0  0
 18 19  1  0  0  0  0
 18 30  1  0  0  0  0
 19 20  1  0  0  0  0
 19 42  1  0  0  0  0
 20 21  1  0  0  0  0
 20 29  2  0  0  0  0
 21 22  2  0  0  0  0
 21 43  1  0  0  0  0
 22 23  1  0  0  0  0
 22 44  1  0  0  0  0
 23 24  1  0  0  0  0
 23 28  2  0  0  0  0
 24 25  1  0  0  0  0
 24 26  1  0  0  0  0
 24 27  1  0  0  0  0
 28 29  1  0  0  0  0
 28 45  1  0  0  0  0
 29 46  1  0  0  0  0
M  END
$$$$
