CHEMBL3780261
 OpenBabel04072215373D

 49 52  0  0  0  0  0  0  0  0999 V2000
   10.3995   -1.9284   -1.9307 C   0  0  0  0  0  0  0  0  0  0  0  0
    9.9628   -1.5579   -0.6293 O   0  0  0  0  0  0  0  0  0  0  0  0
    8.9015   -2.2507   -0.1176 C   0  0  0  0  0  0  0  0  0  0  0  0
    8.1836   -3.2514   -0.7731 C   0  0  0  0  0  0  0  0  0  0  0  0
    7.1196   -3.9010   -0.1342 C   0  0  0  0  0  0  0  0  0  0  0  0
    6.7650   -3.5742    1.1797 C   0  0  0  0  0  0  0  0  0  0  0  0
    5.5841   -4.1985    1.8893 C   0  0  0  0  0  0  0  0  0  0  0  0
    5.2461   -5.6467    1.5980 C   0  0  0  0  0  0  0  0  0  0  0  0
    4.2475   -5.8248    0.7078 N   0  0  0  0  0  0  0  0  0  0  0  0
    3.7100   -7.0657    0.5120 N   0  0  0  0  0  0  0  0  0  0  0  0
    4.1478   -8.1466    1.1977 C   0  0  0  0  0  0  0  0  0  0  0  0
    3.4199   -9.3652    1.0734 N   0  0  0  0  0  0  0  0  0  0  0  0
    2.6498   -9.7326   -0.0611 C   0  0  0  0  0  0  0  0  0  0  0  0
    3.0384   -9.4009   -1.3633 C   0  0  0  0  0  0  0  0  0  0  0  0
    2.2954   -9.8235   -2.4722 C   0  0  0  0  0  0  0  0  0  0  0  0
    1.1536  -10.6005   -2.2951 C   0  0  0  0  0  0  0  0  0  0  0  0
    0.3231  -11.0407   -3.2886 O   0  0  0  0  0  0  0  0  0  0  0  0
    0.6428  -10.6343   -4.6148 C   0  0  0  0  0  0  0  0  0  0  0  0
    0.7913  -10.9847   -1.0029 C   0  0  0  0  0  0  0  0  0  0  0  0
    1.5430  -10.5713    0.1044 C   0  0  0  0  0  0  0  0  0  0  0  0
    5.2261   -8.0203    2.1089 C   0  0  0  0  0  0  0  0  0  0  0  0
    5.7606   -9.1026    2.8625 C   0  0  0  0  0  0  0  0  0  0  0  0
    6.8600   -8.9366    3.7081 C   0  0  0  0  0  0  0  0  0  0  0  0
    7.4459   -7.6930    3.8467 C   0  0  0  0  0  0  0  0  0  0  0  0
    6.9247   -6.6006    3.1482 C   0  0  0  0  0  0  0  0  0  0  0  0
    5.8132   -6.7379    2.2807 C   0  0  0  0  0  0  0  0  0  0  0  0
    7.4688   -2.5367    1.8155 C   0  0  0  0  0  0  0  0  0  0  0  0
    8.5262   -1.8875    1.1756 C   0  0  0  0  0  0  0  0  0  0  0  0
   11.3016   -1.3522   -2.1612 H   0  0  0  0  0  0  0  0  0  0  0  0
    9.6413   -1.6787   -2.6793 H   0  0  0  0  0  0  0  0  0  0  0  0
   10.6666   -2.9896   -1.9756 H   0  0  0  0  0  0  0  0  0  0  0  0
    8.4146   -3.5483   -1.7925 H   0  0  0  0  0  0  0  0  0  0  0  0
    6.5620   -4.6577   -0.6861 H   0  0  0  0  0  0  0  0  0  0  0  0
    4.7047   -3.5864    1.6525 H   0  0  0  0  0  0  0  0  0  0  0  0
    5.7114   -4.0955    2.9755 H   0  0  0  0  0  0  0  0  0  0  0  0
    3.9895  -10.1636    1.3265 H   0  0  0  0  0  0  0  0  0  0  0  0
    3.9271   -8.7967   -1.5362 H   0  0  0  0  0  0  0  0  0  0  0  0
    2.6369   -9.5165   -3.4545 H   0  0  0  0  0  0  0  0  0  0  0  0
   -0.1674  -10.9625   -5.2731 H   0  0  0  0  0  0  0  0  0  0  0  0
    1.5664  -11.1163   -4.9521 H   0  0  0  0  0  0  0  0  0  0  0  0
    0.7124   -9.5444   -4.7004 H   0  0  0  0  0  0  0  0  0  0  0  0
   -0.0909  -11.6035   -0.8537 H   0  0  0  0  0  0  0  0  0  0  0  0
    1.2345  -10.8800    1.0997 H   0  0  0  0  0  0  0  0  0  0  0  0
    5.3435  -10.0975    2.7941 H   0  0  0  0  0  0  0  0  0  0  0  0
    7.2558   -9.7907    4.2572 H   0  0  0  0  0  0  0  0  0  0  0  0
    8.3082   -7.5597    4.4956 H   0  0  0  0  0  0  0  0  0  0  0  0
    7.4170   -5.6413    3.2795 H   0  0  0  0  0  0  0  0  0  0  0  0
    7.1890   -2.2106    2.8164 H   0  0  0  0  0  0  0  0  0  0  0  0
    9.0581   -1.0872    1.6835 H   0  0  0  0  0  0  0  0  0  0  0  0
  1  2  1  0  0  0  0
  1 29  1  0  0  0  0
  1 30  1  0  0  0  0
  1 31  1  0  0  0  0
  2  3  1  0  0  0  0
  3  4  1  0  0  0  0
  3 28  2  0  0  0  0
  4  5  2  0  0  0  0
  4 32  1  0  0  0  0
  5  6  1  0  0  0  0
  5 33  1  0  0  0  0
  6  7  1  0  0  0  0
  6 27  2  0  0  0  0
  7  8  1  0  0  0  0
  7 34  1  0  0  0  0
  7 35  1  0  0  0  0
  8  9  1  0  0  0  0
  8 26  2  0  0  0  0
  9 10  2  0  0  0  0
 10 11  1  0  0  0  0
 11 12  1  0  0  0  0
 11 21  2  0  0  0  0
 12 13  1  0  0  0  0
 12 36  1  0  0  0  0
 13 14  1  0  0  0  0
 13 20  2  0  0  0  0
 14 15  2  0  0  0  0
 14 37  1  0  0  0  0
 15 16  1  0  0  0  0
 15 38  1  0  0  0  0
 16 17  1  0  0  0  0
 16 19  2  0  0  0  0
 17 18  1  0  0  0  0
 18 39  1  0  0  0  0
 18 40  1  0  0  0  0
 18 41  1  0  0  0  0
 19 20  1  0  0  0  0
 19 42  1  0  0  0  0
 20 43  1  0  0  0  0
 21 22  1  0  0  0  0
 21 26  1  0  0  0  0
 22 23  2  0  0  0  0
 22 44  1  0  0  0  0
 23 24  1  0  0  0  0
 23 45  1  0  0  0  0
 24 25  2  0  0  0  0
 24 46  1  0  0  0  0
 25 26  1  0  0  0  0
 25 47  1  0  0  0  0
 27 28  1  0  0  0  0
 27 48  1  0  0  0  0
 28 49  1  0  0  0  0
M  END
$$$$
