CHEMBL212181
 OpenBabel04072215363D

 58 62  0  0  0  0  0  0  0  0999 V2000
    2.4651    0.2419   -0.1341 C   0  0  0  0  0  0  0  0  0  0  0  0
    0.9665    0.0937   -0.0475 C   0  0  0  0  0  0  0  0  0  0  0  0
    0.2174    1.2951   -0.0182 C   0  0  0  0  0  0  0  0  0  0  0  0
   -1.1779    1.2932    0.0214 C   0  0  0  0  0  0  0  0  0  0  0  0
   -1.8504    0.0796    0.0579 C   0  0  0  0  0  0  0  0  0  0  0  0
   -3.3321   -0.0270    0.1279 C   0  0  0  0  0  0  0  0  0  0  0  0
   -3.7868   -0.9834    0.7468 O   0  0  0  0  0  0  0  0  0  0  0  0
   -4.0589    0.9233   -0.5800 N   0  0  0  0  0  0  0  0  0  0  0  0
   -5.4773    0.9690   -0.6831 C   0  0  0  0  0  0  0  0  0  0  0  0
   -6.2929    0.2422    0.1940 C   0  0  0  0  0  0  0  0  0  0  0  0
   -7.6791    0.2419    0.0708 C   0  0  0  0  0  0  0  0  0  0  0  0
   -8.2786    0.9793   -0.9396 C   0  0  0  0  0  0  0  0  0  0  0  0
   -7.5045    1.7421   -1.8332 C   0  0  0  0  0  0  0  0  0  0  0  0
   -8.2321    2.5117   -2.9187 C   0  0  0  0  0  0  0  0  0  0  0  0
   -9.5846    2.3406   -2.9029 F   0  0  0  0  0  0  0  0  0  0  0  0
   -8.0341    3.8573   -2.8329 F   0  0  0  0  0  0  0  0  0  0  0  0
   -7.8346    2.1487   -4.1699 F   0  0  0  0  0  0  0  0  0  0  0  0
   -6.0875    1.7556   -1.6947 C   0  0  0  0  0  0  0  0  0  0  0  0
   -5.2346    2.5841   -2.6305 C   0  0  0  0  0  0  0  0  0  0  0  0
   -1.1113   -1.1181    0.0744 C   0  0  0  0  0  0  0  0  0  0  0  0
    0.3015   -1.1585    0.0121 C   0  0  0  0  0  0  0  0  0  0  0  0
    0.9703   -2.4949   -0.0027 C   0  0  0  0  0  0  0  0  0  0  0  0
    0.3810   -3.5943   -0.6566 C   0  0  0  0  0  0  0  0  0  0  0  0
    0.9738   -4.8673   -0.6552 C   0  0  0  0  0  0  0  0  0  0  0  0
    2.1908   -5.1012   -0.0420 C   0  0  0  0  0  0  0  0  0  0  0  0
    2.7357   -6.3230   -0.0754 N   0  0  0  0  0  0  0  0  0  0  0  0
    3.9118   -6.5094    0.5461 C   0  0  0  0  0  0  0  0  0  0  0  0
    4.4798   -7.7821    0.6031 N   0  0  0  0  0  0  0  0  0  0  0  0
    4.1667   -8.7834   -0.4042 C   0  0  0  0  0  0  0  0  0  0  0  0
    4.8316  -10.1301   -0.3486 C   0  0  0  0  0  0  0  0  0  0  0  0
    5.1609   -9.1762   -1.4598 C   0  0  0  0  0  0  0  0  0  0  0  0
    4.5927   -5.5364    1.1678 N   0  0  0  0  0  0  0  0  0  0  0  0
    4.0221   -4.3170    1.1817 C   0  0  0  0  0  0  0  0  0  0  0  0
    2.7970   -4.0284    0.6046 C   0  0  0  0  0  0  0  0  0  0  0  0
    2.1799   -2.7562    0.6550 C   0  0  0  0  0  0  0  0  0  0  0  0
    2.7533    1.2645   -0.3995 H   0  0  0  0  0  0  0  0  0  0  0  0
    2.8804   -0.4133   -0.9049 H   0  0  0  0  0  0  0  0  0  0  0  0
    2.9285    0.0350    0.8360 H   0  0  0  0  0  0  0  0  0  0  0  0
    0.7337    2.2547   -0.0258 H   0  0  0  0  0  0  0  0  0  0  0  0
   -1.7112    2.2370    0.0649 H   0  0  0  0  0  0  0  0  0  0  0  0
   -3.5334    1.5284   -1.1922 H   0  0  0  0  0  0  0  0  0  0  0  0
   -5.8759   -0.3411    1.0084 H   0  0  0  0  0  0  0  0  0  0  0  0
   -8.2807   -0.3432    0.7626 H   0  0  0  0  0  0  0  0  0  0  0  0
   -9.3656    0.9515   -1.0257 H   0  0  0  0  0  0  0  0  0  0  0  0
   -5.8120    3.1341   -3.3762 H   0  0  0  0  0  0  0  0  0  0  0  0
   -4.5415    1.9387   -3.1785 H   0  0  0  0  0  0  0  0  0  0  0  0
   -4.6694    3.3291   -2.0584 H   0  0  0  0  0  0  0  0  0  0  0  0
   -1.6732   -2.0504    0.1491 H   0  0  0  0  0  0  0  0  0  0  0  0
   -0.5682   -3.4908   -1.1797 H   0  0  0  0  0  0  0  0  0  0  0  0
    0.4664   -5.6936   -1.1485 H   0  0  0  0  0  0  0  0  0  0  0  0
    5.4154   -7.6903    0.9781 H   0  0  0  0  0  0  0  0  0  0  0  0
    3.1165   -8.7870   -0.6933 H   0  0  0  0  0  0  0  0  0  0  0  0
    4.2200  -10.9950   -0.5756 H   0  0  0  0  0  0  0  0  0  0  0  0
    5.5800  -10.3021    0.4152 H   0  0  0  0  0  0  0  0  0  0  0  0
    4.7816   -9.4012   -2.4498 H   0  0  0  0  0  0  0  0  0  0  0  0
    6.1364   -8.7053   -1.4548 H   0  0  0  0  0  0  0  0  0  0  0  0
    4.6036   -3.5504    1.6862 H   0  0  0  0  0  0  0  0  0  0  0  0
    2.6627   -1.9855    1.2462 H   0  0  0  0  0  0  0  0  0  0  0  0
  1  2  1  0  0  0  0
  1 36  1  0  0  0  0
  1 37  1  0  0  0  0
  1 38  1  0  0  0  0
  2  3  1  0  0  0  0
  2 21  2  0  0  0  0
  3  4  2  0  0  0  0
  3 39  1  0  0  0  0
  4  5  1  0  0  0  0
  4 40  1  0  0  0  0
  5  6  1  0  0  0  0
  5 20  2  0  0  0  0
  6  7  2  0  0  0  0
  6  8  1  0  0  0  0
  8  9  1  0  0  0  0
  8 41  1  0  0  0  0
  9 10  1  0  0  0  0
  9 18  2  0  0  0  0
 10 11  2  0  0  0  0
 10 42  1  0  0  0  0
 11 12  1  0  0  0  0
 11 43  1  0  0  0  0
 12 13  2  0  0  0  0
 12 44  1  0  0  0  0
 13 14  1  0  0  0  0
 13 18  1  0  0  0  0
 14 15  1  0  0  0  0
 14 16  1  0  0  0  0
 14 17  1  0  0  0  0
 18 19  1  0  0  0  0
 19 45  1  0  0  0  0
 19 46  1  0  0  0  0
 19 47  1  0  0  0  0
 20 21  1  0  0  0  0
 20 48  1  0  0  0  0
 21 22  1  0  0  0  0
 22 23  1  0  0  0  0
 22 35  2  0  0  0  0
 23 24  2  0  0  0  0
 23 49  1  0  0  0  0
 24 25  1  0  0  0  0
 24 50  1  0  0  0  0
 25 26  1  0  0  0  0
 25 34  2  0  0  0  0
 26 27  2  0  0  0  0
 27 28  1  0  0  0  0
 27 32  1  0  0  0  0
 28 29  1  0  0  0  0
 28 51  1  0  0  0  0
 29 30  1  0  0  0  0
 29 31  1  0  0  0  0
 29 52  1  0  0  0  0
 30 31  1  0  0  0  0
 30 53  1  0  0  0  0
 30 54  1  0  0  0  0
 31 55  1  0  0  0  0
 31 56  1  0  0  0  0
 32 33  2  0  0  0  0
 33 34  1  0  0  0  0
 33 57  1  0  0  0  0
 34 35  1  0  0  0  0
 35 58  1  0  0  0  0
M  END
$$$$
