CHEMBL301143
 OpenBabel04072215363D

 60 64  0  0  0  0  0  0  0  0999 V2000
    1.3044    2.2846   -2.8002 C   0  0  0  0  0  0  0  0  0  0  0  0
    2.6526    2.2970   -2.2368 N   0  0  0  0  0  0  0  0  0  0  0  0
    3.1248    1.0194   -1.2514 S   0  0  0  0  0  0  0  0  0  0  0  0
    4.2700    1.5013   -0.5009 O   0  0  0  0  0  0  0  0  0  0  0  0
    1.9524    0.4806   -0.5993 O   0  0  0  0  0  0  0  0  0  0  0  0
    3.7203   -0.1865   -2.4181 C   0  0  0  0  0  0  0  0  0  0  0  0
    2.7956   -1.1090   -2.9526 C   0  0  0  0  0  0  0  0  0  0  0  0
    3.2262   -2.1194   -3.8102 C   0  0  0  0  0  0  0  0  0  0  0  0
    4.5764   -2.1799   -4.0921 C   0  0  0  0  0  0  0  0  0  0  0  0
    5.5119   -1.2798   -3.5631 C   0  0  0  0  0  0  0  0  0  0  0  0
    5.0944   -0.2682   -2.7109 C   0  0  0  0  0  0  0  0  0  0  0  0
    6.8209   -1.6996   -4.0996 C   0  0  0  0  0  0  0  0  0  0  0  0
    7.9975   -1.0981   -3.8636 C   0  0  0  0  0  0  0  0  0  0  0  0
    9.2290   -1.5070   -4.4356 C   0  0  0  0  0  0  0  0  0  0  0  0
    9.9739   -2.4418   -3.7550 N   0  0  0  0  0  0  0  0  0  0  0  0
   11.1429   -2.6675   -4.4220 C   0  0  0  0  0  0  0  0  0  0  0  0
   11.1665   -1.8614   -5.5463 C   0  0  0  0  0  0  0  0  0  0  0  0
    9.8959   -1.1889   -5.6212 C   0  0  0  0  0  0  0  0  0  0  0  0
    9.2717   -0.4598   -6.7885 C   0  0  0  0  0  0  0  0  0  0  0  0
    9.8907    0.8201   -7.1800 N   0  0  0  0  0  0  0  0  0  0  0  0
    9.7665    1.8902   -6.1674 C   0  0  0  0  0  0  0  0  0  0  0  0
    8.3399    2.4405   -5.9743 C   0  0  0  0  0  0  0  0  0  0  0  0
    7.7578    2.8824   -7.2082 O   0  0  0  0  0  0  0  0  0  0  0  0
    7.7907    1.8478   -8.1971 C   0  0  0  0  0  0  0  0  0  0  0  0
    9.2271    1.3273   -8.4160 C   0  0  0  0  0  0  0  0  0  0  0  0
   12.3497   -1.8672   -6.4623 C   0  0  0  0  0  0  0  0  0  0  0  0
   13.1386   -3.1909   -6.3369 C   0  0  0  0  0  0  0  0  0  0  0  0
   13.4346   -3.5419   -4.8662 C   0  0  0  0  0  0  0  0  0  0  0  0
   12.1495   -3.7009   -4.0358 C   0  0  0  0  0  0  0  0  0  0  0  0
    6.5701   -2.9133   -4.9654 C   0  0  0  0  0  0  0  0  0  0  0  0
    7.3635   -3.5952   -5.5815 O   0  0  0  0  0  0  0  0  0  0  0  0
    5.2012   -3.1182   -4.9039 N   0  0  0  0  0  0  0  0  0  0  0  0
    1.1954    3.1386   -3.4757 H   0  0  0  0  0  0  0  0  0  0  0  0
    0.5530    2.3867   -2.0124 H   0  0  0  0  0  0  0  0  0  0  0  0
    1.1226    1.3750   -3.3763 H   0  0  0  0  0  0  0  0  0  0  0  0
    3.0003    3.1870   -1.8823 H   0  0  0  0  0  0  0  0  0  0  0  0
    1.7407   -1.0435   -2.6902 H   0  0  0  0  0  0  0  0  0  0  0  0
    2.5226   -2.8317   -4.2274 H   0  0  0  0  0  0  0  0  0  0  0  0
    5.7998    0.4290   -2.2690 H   0  0  0  0  0  0  0  0  0  0  0  0
    8.0421   -0.2253   -3.2199 H   0  0  0  0  0  0  0  0  0  0  0  0
    9.6765   -2.9333   -2.9233 H   0  0  0  0  0  0  0  0  0  0  0  0
    8.2015   -0.3357   -6.5920 H   0  0  0  0  0  0  0  0  0  0  0  0
    9.3397   -1.1489   -7.6415 H   0  0  0  0  0  0  0  0  0  0  0  0
   10.3932    2.7250   -6.5141 H   0  0  0  0  0  0  0  0  0  0  0  0
   10.1913    1.5813   -5.2076 H   0  0  0  0  0  0  0  0  0  0  0  0
    8.3749    3.3134   -5.3134 H   0  0  0  0  0  0  0  0  0  0  0  0
    7.6790    1.7029   -5.5078 H   0  0  0  0  0  0  0  0  0  0  0  0
    7.4067    2.2763   -9.1294 H   0  0  0  0  0  0  0  0  0  0  0  0
    7.0988    1.0488   -7.9071 H   0  0  0  0  0  0  0  0  0  0  0  0
    9.8324    2.1586   -8.8016 H   0  0  0  0  0  0  0  0  0  0  0  0
    9.2312    0.5609   -9.1999 H   0  0  0  0  0  0  0  0  0  0  0  0
   13.0119   -1.0429   -6.1658 H   0  0  0  0  0  0  0  0  0  0  0  0
   12.0576   -1.7007   -7.5026 H   0  0  0  0  0  0  0  0  0  0  0  0
   14.0807   -3.1150   -6.8922 H   0  0  0  0  0  0  0  0  0  0  0  0
   12.5634   -4.0090   -6.7895 H   0  0  0  0  0  0  0  0  0  0  0  0
   14.0550   -2.7495   -4.4283 H   0  0  0  0  0  0  0  0  0  0  0  0
   14.0233   -4.4663   -4.8108 H   0  0  0  0  0  0  0  0  0  0  0  0
   12.3864   -3.6437   -2.9679 H   0  0  0  0  0  0  0  0  0  0  0  0
   11.7269   -4.6966   -4.2239 H   0  0  0  0  0  0  0  0  0  0  0  0
    4.7480   -3.8799   -5.3850 H   0  0  0  0  0  0  0  0  0  0  0  0
  1  2  1  0  0  0  0
  1 33  1  0  0  0  0
  1 34  1  0  0  0  0
  1 35  1  0  0  0  0
  2  3  1  0  0  0  0
  2 36  1  0  0  0  0
  3  4  2  0  0  0  0
  3  5  2  0  0  0  0
  3  6  1  0  0  0  0
  6  7  1  0  0  0  0
  6 11  2  0  0  0  0
  7  8  2  0  0  0  0
  7 37  1  0  0  0  0
  8  9  1  0  0  0  0
  8 38  1  0  0  0  0
  9 10  2  0  0  0  0
  9 32  1  0  0  0  0
 10 11  1  0  0  0  0
 10 12  1  0  0  0  0
 11 39  1  0  0  0  0
 12 13  2  0  0  0  0
 12 30  1  0  0  0  0
 13 14  1  0  0  0  0
 13 40  1  0  0  0  0
 14 15  1  0  0  0  0
 14 18  2  0  0  0  0
 15 16  1  0  0  0  0
 15 41  1  0  0  0  0
 16 17  2  0  0  0  0
 16 29  1  0  0  0  0
 17 18  1  0  0  0  0
 17 26  1  0  0  0  0
 18 19  1  0  0  0  0
 19 20  1  0  0  0  0
 19 42  1  0  0  0  0
 19 43  1  0  0  0  0
 20 21  1  0  0  0  0
 20 25  1  0  0  0  0
 21 22  1  0  0  0  0
 21 44  1  0  0  0  0
 21 45  1  0  0  0  0
 22 23  1  0  0  0  0
 22 46  1  0  0  0  0
 22 47  1  0  0  0  0
 23 24  1  0  0  0  0
 24 25  1  0  0  0  0
 24 48  1  0  0  0  0
 24 49  1  0  0  0  0
 25 50  1  0  0  0  0
 25 51  1  0  0  0  0
 26 27  1  0  0  0  0
 26 52  1  0  0  0  0
 26 53  1  0  0  0  0
 27 28  1  0  0  0  0
 27 54  1  0  0  0  0
 27 55  1  0  0  0  0
 28 29  1  0  0  0  0
 28 56  1  0  0  0  0
 28 57  1  0  0  0  0
 29 58  1  0  0  0  0
 29 59  1  0  0  0  0
 30 31  2  0  0  0  0
 30 32  1  0  0  0  0
 32 60  1  0  0  0  0
M  END
$$$$
