CHEMBL3919730
 OpenBabel04072215373D

 69 73  0  0  1  0  0  0  0  0999 V2000
    0.3335    3.6750   -1.4511 C   0  0  0  0  0  0  0  0  0  0  0  0
    1.6449    3.8669   -1.9956 O   0  0  0  0  0  0  0  0  0  0  0  0
    2.6512    3.0649   -1.4993 C   0  0  0  0  0  0  0  0  0  0  0  0
    2.4848    2.1550   -0.4572 C   0  0  0  0  0  0  0  0  0  0  0  0
    3.5464    1.3531   -0.0538 C   0  0  0  0  0  0  0  0  0  0  0  0
    3.4910    0.4059    0.9341 O   0  0  0  0  0  0  0  0  0  0  0  0
    2.2564    0.2708    1.6281 C   0  0  0  0  0  0  0  0  0  0  0  0
    4.7847    1.4604   -0.7044 C   0  0  0  0  0  0  0  0  0  0  0  0
    4.9953    2.3509   -1.7687 C   0  0  0  0  0  0  0  0  0  0  0  0
    6.1609    2.3143   -2.5833 N   0  0  0  0  0  0  0  0  0  0  0  0
    6.7882    0.9430   -2.7927 C   0  0  0  0  0  0  0  0  0  0  0  0
    5.9317   -0.2647   -3.2443 C   0  0  0  0  0  0  0  0  0  0  0  0
    5.4896   -0.3680   -4.7236 C   0  0  0  0  0  0  0  0  0  0  0  0
    4.8468   -1.6795   -5.0046 N   0  0  0  0  0  0  0  0  0  0  0  0
    5.7418   -2.8397   -4.8880 C   0  0  0  0  0  0  0  0  0  0  0  0
    5.2046   -3.9162   -5.8349 C   0  0  0  0  0  0  0  0  0  0  0  0
    3.9948   -3.2938   -6.5238 C   0  0  3  0  0  0  0  0  0  0  0  0
    2.7433   -3.7392   -5.8920 N   0  0  0  0  0  0  0  0  0  0  0  0
    4.2467   -1.7827   -6.3467 C   0  0  0  0  0  0  0  0  0  0  0  0
    7.2429    3.2857   -2.6486 C   0  0  0  0  0  0  0  0  0  0  0  0
    7.8840    3.3373   -3.8790 C   0  0  0  0  0  0  0  0  0  0  0  0
    9.2031    3.6980   -3.9718 C   0  0  0  0  0  0  0  0  0  0  0  0
    9.8813    4.2183   -2.9010 C   0  0  0  0  0  0  0  0  0  0  0  0
   11.1971    4.3371   -3.0997 N   0  0  0  0  0  0  0  0  0  0  0  0
   11.8855    5.0426   -2.1985 C   0  0  0  0  0  0  0  0  0  0  0  0
   11.2627    5.6934   -1.1558 C   0  0  0  0  0  0  0  0  0  0  0  0
   12.0338    6.7890   -0.5575 C   0  0  0  0  0  0  0  0  0  0  0  0
   11.9582    8.1837   -0.8249 C   0  0  0  0  0  0  0  0  0  0  0  0
   12.9957    8.8736   -0.3319 N   0  0  0  0  0  0  0  0  0  0  0  0
   13.7583    7.9275    0.2394 N   0  0  0  0  0  0  0  0  0  0  0  0
   14.8773    8.2970    1.0769 C   0  0  0  0  0  0  0  0  0  0  0  0
   13.3010    6.6586   -0.0039 C   0  0  0  0  0  0  0  0  0  0  0  0
    9.9289    5.4498   -0.8631 N   0  0  0  0  0  0  0  0  0  0  0  0
    9.1988    4.6081   -1.7254 C   0  0  0  0  0  0  0  0  0  0  0  0
    7.8553    4.0376   -1.6041 C   0  0  0  0  0  0  0  0  0  0  0  0
    3.9085    3.1717   -2.1327 C   0  0  0  0  0  0  0  0  0  0  0  0
   -0.3631    4.3184   -1.9954 H   0  0  0  0  0  0  0  0  0  0  0  0
    0.3008    3.9669   -0.3960 H   0  0  0  0  0  0  0  0  0  0  0  0
   -0.0090    2.6409   -1.5800 H   0  0  0  0  0  0  0  0  0  0  0  0
    1.5191    2.0588    0.0294 H   0  0  0  0  0  0  0  0  0  0  0  0
    2.3898   -0.4876    2.4058 H   0  0  0  0  0  0  0  0  0  0  0  0
    1.4595   -0.0763    0.9596 H   0  0  0  0  0  0  0  0  0  0  0  0
    1.9739    1.2066    2.1227 H   0  0  0  0  0  0  0  0  0  0  0  0
    5.5754    0.7901   -0.3817 H   0  0  0  0  0  0  0  0  0  0  0  0
    7.2859    0.6685   -1.8524 H   0  0  0  0  0  0  0  0  0  0  0  0
    7.6006    0.9895   -3.5286 H   0  0  0  0  0  0  0  0  0  0  0  0
    5.0647   -0.4120   -2.5976 H   0  0  0  0  0  0  0  0  0  0  0  0
    6.5911   -1.1257   -3.0648 H   0  0  0  0  0  0  0  0  0  0  0  0
    6.3449   -0.2189   -5.3961 H   0  0  0  0  0  0  0  0  0  0  0  0
    4.7698    0.4327   -4.9301 H   0  0  0  0  0  0  0  0  0  0  0  0
    5.7435   -3.2128   -3.8588 H   0  0  0  0  0  0  0  0  0  0  0  0
    6.7728   -2.6000   -5.1714 H   0  0  0  0  0  0  0  0  0  0  0  0
    4.9681   -4.8470   -5.3051 H   0  0  0  0  0  0  0  0  0  0  0  0
    5.9652   -4.1636   -6.5861 H   0  0  0  0  0  0  0  0  0  0  0  0
    3.9534   -3.5757   -7.5809 H   0  0  0  0  0  0  0  0  0  0  0  0
    2.7418   -3.3948   -4.9305 H   0  0  0  0  0  0  0  0  0  0  0  0
    2.7321   -4.7583   -5.8249 H   0  0  0  0  0  0  0  0  0  0  0  0
    3.3213   -1.2038   -6.4295 H   0  0  0  0  0  0  0  0  0  0  0  0
    4.9424   -1.4467   -7.1262 H   0  0  0  0  0  0  0  0  0  0  0  0
    7.4057    2.9082   -4.7637 H   0  0  0  0  0  0  0  0  0  0  0  0
    9.7545    3.5293   -4.8986 H   0  0  0  0  0  0  0  0  0  0  0  0
   12.9498    5.1310   -2.3883 H   0  0  0  0  0  0  0  0  0  0  0  0
   11.2179    8.7230   -1.4027 H   0  0  0  0  0  0  0  0  0  0  0  0
   14.9836    9.3856    1.1029 H   0  0  0  0  0  0  0  0  0  0  0  0
   15.7924    7.8406    0.6915 H   0  0  0  0  0  0  0  0  0  0  0  0
   14.6640    7.9291    2.0843 H   0  0  0  0  0  0  0  0  0  0  0  0
   13.9067    5.7974    0.2425 H   0  0  0  0  0  0  0  0  0  0  0  0
    7.3442    4.1495   -0.6457 H   0  0  0  0  0  0  0  0  0  0  0  0
    4.0094    3.8549   -2.9729 H   0  0  0  0  0  0  0  0  0  0  0  0
  1  2  1  0  0  0  0
  1 37  1  0  0  0  0
  1 38  1  0  0  0  0
  1 39  1  0  0  0  0
  2  3  1  0  0  0  0
  3  4  1  0  0  0  0
  3 36  2  0  0  0  0
  4  5  2  0  0  0  0
  4 40  1  0  0  0  0
  5  6  1  0  0  0  0
  5  8  1  0  0  0  0
  6  7  1  0  0  0  0
  7 41  1  0  0  0  0
  7 42  1  0  0  0  0
  7 43  1  0  0  0  0
  8  9  2  0  0  0  0
  8 44  1  0  0  0  0
  9 10  1  0  0  0  0
  9 36  1  0  0  0  0
 10 11  1  0  0  0  0
 10 20  1  0  0  0  0
 11 12  1  0  0  0  0
 11 45  1  0  0  0  0
 11 46  1  0  0  0  0
 12 13  1  0  0  0  0
 12 47  1  0  0  0  0
 12 48  1  0  0  0  0
 13 14  1  0  0  0  0
 13 49  1  0  0  0  0
 13 50  1  0  0  0  0
 14 15  1  0  0  0  0
 14 19  1  0  0  0  0
 15 16  1  0  0  0  0
 15 51  1  0  0  0  0
 15 52  1  0  0  0  0
 16 17  1  0  0  0  0
 16 53  1  0  0  0  0
 16 54  1  0  0  0  0
 17 18  1  0  0  0  0
 17 19  1  0  0  0  0
 17 55  1  0  0  0  0
 18 56  1  0  0  0  0
 18 57  1  0  0  0  0
 19 58  1  0  0  0  0
 19 59  1  0  0  0  0
 20 21  1  0  0  0  0
 20 35  2  0  0  0  0
 21 22  2  0  0  0  0
 21 60  1  0  0  0  0
 22 23  1  0  0  0  0
 22 61  1  0  0  0  0
 23 24  1  0  0  0  0
 23 34  2  0  0  0  0
 24 25  2  0  0  0  0
 25 26  1  0  0  0  0
 25 62  1  0  0  0  0
 26 27  1  0  0  0  0
 26 33  2  0  0  0  0
 27 28  1  0  0  0  0
 27 32  2  0  0  0  0
 28 29  2  0  0  0  0
 28 63  1  0  0  0  0
 29 30  1  0  0  0  0
 30 31  1  0  0  0  0
 30 32  1  0  0  0  0
 31 64  1  0  0  0  0
 31 65  1  0  0  0  0
 31 66  1  0  0  0  0
 32 67  1  0  0  0  0
 33 34  1  0  0  0  0
 34 35  1  0  0  0  0
 35 68  1  0  0  0  0
 36 69  1  0  0  0  0
M  END
$$$$
