CHEMBL1940175
 OpenBabel04072215363D

 59 64  0  0  1  0  0  0  0  0999 V2000
    0.8535    0.2783   -0.1876 C   0  0  0  0  0  0  0  0  0  0  0  0
    2.3924    0.2029   -0.1194 C   0  0  0  0  0  0  0  0  0  0  0  0
    2.9918    0.1815   -1.5425 C   0  0  0  0  0  0  0  0  0  0  0  0
    2.8199   -1.0871    0.6117 C   0  0  0  0  0  0  0  0  0  0  0  0
    2.3799   -2.3433    0.1561 C   0  0  0  0  0  0  0  0  0  0  0  0
    2.8076   -3.5311    0.7609 C   0  0  0  0  0  0  0  0  0  0  0  0
    3.7042   -3.5201    1.8370 C   0  0  0  0  0  0  0  0  0  0  0  0
    4.2322   -4.8383    2.3971 C   0  0  3  0  0  0  0  0  0  0  0  0
    3.1302   -5.7880    2.8887 C   0  0  0  0  0  0  0  0  0  0  0  0
    2.5442   -5.3407    4.2264 C   0  0  0  0  0  0  0  0  0  0  0  0
    3.5506   -5.1661    5.2933 N   0  0  3  0  0  0  0  0  0  0  0  0
    2.8474   -4.5302    6.4395 C   0  0  0  0  0  0  0  0  0  0  0  0
    3.7440   -4.1835    7.6397 C   0  0  0  0  0  0  0  0  0  0  0  0
    2.8357   -4.8914    8.5357 O   0  0  0  0  0  0  0  0  0  0  0  0
    2.3160   -5.6221    7.3853 C   0  0  0  0  0  0  0  0  0  0  0  0
    4.6719   -4.3184    4.8651 C   0  0  0  0  0  0  0  0  0  0  0  0
    5.2772   -4.7324    3.5182 C   0  0  0  0  0  0  0  0  0  0  0  0
    4.1377   -2.2712    2.2951 C   0  0  0  0  0  0  0  0  0  0  0  0
    3.6931   -1.0712    1.7190 C   0  0  0  0  0  0  0  0  0  0  0  0
    4.1947    0.1940    2.3362 C   0  0  0  0  0  0  0  0  0  0  0  0
    4.9394    0.1750    3.3105 O   0  0  0  0  0  0  0  0  0  0  0  0
    3.7338    1.4172    1.7226 C   0  0  0  0  0  0  0  0  0  0  0  0
    2.9183    1.4169    0.6104 C   0  0  0  0  0  0  0  0  0  0  0  0
    2.6823    2.7256    0.2683 N   0  0  0  0  0  0  0  0  0  0  0  0
    3.3181    3.5670    1.1563 C   0  0  0  0  0  0  0  0  0  0  0  0
    3.3568    4.9670    1.2090 C   0  0  0  0  0  0  0  0  0  0  0  0
    4.0931    5.5583    2.2449 C   0  0  0  0  0  0  0  0  0  0  0  0
    4.1584    6.9872    2.3365 C   0  0  0  0  0  0  0  0  0  0  0  0
    4.2056    8.1448    2.4006 N   0  0  0  0  0  0  0  0  0  0  0  0
    4.7637    4.7781    3.1899 C   0  0  0  0  0  0  0  0  0  0  0  0
    4.7173    3.3824    3.1179 C   0  0  0  0  0  0  0  0  0  0  0  0
    3.9846    2.7666    2.0857 C   0  0  0  0  0  0  0  0  0  0  0  0
    0.4210   -0.5656   -0.7357 H   0  0  0  0  0  0  0  0  0  0  0  0
    0.5146    1.1896   -0.6932 H   0  0  0  0  0  0  0  0  0  0  0  0
    0.4139    0.2758    0.8177 H   0  0  0  0  0  0  0  0  0  0  0  0
    2.6609   -0.6917   -2.1159 H   0  0  0  0  0  0  0  0  0  0  0  0
    4.0889    0.1517   -1.5102 H   0  0  0  0  0  0  0  0  0  0  0  0
    2.7063    1.0718   -2.1143 H   0  0  0  0  0  0  0  0  0  0  0  0
    1.7099   -2.4218   -0.6978 H   0  0  0  0  0  0  0  0  0  0  0  0
    2.4509   -4.4744    0.3510 H   0  0  0  0  0  0  0  0  0  0  0  0
    4.7348   -5.3202    1.5462 H   0  0  0  0  0  0  0  0  0  0  0  0
    3.5547   -6.7943    3.0040 H   0  0  0  0  0  0  0  0  0  0  0  0
    2.3211   -5.8846    2.1560 H   0  0  0  0  0  0  0  0  0  0  0  0
    1.8255   -6.1056    4.5474 H   0  0  0  0  0  0  0  0  0  0  0  0
    1.9729   -4.4172    4.0647 H   0  0  0  0  0  0  0  0  0  0  0  0
    2.1288   -3.7375    6.1973 H   0  0  0  0  0  0  0  0  0  0  0  0
    3.7899   -3.1152    7.8749 H   0  0  0  0  0  0  0  0  0  0  0  0
    4.7459   -4.6179    7.6939 H   0  0  0  0  0  0  0  0  0  0  0  0
    1.2284   -5.7223    7.4190 H   0  0  0  0  0  0  0  0  0  0  0  0
    2.7803   -6.6128    7.3225 H   0  0  0  0  0  0  0  0  0  0  0  0
    5.4812   -4.3935    5.6010 H   0  0  0  0  0  0  0  0  0  0  0  0
    4.3673   -3.2676    4.8506 H   0  0  0  0  0  0  0  0  0  0  0  0
    5.7545   -5.7146    3.6399 H   0  0  0  0  0  0  0  0  0  0  0  0
    6.0863   -4.0455    3.2418 H   0  0  0  0  0  0  0  0  0  0  0  0
    4.8560   -2.1917    3.1055 H   0  0  0  0  0  0  0  0  0  0  0  0
    2.1240    3.0384   -0.5151 H   0  0  0  0  0  0  0  0  0  0  0  0
    2.8336    5.5711    0.4735 H   0  0  0  0  0  0  0  0  0  0  0  0
    5.3313    5.2434    3.9939 H   0  0  0  0  0  0  0  0  0  0  0  0
    5.2406    2.7766    3.8545 H   0  0  0  0  0  0  0  0  0  0  0  0
  1  2  1  0  0  0  0
  1 33  1  0  0  0  0
  1 34  1  0  0  0  0
  1 35  1  0  0  0  0
  2  3  1  0  0  0  0
  2  4  1  0  0  0  0
  2 23  1  0  0  0  0
  3 36  1  0  0  0  0
  3 37  1  0  0  0  0
  3 38  1  0  0  0  0
  4  5  1  0  0  0  0
  4 19  2  0  0  0  0
  5  6  2  0  0  0  0
  5 39  1  0  0  0  0
  6  7  1  0  0  0  0
  6 40  1  0  0  0  0
  7  8  1  0  0  0  0
  7 18  2  0  0  0  0
  8  9  1  0  0  0  0
  8 17  1  0  0  0  0
  8 41  1  0  0  0  0
  9 10  1  0  0  0  0
  9 42  1  0  0  0  0
  9 43  1  0  0  0  0
 10 11  1  0  0  0  0
 10 44  1  0  0  0  0
 10 45  1  0  0  0  0
 11 12  1  0  0  0  0
 11 16  1  0  0  0  0
 12 13  1  0  0  0  0
 12 15  1  0  0  0  0
 12 46  1  0  0  0  0
 13 14  1  0  0  0  0
 13 47  1  0  0  0  0
 13 48  1  0  0  0  0
 14 15  1  0  0  0  0
 15 49  1  0  0  0  0
 15 50  1  0  0  0  0
 16 17  1  0  0  0  0
 16 51  1  0  0  0  0
 16 52  1  0  0  0  0
 17 53  1  0  0  0  0
 17 54  1  0  0  0  0
 18 19  1  0  0  0  0
 18 55  1  0  0  0  0
 19 20  1  0  0  0  0
 20 21  2  0  0  0  0
 20 22  1  0  0  0  0
 22 23  2  0  0  0  0
 22 32  1  0  0  0  0
 23 24  1  0  0  0  0
 24 25  1  0  0  0  0
 24 56  1  0  0  0  0
 25 26  1  0  0  0  0
 25 32  2  0  0  0  0
 26 27  2  0  0  0  0
 26 57  1  0  0  0  0
 27 28  1  0  0  0  0
 27 30  1  0  0  0  0
 28 29  3  0  0  0  0
 30 31  2  0  0  0  0
 30 58  1  0  0  0  0
 31 32  1  0  0  0  0
 31 59  1  0  0  0  0
M  END
$$$$
