CHEMBL262433
 OpenBabel04072215363D

 43 46  0  0  0  0  0  0  0  0999 V2000
    2.8193    0.8166   -2.3249 C   0  0  0  0  0  0  0  0  0  0  0  0
    1.4109    0.5287   -1.8900 C   0  0  0  0  0  0  0  0  0  0  0  0
    0.9073   -0.7720   -1.9815 C   0  0  0  0  0  0  0  0  0  0  0  0
   -0.3839   -1.0472   -1.5481 C   0  0  0  0  0  0  0  0  0  0  0  0
   -1.1857   -0.0278   -1.0387 C   0  0  0  0  0  0  0  0  0  0  0  0
   -2.3612   -0.4082   -0.5267 F   0  0  0  0  0  0  0  0  0  0  0  0
   -0.7393    1.2996   -0.9913 C   0  0  0  0  0  0  0  0  0  0  0  0
   -1.5221    2.4097   -0.5669 N   0  0  0  0  0  0  0  0  0  0  0  0
   -2.9004    2.4477   -0.4698 C   0  0  0  0  0  0  0  0  0  0  0  0
   -3.6496    1.5305   -0.7771 O   0  0  0  0  0  0  0  0  0  0  0  0
   -3.3762    3.6911   -0.0658 N   0  0  0  0  0  0  0  0  0  0  0  0
   -4.7699    3.8684    0.1278 C   0  0  0  0  0  0  0  0  0  0  0  0
   -5.5192    2.9510    0.8680 C   0  0  0  0  0  0  0  0  0  0  0  0
   -6.9131    3.0496    0.9150 C   0  0  0  0  0  0  0  0  0  0  0  0
   -7.5844    4.0668    0.2204 C   0  0  0  0  0  0  0  0  0  0  0  0
   -9.0601    4.0637    0.1667 C   0  0  0  0  0  0  0  0  0  0  0  0
   -9.7139    3.6873    1.2766 N   0  0  0  0  0  0  0  0  0  0  0  0
  -11.3399    3.7080    1.0065 S   0  0  0  0  0  0  0  0  0  0  0  0
  -11.2477    4.2227   -0.6064 C   0  0  0  0  0  0  0  0  0  0  0  0
  -12.3427    4.4211   -1.3583 N   0  0  0  0  0  0  0  0  0  0  0  0
  -12.0330    4.8162   -2.5923 C   0  0  0  0  0  0  0  0  0  0  0  0
  -10.8062    4.9947   -3.1017 N   0  0  0  0  0  0  0  0  0  0  0  0
   -9.7312    4.7651   -2.3195 C   0  0  0  0  0  0  0  0  0  0  0  0
   -8.5068    4.9271   -2.9567 N   0  0  0  0  0  0  0  0  0  0  0  0
   -9.9177    4.3764   -0.9789 C   0  0  0  0  0  0  0  0  0  0  0  0
   -6.8140    5.0490   -0.4159 C   0  0  0  0  0  0  0  0  0  0  0  0
   -5.4150    4.9498   -0.4697 C   0  0  0  0  0  0  0  0  0  0  0  0
    0.5843    1.5601   -1.3915 C   0  0  0  0  0  0  0  0  0  0  0  0
    3.3231   -0.0927   -2.6724 H   0  0  0  0  0  0  0  0  0  0  0  0
    3.3993    1.2159   -1.4873 H   0  0  0  0  0  0  0  0  0  0  0  0
    2.8235    1.5353   -3.1496 H   0  0  0  0  0  0  0  0  0  0  0  0
    1.5185   -1.5831   -2.3709 H   0  0  0  0  0  0  0  0  0  0  0  0
   -0.7791   -2.0576   -1.5821 H   0  0  0  0  0  0  0  0  0  0  0  0
   -1.0380    3.2842   -0.4264 H   0  0  0  0  0  0  0  0  0  0  0  0
   -2.8840    4.4709   -0.4707 H   0  0  0  0  0  0  0  0  0  0  0  0
   -5.0310    2.1292    1.3889 H   0  0  0  0  0  0  0  0  0  0  0  0
   -7.4701    2.3001    1.4755 H   0  0  0  0  0  0  0  0  0  0  0  0
  -12.8645    5.0090   -3.2633 H   0  0  0  0  0  0  0  0  0  0  0  0
   -8.6574    5.0148   -3.9572 H   0  0  0  0  0  0  0  0  0  0  0  0
   -7.8122    4.2351   -2.6985 H   0  0  0  0  0  0  0  0  0  0  0  0
   -7.2913    5.8895   -0.9144 H   0  0  0  0  0  0  0  0  0  0  0  0
   -4.8600    5.6821   -1.0478 H   0  0  0  0  0  0  0  0  0  0  0  0
    0.9856    2.5694   -1.3450 H   0  0  0  0  0  0  0  0  0  0  0  0
  1  2  1  0  0  0  0
  1 29  1  0  0  0  0
  1 30  1  0  0  0  0
  1 31  1  0  0  0  0
  2  3  1  0  0  0  0
  2 28  2  0  0  0  0
  3  4  2  0  0  0  0
  3 32  1  0  0  0  0
  4  5  1  0  0  0  0
  4 33  1  0  0  0  0
  5  6  1  0  0  0  0
  5  7  2  0  0  0  0
  7  8  1  0  0  0  0
  7 28  1  0  0  0  0
  8  9  1  0  0  0  0
  8 34  1  0  0  0  0
  9 10  2  0  0  0  0
  9 11  1  0  0  0  0
 11 12  1  0  0  0  0
 11 35  1  0  0  0  0
 12 13  1  0  0  0  0
 12 27  2  0  0  0  0
 13 14  2  0  0  0  0
 13 36  1  0  0  0  0
 14 15  1  0  0  0  0
 14 37  1  0  0  0  0
 15 16  1  0  0  0  0
 15 26  2  0  0  0  0
 16 17  2  0  0  0  0
 16 25  1  0  0  0  0
 17 18  1  0  0  0  0
 18 19  1  0  0  0  0
 19 20  1  0  0  0  0
 19 25  2  0  0  0  0
 20 21  2  0  0  0  0
 21 22  1  0  0  0  0
 21 38  1  0  0  0  0
 22 23  2  0  0  0  0
 23 24  1  0  0  0  0
 23 25  1  0  0  0  0
 24 39  1  0  0  0  0
 24 40  1  0  0  0  0
 26 27  1  0  0  0  0
 26 41  1  0  0  0  0
 27 42  1  0  0  0  0
 28 43  1  0  0  0  0
M  END
$$$$
