CHEMBL1978099
 OpenBabel04072215363D

 53 55  0  0  0  0  0  0  0  0999 V2000
    8.9962   -1.9358    8.5516 C   0  0  0  0  0  0  0  0  0  0  0  0
    8.8548   -1.1280    7.3767 N   0  0  0  0  0  0  0  0  0  0  0  0
    7.9380   -0.0956    7.3296 C   0  0  0  0  0  0  0  0  0  0  0  0
    7.2213    0.2062    8.2850 O   0  0  0  0  0  0  0  0  0  0  0  0
    7.9090    0.6511    6.0126 C   0  0  0  0  0  0  0  0  0  0  0  0
    8.8782    0.0910    5.1040 O   0  0  0  0  0  0  0  0  0  0  0  0
    9.3287    0.9437    4.1421 C   0  0  0  0  0  0  0  0  0  0  0  0
   10.5992    0.7773    3.6070 C   0  0  0  0  0  0  0  0  0  0  0  0
   11.0578    1.6713    2.6399 C   0  0  0  0  0  0  0  0  0  0  0  0
   10.2581    2.7155    2.1472 C   0  0  0  0  0  0  0  0  0  0  0  0
   10.6890    3.6283    1.1532 N   0  0  0  0  0  0  0  0  0  0  0  0
   11.5960    3.3081    0.1093 C   0  0  0  0  0  0  0  0  0  0  0  0
   12.5612    2.4020    0.3303 N   0  0  0  0  0  0  0  0  0  0  0  0
   13.3014    1.9461   -0.6828 C   0  0  0  0  0  0  0  0  0  0  0  0
   14.1855    0.8959   -0.4518 N   0  0  0  0  0  0  0  0  0  0  0  0
   14.8385    0.5546    0.7407 C   0  0  0  0  0  0  0  0  0  0  0  0
   15.1746   -0.7733    1.0000 C   0  0  0  0  0  0  0  0  0  0  0  0
   15.6926   -1.1538    2.2453 C   0  0  0  0  0  0  0  0  0  0  0  0
   15.9061   -0.2102    3.2546 C   0  0  0  0  0  0  0  0  0  0  0  0
   16.3638   -0.7138    4.6059 C   0  0  0  0  0  0  0  0  0  0  0  0
   15.6376    1.1373    2.9775 C   0  0  0  0  0  0  0  0  0  0  0  0
   15.9844    2.4613    4.1210 S   0  0  0  0  0  0  0  0  0  0  0  0
   14.5527    2.5396    4.9587 N   0  0  0  0  0  0  0  0  0  0  0  0
   17.0044    2.0319    5.0466 O   0  0  0  0  0  0  0  0  0  0  0  0
   16.1062    3.7044    3.3833 O   0  0  0  0  0  0  0  0  0  0  0  0
   15.0759    1.5040    1.7410 C   0  0  0  0  0  0  0  0  0  0  0  0
   13.1748    2.3953   -1.9397 N   0  0  0  0  0  0  0  0  0  0  0  0
   12.2719    3.3914   -2.1219 C   0  0  0  0  0  0  0  0  0  0  0  0
   11.4636    3.8885   -1.1348 C   0  0  0  0  0  0  0  0  0  0  0  0
   10.5299    4.8158   -1.4014 F   0  0  0  0  0  0  0  0  0  0  0  0
    8.9827    2.8699    2.6906 C   0  0  0  0  0  0  0  0  0  0  0  0
    8.5253    1.9802    3.6647 C   0  0  0  0  0  0  0  0  0  0  0  0
    9.7753   -2.6775    8.3737 H   0  0  0  0  0  0  0  0  0  0  0  0
    8.0418   -2.4243    8.7564 H   0  0  0  0  0  0  0  0  0  0  0  0
    9.2643   -1.2914    9.3905 H   0  0  0  0  0  0  0  0  0  0  0  0
    9.4080   -1.3091    6.5412 H   0  0  0  0  0  0  0  0  0  0  0  0
    8.1247    1.7066    6.2402 H   0  0  0  0  0  0  0  0  0  0  0  0
    6.8899    0.5672    5.5992 H   0  0  0  0  0  0  0  0  0  0  0  0
   11.2568   -0.0379    3.9079 H   0  0  0  0  0  0  0  0  0  0  0  0
   12.0598    1.5061    2.2539 H   0  0  0  0  0  0  0  0  0  0  0  0
   11.0076    4.4950    1.5863 H   0  0  0  0  0  0  0  0  0  0  0  0
   14.3832    0.3686   -1.2867 H   0  0  0  0  0  0  0  0  0  0  0  0
   14.9957   -1.5442    0.2527 H   0  0  0  0  0  0  0  0  0  0  0  0
   15.9046   -2.2079    2.4176 H   0  0  0  0  0  0  0  0  0  0  0  0
   16.3932   -1.8106    4.6308 H   0  0  0  0  0  0  0  0  0  0  0  0
   15.6663   -0.4031    5.3811 H   0  0  0  0  0  0  0  0  0  0  0  0
   17.3782   -0.3686    4.8389 H   0  0  0  0  0  0  0  0  0  0  0  0
   14.4601    1.8720    5.7161 H   0  0  0  0  0  0  0  0  0  0  0  0
   13.7396    2.8065    4.4113 H   0  0  0  0  0  0  0  0  0  0  0  0
   14.8186    2.5476    1.5597 H   0  0  0  0  0  0  0  0  0  0  0  0
   12.1856    3.7571   -3.1422 H   0  0  0  0  0  0  0  0  0  0  0  0
    8.3070    3.6385    2.3266 H   0  0  0  0  0  0  0  0  0  0  0  0
    7.5126    2.0992    4.0258 H   0  0  0  0  0  0  0  0  0  0  0  0
  1  2  1  0  0  0  0
  1 33  1  0  0  0  0
  1 34  1  0  0  0  0
  1 35  1  0  0  0  0
  2  3  1  0  0  0  0
  2 36  1  0  0  0  0
  3  4  2  0  0  0  0
  3  5  1  0  0  0  0
  5  6  1  0  0  0  0
  5 37  1  0  0  0  0
  5 38  1  0  0  0  0
  6  7  1  0  0  0  0
  7  8  1  0  0  0  0
  7 32  2  0  0  0  0
  8  9  2  0  0  0  0
  8 39  1  0  0  0  0
  9 10  1  0  0  0  0
  9 40  1  0  0  0  0
 10 11  1  0  0  0  0
 10 31  2  0  0  0  0
 11 12  1  0  0  0  0
 11 41  1  0  0  0  0
 12 13  1  0  0  0  0
 12 29  2  0  0  0  0
 13 14  2  0  0  0  0
 14 15  1  0  0  0  0
 14 27  1  0  0  0  0
 15 16  1  0  0  0  0
 15 42  1  0  0  0  0
 16 17  1  0  0  0  0
 16 26  2  0  0  0  0
 17 18  2  0  0  0  0
 17 43  1  0  0  0  0
 18 19  1  0  0  0  0
 18 44  1  0  0  0  0
 19 20  1  0  0  0  0
 19 21  2  0  0  0  0
 20 45  1  0  0  0  0
 20 46  1  0  0  0  0
 20 47  1  0  0  0  0
 21 22  1  0  0  0  0
 21 26  1  0  0  0  0
 22 23  1  0  0  0  0
 22 24  2  0  0  0  0
 22 25  2  0  0  0  0
 23 48  1  0  0  0  0
 23 49  1  0  0  0  0
 26 50  1  0  0  0  0
 27 28  2  0  0  0  0
 28 29  1  0  0  0  0
 28 51  1  0  0  0  0
 29 30  1  0  0  0  0
 31 32  1  0  0  0  0
 31 52  1  0  0  0  0
 32 53  1  0  0  0  0
M  END
$$$$
