CHEMBL1969151
 OpenBabel04072215363D

 49 52  0  0  1  0  0  0  0  0999 V2000
    1.1605    0.3493   -0.1297 C   0  0  0  0  0  0  0  0  0  0  0  0
    2.5519   -0.0007    0.1689 N   0  0  0  0  0  0  0  0  0  0  0  0
    2.7713    0.0290    1.6149 C   0  0  0  0  0  0  0  0  0  0  0  0
    2.9670   -1.2557   -0.4982 C   0  0  3  0  0  0  0  0  0  0  0  0
    2.1506   -2.4940   -0.0883 C   0  0  0  0  0  0  0  0  0  0  0  0
    2.6023   -3.7416   -0.8343 C   0  0  0  0  0  0  0  0  0  0  0  0
    4.0982   -4.0325   -0.6213 C   0  0  3  0  0  0  0  0  0  0  0  0
    4.4981   -5.1897   -1.4280 N   0  0  0  0  0  0  0  0  0  0  0  0
    3.9251   -6.4064   -1.0584 C   0  0  0  0  0  0  0  0  0  0  0  0
    3.4835   -6.5779    0.1879 N   0  0  0  0  0  0  0  0  0  0  0  0
    2.8673   -7.7369    0.4438 C   0  0  0  0  0  0  0  0  0  0  0  0
    2.2906   -7.8864    2.0542 Cl  0  0  0  0  0  0  0  0  0  0  0  0
    2.6691   -8.7372   -0.4633 C   0  0  0  0  0  0  0  0  0  0  0  0
    3.1871   -8.4883   -1.7100 C   0  0  0  0  0  0  0  0  0  0  0  0
    3.0426   -9.4577   -2.7926 C   0  0  0  0  0  0  0  0  0  0  0  0
    2.9482  -10.8276   -2.5856 C   0  0  0  0  0  0  0  0  0  0  0  0
    2.8055  -11.4385   -3.8045 N   0  0  0  0  0  0  0  0  0  0  0  0
    2.8023  -10.5032   -4.7977 C   0  0  0  0  0  0  0  0  0  0  0  0
    2.6658  -10.7949   -6.1029 N   0  0  0  0  0  0  0  0  0  0  0  0
    2.6992   -9.6955   -6.8926 C   0  0  0  0  0  0  0  0  0  0  0  0
    2.8543   -8.3898   -6.4494 C   0  0  0  0  0  0  0  0  0  0  0  0
    2.9886   -8.1472   -5.0825 C   0  0  0  0  0  0  0  0  0  0  0  0
    2.9618   -9.2514   -4.2099 C   0  0  0  0  0  0  0  0  0  0  0  0
    3.8295   -7.3404   -2.0116 N   0  0  0  0  0  0  0  0  0  0  0  0
    4.9196   -2.8094   -1.0626 C   0  0  0  0  0  0  0  0  0  0  0  0
    4.4792   -1.5307   -0.3408 C   0  0  0  0  0  0  0  0  0  0  0  0
    0.9390    1.3644    0.2195 H   0  0  0  0  0  0  0  0  0  0  0  0
    0.4435   -0.3275    0.3487 H   0  0  0  0  0  0  0  0  0  0  0  0
    0.9764    0.3451   -1.2096 H   0  0  0  0  0  0  0  0  0  0  0  0
    2.4102    0.9739    2.0394 H   0  0  0  0  0  0  0  0  0  0  0  0
    3.8375   -0.0118    1.8559 H   0  0  0  0  0  0  0  0  0  0  0  0
    2.2591   -0.7829    2.1399 H   0  0  0  0  0  0  0  0  0  0  0  0
    2.8055   -1.1021   -1.5752 H   0  0  0  0  0  0  0  0  0  0  0  0
    1.0869   -2.3461   -0.3043 H   0  0  0  0  0  0  0  0  0  0  0  0
    2.2385   -2.6795    0.9881 H   0  0  0  0  0  0  0  0  0  0  0  0
    2.3942   -3.6266   -1.9061 H   0  0  0  0  0  0  0  0  0  0  0  0
    1.9849   -4.5794   -0.4932 H   0  0  0  0  0  0  0  0  0  0  0  0
    4.3045   -4.2094    0.4427 H   0  0  0  0  0  0  0  0  0  0  0  0
    5.5005   -5.3522   -1.4075 H   0  0  0  0  0  0  0  0  0  0  0  0
    2.1334   -9.6395   -0.2095 H   0  0  0  0  0  0  0  0  0  0  0  0
    2.9777  -11.4260   -1.6853 H   0  0  0  0  0  0  0  0  0  0  0  0
    2.7129  -12.4279   -3.9752 H   0  0  0  0  0  0  0  0  0  0  0  0
    2.5919   -9.9033   -7.9551 H   0  0  0  0  0  0  0  0  0  0  0  0
    2.8719   -7.5679   -7.1605 H   0  0  0  0  0  0  0  0  0  0  0  0
    3.1128   -7.1387   -4.7015 H   0  0  0  0  0  0  0  0  0  0  0  0
    4.8292   -2.6643   -2.1470 H   0  0  0  0  0  0  0  0  0  0  0  0
    5.9846   -2.9857   -0.8638 H   0  0  0  0  0  0  0  0  0  0  0  0
    5.0533   -0.6824   -0.7345 H   0  0  0  0  0  0  0  0  0  0  0  0
    4.7469   -1.6352    0.7168 H   0  0  0  0  0  0  0  0  0  0  0  0
  1  2  1  0  0  0  0
  1 27  1  0  0  0  0
  1 28  1  0  0  0  0
  1 29  1  0  0  0  0
  2  3  1  0  0  0  0
  2  4  1  0  0  0  0
  3 30  1  0  0  0  0
  3 31  1  0  0  0  0
  3 32  1  0  0  0  0
  4  5  1  0  0  0  0
  4 26  1  0  0  0  0
  4 33  1  0  0  0  0
  5  6  1  0  0  0  0
  5 34  1  0  0  0  0
  5 35  1  0  0  0  0
  6  7  1  0  0  0  0
  6 36  1  0  0  0  0
  6 37  1  0  0  0  0
  7  8  1  0  0  0  0
  7 25  1  0  0  0  0
  7 38  1  0  0  0  0
  8  9  1  0  0  0  0
  8 39  1  0  0  0  0
  9 10  1  0  0  0  0
  9 24  2  0  0  0  0
 10 11  2  0  0  0  0
 11 12  1  0  0  0  0
 11 13  1  0  0  0  0
 13 14  2  0  0  0  0
 13 40  1  0  0  0  0
 14 15  1  0  0  0  0
 14 24  1  0  0  0  0
 15 16  2  0  0  0  0
 15 23  1  0  0  0  0
 16 17  1  0  0  0  0
 16 41  1  0  0  0  0
 17 18  1  0  0  0  0
 17 42  1  0  0  0  0
 18 19  1  0  0  0  0
 18 23  2  0  0  0  0
 19 20  2  0  0  0  0
 20 21  1  0  0  0  0
 20 43  1  0  0  0  0
 21 22  2  0  0  0  0
 21 44  1  0  0  0  0
 22 23  1  0  0  0  0
 22 45  1  0  0  0  0
 25 26  1  0  0  0  0
 25 46  1  0  0  0  0
 25 47  1  0  0  0  0
 26 48  1  0  0  0  0
 26 49  1  0  0  0  0
M  END
$$$$
