CHEMBL2448066
 OpenBabel04072215363D

 57 59  0  0  0  0  0  0  0  0999 V2000
    3.2378    0.3094   -1.5091 C   0  0  0  0  0  0  0  0  0  0  0  0
    2.7838   -0.6807   -0.6596 O   0  0  0  0  0  0  0  0  0  0  0  0
    3.3727   -1.0497    0.5102 C   0  0  0  0  0  0  0  0  0  0  0  0
    4.3996   -0.2769    1.1121 C   0  0  0  0  0  0  0  0  0  0  0  0
    5.0854   -0.7593    2.2448 C   0  0  0  0  0  0  0  0  0  0  0  0
    6.1786   -0.0957    2.8571 C   0  0  0  0  0  0  0  0  0  0  0  0
    6.6314    1.2076    2.4708 N   0  0  0  0  0  0  0  0  0  0  0  0
    7.9318    1.6563    2.8514 C   0  0  0  0  0  0  0  0  0  0  0  0
    9.0161    0.7591    2.8289 C   0  0  0  0  0  0  0  0  0  0  0  0
   10.2932    1.1566    3.2360 C   0  0  0  0  0  0  0  0  0  0  0  0
   11.3237    0.2854    3.1953 O   0  0  0  0  0  0  0  0  0  0  0  0
   10.4954    2.4665    3.6857 C   0  0  0  0  0  0  0  0  0  0  0  0
   12.0825    2.9805    4.2386 Cl  0  0  0  0  0  0  0  0  0  0  0  0
    9.4264    3.3729    3.7020 C   0  0  0  0  0  0  0  0  0  0  0  0
    8.1506    2.9781    3.2738 C   0  0  0  0  0  0  0  0  0  0  0  0
    7.1279    3.8660    3.3150 F   0  0  0  0  0  0  0  0  0  0  0  0
    6.8144   -0.7047    3.8969 N   0  0  0  0  0  0  0  0  0  0  0  0
    6.4344   -1.9094    4.3780 C   0  0  0  0  0  0  0  0  0  0  0  0
    5.3817   -2.5458    3.8313 N   0  0  0  0  0  0  0  0  0  0  0  0
    4.7080   -2.0113    2.7829 C   0  0  0  0  0  0  0  0  0  0  0  0
    3.6682   -2.7385    2.2280 C   0  0  0  0  0  0  0  0  0  0  0  0
    2.9988   -2.2839    1.0839 C   0  0  0  0  0  0  0  0  0  0  0  0
    2.0435   -3.0544    0.4836 O   0  0  0  0  0  0  0  0  0  0  0  0
    1.8334   -4.3948    0.7742 C   0  0  0  0  0  0  0  0  0  0  0  0
    0.9493   -5.1545   -0.2485 C   0  0  0  0  0  0  0  0  0  0  0  0
    1.4496   -5.0342   -1.6981 C   0  0  0  0  0  0  0  0  0  0  0  0
    1.1971   -3.6278   -2.2673 C   0  0  0  0  0  0  0  0  0  0  0  0
   -0.2275   -3.2324   -2.1482 N   0  0  0  0  0  0  0  0  0  0  0  0
   -0.3758   -1.8274   -2.5624 C   0  0  0  0  0  0  0  0  0  0  0  0
   -0.7735   -3.3830   -0.7776 C   0  0  0  0  0  0  0  0  0  0  0  0
   -0.5401   -4.7894   -0.2290 C   0  0  0  0  0  0  0  0  0  0  0  0
    1.1474    0.2569    3.3051 Cl  0  0  0  0  0  0  0  0  0  0  0  0
    2.6678    0.2606   -2.4598 H   0  0  0  0  0  0  0  0  0  0  0  0
    4.3098    0.1346   -1.7518 H   0  0  0  0  0  0  0  0  0  0  0  0
    3.1094    1.3141   -1.0565 H   0  0  0  0  0  0  0  0  0  0  0  0
    4.6960    0.6637    0.6660 H   0  0  0  0  0  0  0  0  0  0  0  0
    5.9488    1.8793    2.0919 H   0  0  0  0  0  0  0  0  0  0  0  0
    8.8755   -0.2560    2.4789 H   0  0  0  0  0  0  0  0  0  0  0  0
   11.2145   -0.6210    2.8739 H   0  0  0  0  0  0  0  0  0  0  0  0
    9.5855    4.3834    4.0542 H   0  0  0  0  0  0  0  0  0  0  0  0
    6.9805   -2.3603    5.1948 H   0  0  0  0  0  0  0  0  0  0  0  0
    3.4213   -3.6892    2.6777 H   0  0  0  0  0  0  0  0  0  0  0  0
    1.4163   -4.5071    1.7992 H   0  0  0  0  0  0  0  0  0  0  0  0
    2.8232   -4.9019    0.7403 H   0  0  0  0  0  0  0  0  0  0  0  0
    1.0192   -6.2237    0.0552 H   0  0  0  0  0  0  0  0  0  0  0  0
    0.8834   -5.7601   -2.3224 H   0  0  0  0  0  0  0  0  0  0  0  0
    2.5271   -5.2991   -1.7660 H   0  0  0  0  0  0  0  0  0  0  0  0
    1.4905   -3.6371   -3.3393 H   0  0  0  0  0  0  0  0  0  0  0  0
    1.8552   -2.8846   -1.7844 H   0  0  0  0  0  0  0  0  0  0  0  0
    0.0177   -1.6783   -3.5897 H   0  0  0  0  0  0  0  0  0  0  0  0
    0.1780   -1.1500   -1.8709 H   0  0  0  0  0  0  0  0  0  0  0  0
   -1.4471   -1.5344   -2.5576 H   0  0  0  0  0  0  0  0  0  0  0  0
   -1.8739   -3.2136   -0.8031 H   0  0  0  0  0  0  0  0  0  0  0  0
   -0.3330   -2.6383   -0.0823 H   0  0  0  0  0  0  0  0  0  0  0  0
   -1.0847   -5.5112   -0.8809 H   0  0  0  0  0  0  0  0  0  0  0  0
   -0.9565   -4.8885    0.7967 H   0  0  0  0  0  0  0  0  0  0  0  0
    1.1180   -0.1018    1.9786 H   0  0  0  0  0  0  0  0  0  0  0  0
  1  2  1  0  0  0  0
  1 33  1  0  0  0  0
  1 34  1  0  0  0  0
  1 35  1  0  0  0  0
  2  3  1  0  0  0  0
  3  4  1  0  0  0  0
  3 22  2  0  0  0  0
  4  5  2  0  0  0  0
  4 36  1  0  0  0  0
  5  6  1  0  0  0  0
  5 20  1  0  0  0  0
  6  7  1  0  0  0  0
  6 17  2  0  0  0  0
  7  8  1  0  0  0  0
  7 37  1  0  0  0  0
  8  9  1  0  0  0  0
  8 15  2  0  0  0  0
  9 10  2  0  0  0  0
  9 38  1  0  0  0  0
 10 11  1  0  0  0  0
 10 12  1  0  0  0  0
 11 39  1  0  0  0  0
 12 13  1  0  0  0  0
 12 14  2  0  0  0  0
 14 15  1  0  0  0  0
 14 40  1  0  0  0  0
 15 16  1  0  0  0  0
 17 18  1  0  0  0  0
 18 19  2  0  0  0  0
 18 41  1  0  0  0  0
 19 20  1  0  0  0  0
 20 21  2  0  0  0  0
 21 22  1  0  0  0  0
 21 42  1  0  0  0  0
 22 23  1  0  0  0  0
 23 24  1  0  0  0  0
 24 25  1  0  0  0  0
 24 43  1  0  0  0  0
 24 44  1  0  0  0  0
 25 26  1  0  0  0  0
 25 31  1  0  0  0  0
 25 45  1  0  0  0  0
 26 27  1  0  0  0  0
 26 46  1  0  0  0  0
 26 47  1  0  0  0  0
 27 28  1  0  0  0  0
 27 48  1  0  0  0  0
 27 49  1  0  0  0  0
 28 29  1  0  0  0  0
 28 30  1  0  0  0  0
 29 50  1  0  0  0  0
 29 51  1  0  0  0  0
 29 52  1  0  0  0  0
 30 31  1  0  0  0  0
 30 53  1  0  0  0  0
 30 54  1  0  0  0  0
 31 55  1  0  0  0  0
 31 56  1  0  0  0  0
 32 57  1  0  0  0  0
M  END
$$$$
