CHEMBL3633304
 OpenBabel04072215373D

 46 49  0  0  0  0  0  0  0  0999 V2000
   -0.5444    2.3196    3.3624 N   0  0  0  0  0  0  0  0  0  0  0  0
   -0.8286    1.1366    2.7918 C   0  0  0  0  0  0  0  0  0  0  0  0
   -1.0079    0.0586    3.5502 N   0  0  0  0  0  0  0  0  0  0  0  0
   -1.2272   -0.9178    2.6670 N   0  0  0  0  0  0  0  0  0  0  0  0
   -1.2159   -0.5114    1.3612 C   0  0  0  0  0  0  0  0  0  0  0  0
   -1.4000   -1.2558    0.1925 C   0  0  0  0  0  0  0  0  0  0  0  0
   -1.3461   -0.5684   -1.0123 C   0  0  0  0  0  0  0  0  0  0  0  0
   -1.1027    0.8028   -1.0313 C   0  0  0  0  0  0  0  0  0  0  0  0
   -0.8803    1.5648    0.1489 C   0  0  0  0  0  0  0  0  0  0  0  0
   -0.5218    2.9962    0.0371 C   0  0  0  0  0  0  0  0  0  0  0  0
    0.3894    3.4046   -0.9586 C   0  0  0  0  0  0  0  0  0  0  0  0
    0.7560    4.7384   -1.1149 C   0  0  0  0  0  0  0  0  0  0  0  0
    0.2282    5.7012   -0.2644 C   0  0  0  0  0  0  0  0  0  0  0  0
   -0.7049    5.3488    0.7141 C   0  0  0  0  0  0  0  0  0  0  0  0
   -1.2699    6.3116    1.5856 N   0  0  0  0  0  0  0  0  0  0  0  0
   -1.4192    7.6462    1.2548 C   0  0  0  0  0  0  0  0  0  0  0  0
   -1.2160    8.1148    0.1363 O   0  0  0  0  0  0  0  0  0  0  0  0
   -1.8089    8.4178    2.3395 N   0  0  0  0  0  0  0  0  0  0  0  0
   -2.0899    9.7938    2.1847 C   0  0  0  0  0  0  0  0  0  0  0  0
   -1.6167   10.6954    3.1319 C   0  0  0  0  0  0  0  0  0  0  0  0
   -1.8250   12.0642    2.9478 C   0  0  0  0  0  0  0  0  0  0  0  0
   -2.5476   12.5446    1.8442 C   0  0  0  0  0  0  0  0  0  0  0  0
   -2.7446   14.2532    1.7426 Cl  0  0  0  0  0  0  0  0  0  0  0  0
   -3.0677   11.6530    0.9048 C   0  0  0  0  0  0  0  0  0  0  0  0
   -3.8672   12.0472   -0.3104 C   0  0  0  0  0  0  0  0  0  0  0  0
   -4.1023   13.3740   -0.4812 F   0  0  0  0  0  0  0  0  0  0  0  0
   -3.2824   11.6300   -1.4707 F   0  0  0  0  0  0  0  0  0  0  0  0
   -5.1054   11.4677   -0.3051 F   0  0  0  0  0  0  0  0  0  0  0  0
   -2.8259   10.2724    1.0939 C   0  0  0  0  0  0  0  0  0  0  0  0
   -1.0760    4.0015    0.8533 C   0  0  0  0  0  0  0  0  0  0  0  0
   -0.9598    0.8644    1.3896 C   0  0  0  0  0  0  0  0  0  0  0  0
   -0.3203    2.2540    4.3503 H   0  0  0  0  0  0  0  0  0  0  0  0
    0.0771    2.9488    2.8683 H   0  0  0  0  0  0  0  0  0  0  0  0
   -1.3746   -1.8569    3.0166 H   0  0  0  0  0  0  0  0  0  0  0  0
   -1.5815   -2.3257    0.2170 H   0  0  0  0  0  0  0  0  0  0  0  0
   -1.4882   -1.1038   -1.9485 H   0  0  0  0  0  0  0  0  0  0  0  0
   -1.0777    1.2960   -2.0031 H   0  0  0  0  0  0  0  0  0  0  0  0
    0.8314    2.6758   -1.6361 H   0  0  0  0  0  0  0  0  0  0  0  0
    1.4522    5.0285   -1.8972 H   0  0  0  0  0  0  0  0  0  0  0  0
    0.5654    6.7271   -0.3861 H   0  0  0  0  0  0  0  0  0  0  0  0
   -1.8765    5.9708    2.3183 H   0  0  0  0  0  0  0  0  0  0  0  0
   -1.4043    8.1238    3.2187 H   0  0  0  0  0  0  0  0  0  0  0  0
   -1.0265   10.3603    3.9790 H   0  0  0  0  0  0  0  0  0  0  0  0
   -1.4002   12.7642    3.6643 H   0  0  0  0  0  0  0  0  0  0  0  0
   -3.2235    9.5663    0.3630 H   0  0  0  0  0  0  0  0  0  0  0  0
   -1.8290    3.7292    1.5903 H   0  0  0  0  0  0  0  0  0  0  0  0
  1  2  1  0  0  0  0
  1 32  1  0  0  0  0
  1 33  1  0  0  0  0
  2  3  2  0  0  0  0
  2 31  1  0  0  0  0
  3  4  1  0  0  0  0
  4  5  1  0  0  0  0
  4 34  1  0  0  0  0
  5  6  1  0  0  0  0
  5 31  2  0  0  0  0
  6  7  2  0  0  0  0
  6 35  1  0  0  0  0
  7  8  1  0  0  0  0
  7 36  1  0  0  0  0
  8  9  2  0  0  0  0
  8 37  1  0  0  0  0
  9 10  1  0  0  0  0
  9 31  1  0  0  0  0
 10 11  1  0  0  0  0
 10 30  2  0  0  0  0
 11 12  2  0  0  0  0
 11 38  1  0  0  0  0
 12 13  1  0  0  0  0
 12 39  1  0  0  0  0
 13 14  2  0  0  0  0
 13 40  1  0  0  0  0
 14 15  1  0  0  0  0
 14 30  1  0  0  0  0
 15 16  1  0  0  0  0
 15 41  1  0  0  0  0
 16 17  2  0  0  0  0
 16 18  1  0  0  0  0
 18 19  1  0  0  0  0
 18 42  1  0  0  0  0
 19 20  1  0  0  0  0
 19 29  2  0  0  0  0
 20 21  2  0  0  0  0
 20 43  1  0  0  0  0
 21 22  1  0  0  0  0
 21 44  1  0  0  0  0
 22 23  1  0  0  0  0
 22 24  2  0  0  0  0
 24 25  1  0  0  0  0
 24 29  1  0  0  0  0
 25 26  1  0  0  0  0
 25 27  1  0  0  0  0
 25 28  1  0  0  0  0
 29 45  1  0  0  0  0
 30 46  1  0  0  0  0
M  END
$$$$
