CHEMBL3946242
 OpenBabel04072215373D

 57 61  0  0  1  0  0  0  0  0999 V2000
   -3.9060    0.8819    3.6466 C   0  0  0  0  0  0  0  0  0  0  0  0
   -2.8690    0.7603    2.6675 O   0  0  0  0  0  0  0  0  0  0  0  0
   -3.1953   -0.0338    1.5954 C   0  0  0  0  0  0  0  0  0  0  0  0
   -4.1389   -1.0558    1.6929 C   0  0  0  0  0  0  0  0  0  0  0  0
   -4.5771   -1.7523    0.5528 C   0  0  0  0  0  0  0  0  0  0  0  0
   -5.6102   -2.6965    0.5567 C   0  0  0  0  0  0  0  0  0  0  0  0
   -6.3399   -2.9012    1.7505 N   0  0  0  0  0  0  0  0  0  0  0  0
   -6.8934   -4.1019    2.2306 C   0  0  0  0  0  0  0  0  0  0  0  0
   -6.3585   -5.3460    1.8763 C   0  0  0  0  0  0  0  0  0  0  0  0
   -6.7971   -6.5096    2.5074 C   0  0  0  0  0  0  0  0  0  0  0  0
   -7.7713   -6.4373    3.5023 C   0  0  0  0  0  0  0  0  0  0  0  0
   -8.1259   -7.5674    4.1331 F   0  0  0  0  0  0  0  0  0  0  0  0
   -8.3383   -5.2181    3.8540 C   0  0  0  0  0  0  0  0  0  0  0  0
   -9.5445   -5.1367    5.0803 Cl  0  0  0  0  0  0  0  0  0  0  0  0
   -7.8923   -4.0591    3.2226 C   0  0  0  0  0  0  0  0  0  0  0  0
   -8.3993   -2.8623    3.5679 F   0  0  0  0  0  0  0  0  0  0  0  0
   -5.9696   -3.3690   -0.5494 N   0  0  0  0  0  0  0  0  0  0  0  0
   -5.3074   -3.0637   -1.6698 C   0  0  0  0  0  0  0  0  0  0  0  0
   -4.3148   -2.1734   -1.7888 N   0  0  0  0  0  0  0  0  0  0  0  0
   -3.9581   -1.5218   -0.6804 C   0  0  0  0  0  0  0  0  0  0  0  0
   -2.9439   -0.5780   -0.7459 C   0  0  0  0  0  0  0  0  0  0  0  0
   -2.5763    0.2018    0.3592 C   0  0  0  0  0  0  0  0  0  0  0  0
   -1.6288    1.1939    0.2864 O   0  0  0  0  0  0  0  0  0  0  0  0
   -1.3779    1.7298   -1.0225 C   0  0  0  0  0  0  0  0  0  0  0  0
   -0.6793    3.0902   -0.9222 C   0  0  2  0  0  0  0  0  0  0  0  0
   -1.4963    4.0353   -0.0215 C   0  0  0  0  0  0  0  0  0  0  0  0
   -0.8217    5.3400    0.0751 N   0  0  3  0  0  0  0  0  0  0  0  0
   -1.5591    6.2529    0.9601 C   0  0  0  0  0  0  0  0  0  0  0  0
   -1.0384    7.7005    0.9006 C   0  0  0  0  0  0  0  0  0  0  0  0
   -0.8709    8.1815   -0.4410 O   0  0  0  0  0  0  0  0  0  0  0  0
   -0.0328    7.2899   -1.1948 C   0  0  0  0  0  0  0  0  0  0  0  0
   -0.7044    5.9140   -1.2899 C   0  0  1  0  0  0  0  0  0  0  0  0
    0.0754    4.9481   -2.2028 C   0  0  0  0  0  0  0  0  0  0  0  0
   -0.5453    3.6476   -2.2504 O   0  0  0  0  0  0  0  0  0  0  0  0
   -3.6786    1.7285    4.2988 H   0  0  0  0  0  0  0  0  0  0  0  0
   -3.9587   -0.0143    4.2762 H   0  0  0  0  0  0  0  0  0  0  0  0
   -4.8801    1.0789    3.1796 H   0  0  0  0  0  0  0  0  0  0  0  0
   -4.5536   -1.3331    2.6577 H   0  0  0  0  0  0  0  0  0  0  0  0
   -6.8701   -2.0736    2.0078 H   0  0  0  0  0  0  0  0  0  0  0  0
   -5.5764   -5.4175    1.1220 H   0  0  0  0  0  0  0  0  0  0  0  0
   -6.3617   -7.4708    2.2517 H   0  0  0  0  0  0  0  0  0  0  0  0
   -5.6091   -3.5808   -2.5731 H   0  0  0  0  0  0  0  0  0  0  0  0
   -2.4589   -0.4508   -1.7086 H   0  0  0  0  0  0  0  0  0  0  0  0
   -2.3145    1.8627   -1.5810 H   0  0  0  0  0  0  0  0  0  0  0  0
   -0.7363    1.0413   -1.5867 H   0  0  0  0  0  0  0  0  0  0  0  0
    0.3233    2.9465   -0.4988 H   0  0  0  0  0  0  0  0  0  0  0  0
   -1.6050    3.6046    0.9789 H   0  0  0  0  0  0  0  0  0  0  0  0
   -2.5019    4.1625   -0.4479 H   0  0  0  0  0  0  0  0  0  0  0  0
   -1.4701    5.8955    1.9933 H   0  0  0  0  0  0  0  0  0  0  0  0
   -2.6247    6.2513    0.7008 H   0  0  0  0  0  0  0  0  0  0  0  0
   -0.0852    7.7990    1.4318 H   0  0  0  0  0  0  0  0  0  0  0  0
   -1.7620    8.3583    1.3938 H   0  0  0  0  0  0  0  0  0  0  0  0
    0.9557    7.2318   -0.7206 H   0  0  0  0  0  0  0  0  0  0  0  0
    0.1018    7.7267   -2.1893 H   0  0  0  0  0  0  0  0  0  0  0  0
   -1.7160    6.0449   -1.7016 H   0  0  0  0  0  0  0  0  0  0  0  0
    1.1164    4.8307   -1.8797 H   0  0  0  0  0  0  0  0  0  0  0  0
    0.0910    5.3352   -3.2283 H   0  0  0  0  0  0  0  0  0  0  0  0
  1  2  1  0  0  0  0
  1 35  1  0  0  0  0
  1 36  1  0  0  0  0
  1 37  1  0  0  0  0
  2  3  1  0  0  0  0
  3  4  1  0  0  0  0
  3 22  2  0  0  0  0
  4  5  2  0  0  0  0
  4 38  1  0  0  0  0
  5  6  1  0  0  0  0
  5 20  1  0  0  0  0
  6  7  1  0  0  0  0
  6 17  2  0  0  0  0
  7  8  1  0  0  0  0
  7 39  1  0  0  0  0
  8  9  1  0  0  0  0
  8 15  2  0  0  0  0
  9 10  2  0  0  0  0
  9 40  1  0  0  0  0
 10 11  1  0  0  0  0
 10 41  1  0  0  0  0
 11 12  1  0  0  0  0
 11 13  2  0  0  0  0
 13 14  1  0  0  0  0
 13 15  1  0  0  0  0
 15 16  1  0  0  0  0
 17 18  1  0  0  0  0
 18 19  2  0  0  0  0
 18 42  1  0  0  0  0
 19 20  1  0  0  0  0
 20 21  2  0  0  0  0
 21 22  1  0  0  0  0
 21 43  1  0  0  0  0
 22 23  1  0  0  0  0
 23 24  1  0  0  0  0
 24 44  1  0  0  0  0
 24 45  1  0  0  0  0
 25 26  1  0  0  0  0
 25 34  1  0  0  0  0
 25 24  1  0  0  0  0
 25 46  1  1  0  0  0
 26 27  1  0  0  0  0
 26 47  1  0  0  0  0
 26 48  1  0  0  0  0
 27 28  1  0  0  0  0
 27 32  1  0  0  0  0
 28 29  1  0  0  0  0
 28 49  1  0  0  0  0
 28 50  1  0  0  0  0
 29 30  1  0  0  0  0
 29 51  1  0  0  0  0
 29 52  1  0  0  0  0
 30 31  1  0  0  0  0
 31 32  1  0  0  0  0
 31 53  1  0  0  0  0
 31 54  1  0  0  0  0
 32 33  1  0  0  0  0
 32 55  1  6  0  0  0
 33 34  1  0  0  0  0
 33 56  1  0  0  0  0
 33 57  1  0  0  0  0
M  END
$$$$
