CHEMBL4066813
 OpenBabel04072215383D

 48 51  0  0  0  0  0  0  0  0999 V2000
    3.2327   -0.9405   -4.1292 N   0  0  0  0  0  0  0  0  0  0  0  0
    3.7260   -0.5542   -2.8948 C   0  0  0  0  0  0  0  0  0  0  0  0
    3.3280   -1.2662   -1.8444 N   0  0  0  0  0  0  0  0  0  0  0  0
    3.8491   -0.8994   -0.6635 C   0  0  0  0  0  0  0  0  0  0  0  0
    4.7568    0.1332   -0.5122 C   0  0  0  0  0  0  0  0  0  0  0  0
    5.3052    0.4796    0.7259 C   0  0  0  0  0  0  0  0  0  0  0  0
    6.2014    1.5376    0.7936 C   0  0  0  0  0  0  0  0  0  0  0  0
    6.5375    2.2940   -0.3470 C   0  0  0  0  0  0  0  0  0  0  0  0
    7.3892    3.4948   -0.2027 C   0  0  0  0  0  0  0  0  0  0  0  0
    8.3078    3.9351   -1.1642 C   0  0  0  0  0  0  0  0  0  0  0  0
    9.1001    5.0789   -0.9382 C   0  0  0  0  0  0  0  0  0  0  0  0
    8.9838    5.8206    0.2425 C   0  0  0  0  0  0  0  0  0  0  0  0
    9.7510    7.0023    0.3720 N   0  0  0  0  0  0  0  0  0  0  0  0
    9.6147    8.0892    1.2403 C   0  0  0  0  0  0  0  0  0  0  0  0
    8.4680    8.3322    2.4475 S   0  0  0  0  0  0  0  0  0  0  0  0
   10.5336    9.0846    0.8686 N   0  0  0  0  0  0  0  0  0  0  0  0
   10.9894   10.1106    1.7356 C   0  0  0  0  0  0  0  0  0  0  0  0
   11.3586    9.7360    3.0395 C   0  0  0  0  0  0  0  0  0  0  0  0
   11.5917   10.6926    4.0182 C   0  0  0  0  0  0  0  0  0  0  0  0
   11.8885   10.1491    5.8031 Br  0  0  0  0  0  0  0  0  0  0  0  0
   11.5383   12.0396    3.6941 C   0  0  0  0  0  0  0  0  0  0  0  0
   11.2792   12.4192    2.3727 C   0  0  0  0  0  0  0  0  0  0  0  0
   11.0211   11.4668    1.3717 C   0  0  0  0  0  0  0  0  0  0  0  0
   10.5987   12.0233    0.2012 O   0  0  0  0  0  0  0  0  0  0  0  0
   11.0453   11.5301   -1.0485 C   0  0  0  0  0  0  0  0  0  0  0  0
   11.6328   10.3176   -0.9857 F   0  0  0  0  0  0  0  0  0  0  0  0
    9.9731   11.4199   -1.8646 F   0  0  0  0  0  0  0  0  0  0  0  0
   11.9129   12.4000   -1.6046 F   0  0  0  0  0  0  0  0  0  0  0  0
    8.1060    5.3595    1.2084 C   0  0  0  0  0  0  0  0  0  0  0  0
    7.3019    4.2487    0.9774 C   0  0  0  0  0  0  0  0  0  0  0  0
    5.9794    1.8917   -1.5755 C   0  0  0  0  0  0  0  0  0  0  0  0
    5.0992    0.8161   -1.6806 C   0  0  0  0  0  0  0  0  0  0  0  0
    4.5923    0.4627   -2.8715 N   0  0  0  0  0  0  0  0  0  0  0  0
    2.9590   -1.9124   -4.0864 H   0  0  0  0  0  0  0  0  0  0  0  0
    3.8880   -0.6746   -4.8503 H   0  0  0  0  0  0  0  0  0  0  0  0
    3.5054   -1.4781    0.1873 H   0  0  0  0  0  0  0  0  0  0  0  0
    5.0410   -0.0540    1.6343 H   0  0  0  0  0  0  0  0  0  0  0  0
    6.6277    1.7796    1.7651 H   0  0  0  0  0  0  0  0  0  0  0  0
    8.4204    3.4018   -2.1067 H   0  0  0  0  0  0  0  0  0  0  0  0
    9.7809    5.4030   -1.7203 H   0  0  0  0  0  0  0  0  0  0  0  0
   10.5050    7.0969   -0.2978 H   0  0  0  0  0  0  0  0  0  0  0  0
   10.4682    9.3142   -0.1141 H   0  0  0  0  0  0  0  0  0  0  0  0
   11.4004    8.6805    3.3091 H   0  0  0  0  0  0  0  0  0  0  0  0
   11.6716   12.7984    4.4604 H   0  0  0  0  0  0  0  0  0  0  0  0
   11.2222   13.4805    2.1379 H   0  0  0  0  0  0  0  0  0  0  0  0
    8.0114    5.8099    2.1852 H   0  0  0  0  0  0  0  0  0  0  0  0
    6.5905    3.9905    1.7596 H   0  0  0  0  0  0  0  0  0  0  0  0
    6.2039    2.4480   -2.4846 H   0  0  0  0  0  0  0  0  0  0  0  0
  1  2  1  0  0  0  0
  1 34  1  0  0  0  0
  1 35  1  0  0  0  0
  2  3  1  0  0  0  0
  2 33  2  0  0  0  0
  3  4  2  0  0  0  0
  4  5  1  0  0  0  0
  4 36  1  0  0  0  0
  5  6  1  0  0  0  0
  5 32  2  0  0  0  0
  6  7  2  0  0  0  0
  6 37  1  0  0  0  0
  7  8  1  0  0  0  0
  7 38  1  0  0  0  0
  8  9  1  0  0  0  0
  8 31  2  0  0  0  0
  9 10  1  0  0  0  0
  9 30  2  0  0  0  0
 10 11  2  0  0  0  0
 10 39  1  0  0  0  0
 11 12  1  0  0  0  0
 11 40  1  0  0  0  0
 12 13  1  0  0  0  0
 12 29  2  0  0  0  0
 13 14  1  0  0  0  0
 13 41  1  0  0  0  0
 14 15  2  0  0  0  0
 14 16  1  0  0  0  0
 16 17  1  0  0  0  0
 16 42  1  0  0  0  0
 17 18  1  0  0  0  0
 17 23  2  0  0  0  0
 18 19  2  0  0  0  0
 18 43  1  0  0  0  0
 19 20  1  0  0  0  0
 19 21  1  0  0  0  0
 21 22  2  0  0  0  0
 21 44  1  0  0  0  0
 22 23  1  0  0  0  0
 22 45  1  0  0  0  0
 23 24  1  0  0  0  0
 24 25  1  0  0  0  0
 25 26  1  0  0  0  0
 25 27  1  0  0  0  0
 25 28  1  0  0  0  0
 29 30  1  0  0  0  0
 29 46  1  0  0  0  0
 30 47  1  0  0  0  0
 31 32  1  0  0  0  0
 31 48  1  0  0  0  0
 32 33  1  0  0  0  0
M  END
$$$$
