CHEMBL1083092
 OpenBabel04072215363D

 54 58  0  0  0  0  0  0  0  0999 V2000
    1.7681   -1.6765   -1.3477 C   0  0  0  0  0  0  0  0  0  0  0  0
    0.7632   -0.7095   -0.9190 N   0  0  0  0  0  0  0  0  0  0  0  0
   -0.5092   -0.9141   -1.6534 C   0  0  0  0  0  0  0  0  0  0  0  0
   -1.6250    0.0628   -1.2034 C   0  0  0  0  0  0  0  0  0  0  0  0
   -1.8086   -0.0584    0.2479 N   0  0  0  0  0  0  0  0  0  0  0  0
   -3.0395    0.0380    0.8596 C   0  0  0  0  0  0  0  0  0  0  0  0
   -3.2617   -0.5969    2.0879 C   0  0  0  0  0  0  0  0  0  0  0  0
   -4.5039   -0.5673    2.7268 C   0  0  0  0  0  0  0  0  0  0  0  0
   -5.5823    0.0959    2.1430 C   0  0  0  0  0  0  0  0  0  0  0  0
   -6.8890    0.1137    2.7771 C   0  0  0  0  0  0  0  0  0  0  0  0
   -7.8872    1.1099    2.7460 C   0  0  0  0  0  0  0  0  0  0  0  0
   -8.9862    0.7793    3.4220 N   0  0  0  0  0  0  0  0  0  0  0  0
   -8.7216   -0.4752    3.8947 N   0  0  0  0  0  0  0  0  0  0  0  0
   -9.5923   -1.2826    4.6769 C   0  0  0  0  0  0  0  0  0  0  0  0
  -10.8646   -0.7693    4.9294 N   0  0  0  0  0  0  0  0  0  0  0  0
   -9.1259   -2.4651    5.1306 C   0  0  0  0  0  0  0  0  0  0  0  0
   -9.8737   -3.3857    5.9911 C   0  0  0  0  0  0  0  0  0  0  0  0
  -10.7205   -4.3545    5.4380 C   0  0  0  0  0  0  0  0  0  0  0  0
  -11.3743   -5.2722    6.2648 C   0  0  0  0  0  0  0  0  0  0  0  0
  -11.1801   -5.2125    7.6417 C   0  0  0  0  0  0  0  0  0  0  0  0
  -11.7784   -6.1008    8.4844 O   0  0  0  0  0  0  0  0  0  0  0  0
  -10.3612   -4.2412    8.2052 C   0  0  0  0  0  0  0  0  0  0  0  0
   -9.7094   -3.3234    7.3812 C   0  0  0  0  0  0  0  0  0  0  0  0
   -7.7362   -2.8204    4.7047 C   0  0  0  0  0  0  0  0  0  0  0  0
   -6.9408   -2.1070    3.9704 N   0  0  0  0  0  0  0  0  0  0  0  0
   -7.4294   -0.8960    3.5549 C   0  0  0  0  0  0  0  0  0  0  0  0
   -5.3796    0.7415    0.9185 C   0  0  0  0  0  0  0  0  0  0  0  0
   -4.1277    0.7047    0.2861 C   0  0  0  0  0  0  0  0  0  0  0  0
   -0.5762    0.1428    1.0270 C   0  0  0  0  0  0  0  0  0  0  0  0
    0.5072   -0.8402    0.5354 C   0  0  0  0  0  0  0  0  0  0  0  0
    1.9818   -1.5564   -2.4147 H   0  0  0  0  0  0  0  0  0  0  0  0
    1.4549   -2.7121   -1.1712 H   0  0  0  0  0  0  0  0  0  0  0  0
    2.7108   -1.5063   -0.8157 H   0  0  0  0  0  0  0  0  0  0  0  0
   -0.8667   -1.9425   -1.5030 H   0  0  0  0  0  0  0  0  0  0  0  0
   -0.3424   -0.7796   -2.7281 H   0  0  0  0  0  0  0  0  0  0  0  0
   -2.5382   -0.2011   -1.7504 H   0  0  0  0  0  0  0  0  0  0  0  0
   -1.3580    1.0935   -1.4659 H   0  0  0  0  0  0  0  0  0  0  0  0
   -2.4721   -1.1810    2.5536 H   0  0  0  0  0  0  0  0  0  0  0  0
   -4.6086   -1.0868    3.6739 H   0  0  0  0  0  0  0  0  0  0  0  0
   -7.8495    2.0747    2.2577 H   0  0  0  0  0  0  0  0  0  0  0  0
  -10.8902    0.2453    4.7865 H   0  0  0  0  0  0  0  0  0  0  0  0
  -11.2752   -1.0751    5.8058 H   0  0  0  0  0  0  0  0  0  0  0  0
  -10.8692   -4.4059    4.3610 H   0  0  0  0  0  0  0  0  0  0  0  0
  -12.0190   -6.0236    5.8193 H   0  0  0  0  0  0  0  0  0  0  0  0
  -12.3136   -6.7187    7.9599 H   0  0  0  0  0  0  0  0  0  0  0  0
  -10.2234   -4.2047    9.2827 H   0  0  0  0  0  0  0  0  0  0  0  0
   -9.0662   -2.5703    7.8312 H   0  0  0  0  0  0  0  0  0  0  0  0
   -7.3712   -3.7998    5.0606 H   0  0  0  0  0  0  0  0  0  0  0  0
   -6.1926    1.2647    0.4225 H   0  0  0  0  0  0  0  0  0  0  0  0
   -4.0191    1.2220   -0.6630 H   0  0  0  0  0  0  0  0  0  0  0  0
   -0.7167   -0.0080    2.1025 H   0  0  0  0  0  0  0  0  0  0  0  0
   -0.2326    1.1778    0.9013 H   0  0  0  0  0  0  0  0  0  0  0  0
    0.1896   -1.8627    0.7747 H   0  0  0  0  0  0  0  0  0  0  0  0
    1.4312   -0.6417    1.0919 H   0  0  0  0  0  0  0  0  0  0  0  0
  1  2  1  0  0  0  0
  1 31  1  0  0  0  0
  1 32  1  0  0  0  0
  1 33  1  0  0  0  0
  2  3  1  0  0  0  0
  2 30  1  0  0  0  0
  3  4  1  0  0  0  0
  3 34  1  0  0  0  0
  3 35  1  0  0  0  0
  4  5  1  0  0  0  0
  4 36  1  0  0  0  0
  4 37  1  0  0  0  0
  5  6  1  0  0  0  0
  5 29  1  0  0  0  0
  6  7  1  0  0  0  0
  6 28  2  0  0  0  0
  7  8  2  0  0  0  0
  7 38  1  0  0  0  0
  8  9  1  0  0  0  0
  8 39  1  0  0  0  0
  9 10  1  0  0  0  0
  9 27  2  0  0  0  0
 10 11  1  0  0  0  0
 10 26  2  0  0  0  0
 11 12  2  0  0  0  0
 11 40  1  0  0  0  0
 12 13  1  0  0  0  0
 13 14  1  0  0  0  0
 13 26  1  0  0  0  0
 14 15  1  0  0  0  0
 14 16  2  0  0  0  0
 15 41  1  0  0  0  0
 15 42  1  0  0  0  0
 16 17  1  0  0  0  0
 16 24  1  0  0  0  0
 17 18  1  0  0  0  0
 17 23  2  0  0  0  0
 18 19  2  0  0  0  0
 18 43  1  0  0  0  0
 19 20  1  0  0  0  0
 19 44  1  0  0  0  0
 20 21  1  0  0  0  0
 20 22  2  0  0  0  0
 21 45  1  0  0  0  0
 22 23  1  0  0  0  0
 22 46  1  0  0  0  0
 23 47  1  0  0  0  0
 24 25  2  0  0  0  0
 24 48  1  0  0  0  0
 25 26  1  0  0  0  0
 27 28  1  0  0  0  0
 27 49  1  0  0  0  0
 28 50  1  0  0  0  0
 29 30  1  0  0  0  0
 29 51  1  0  0  0  0
 29 52  1  0  0  0  0
 30 53  1  0  0  0  0
 30 54  1  0  0  0  0
M  END
$$$$
