CHEMBL484109
 OpenBabel04072215383D

 50 54  0  0  0  0  0  0  0  0999 V2000
    1.3951    0.2389    0.3326 N   0  0  0  0  0  0  0  0  0  0  0  0
    2.7719    0.2106    0.2286 C   0  0  0  0  0  0  0  0  0  0  0  0
    3.3340   -1.0049    0.2271 N   0  0  0  0  0  0  0  0  0  0  0  0
    4.6774   -1.1457    0.0778 C   0  0  0  0  0  0  0  0  0  0  0  0
    5.2507   -2.4255    0.0228 N   0  0  0  0  0  0  0  0  0  0  0  0
    4.8109   -3.6160    0.6368 C   0  0  0  0  0  0  0  0  0  0  0  0
    3.9270   -3.6177    1.7243 C   0  0  0  0  0  0  0  0  0  0  0  0
    3.4980   -4.8107    2.3142 C   0  0  0  0  0  0  0  0  0  0  0  0
    3.9256   -6.0321    1.8033 C   0  0  0  0  0  0  0  0  0  0  0  0
    4.7688   -6.0463    0.6952 C   0  0  0  0  0  0  0  0  0  0  0  0
    5.3049   -7.7047   -0.0413 Br  0  0  0  0  0  0  0  0  0  0  0  0
    5.2109   -4.8533    0.1139 C   0  0  0  0  0  0  0  0  0  0  0  0
    5.4264    0.0308   -0.0814 C   0  0  0  0  0  0  0  0  0  0  0  0
    6.7933    0.3696   -0.2670 C   0  0  0  0  0  0  0  0  0  0  0  0
    6.8849    1.7476   -0.4057 C   0  0  0  0  0  0  0  0  0  0  0  0
    8.0755    2.6222   -0.7317 C   0  0  0  0  0  0  0  0  0  0  0  0
    9.0420    1.8535   -1.6464 C   0  0  0  0  0  0  0  0  0  0  0  0
   10.2523    2.5019   -2.2692 C   0  0  0  0  0  0  0  0  0  0  0  0
   10.8777    1.7374   -3.2674 C   0  0  0  0  0  0  0  0  0  0  0  0
   11.9351    2.2479   -4.0035 C   0  0  0  0  0  0  0  0  0  0  0  0
   12.4869    3.4803   -3.6628 C   0  0  0  0  0  0  0  0  0  0  0  0
   13.5634    3.9753   -4.3961 C   0  0  0  0  0  0  0  0  0  0  0  0
   14.4559    4.8460   -3.7920 C   0  0  0  0  0  0  0  0  0  0  0  0
   14.0867    5.4779   -2.6114 C   0  0  0  0  0  0  0  0  0  0  0  0
   12.8216    5.2372   -2.0561 C   0  0  0  0  0  0  0  0  0  0  0  0
   12.0246    4.1730   -2.5271 C   0  0  0  0  0  0  0  0  0  0  0  0
   10.8313    3.7251   -1.9006 C   0  0  0  0  0  0  0  0  0  0  0  0
    5.6122    2.2442   -0.2274 N   0  0  0  0  0  0  0  0  0  0  0  0
    4.7241    1.2252   -0.0648 C   0  0  0  0  0  0  0  0  0  0  0  0
    3.3963    1.3795    0.0747 N   0  0  0  0  0  0  0  0  0  0  0  0
    1.0338   -0.6546    0.0209 H   0  0  0  0  0  0  0  0  0  0  0  0
    1.0406    1.0658   -0.1228 H   0  0  0  0  0  0  0  0  0  0  0  0
    6.2110   -2.4451   -0.2900 H   0  0  0  0  0  0  0  0  0  0  0  0
    3.5776   -2.6778    2.1461 H   0  0  0  0  0  0  0  0  0  0  0  0
    2.8279   -4.7776    3.1693 H   0  0  0  0  0  0  0  0  0  0  0  0
    3.5913   -6.9574    2.2648 H   0  0  0  0  0  0  0  0  0  0  0  0
    5.8476   -4.8882   -0.7659 H   0  0  0  0  0  0  0  0  0  0  0  0
    7.6205   -0.3311   -0.3243 H   0  0  0  0  0  0  0  0  0  0  0  0
    8.5839    2.9082    0.1954 H   0  0  0  0  0  0  0  0  0  0  0  0
    7.7439    3.5417   -1.2304 H   0  0  0  0  0  0  0  0  0  0  0  0
    8.4440    1.4660   -2.4855 H   0  0  0  0  0  0  0  0  0  0  0  0
    9.4180    0.9781   -1.0978 H   0  0  0  0  0  0  0  0  0  0  0  0
   10.5336    0.7254   -3.4766 H   0  0  0  0  0  0  0  0  0  0  0  0
   12.3954    1.6273   -4.7679 H   0  0  0  0  0  0  0  0  0  0  0  0
   13.7166    3.6667   -5.4258 H   0  0  0  0  0  0  0  0  0  0  0  0
   15.4255    5.0227   -4.2480 H   0  0  0  0  0  0  0  0  0  0  0  0
   14.7727    6.1807   -2.1462 H   0  0  0  0  0  0  0  0  0  0  0  0
   12.5078    5.8306   -1.2018 H   0  0  0  0  0  0  0  0  0  0  0  0
   10.4018    4.3176   -1.0972 H   0  0  0  0  0  0  0  0  0  0  0  0
    5.3444    3.2212   -0.2961 H   0  0  0  0  0  0  0  0  0  0  0  0
  1  2  1  0  0  0  0
  1 31  1  0  0  0  0
  1 32  1  0  0  0  0
  2  3  1  0  0  0  0
  2 30  2  0  0  0  0
  3  4  2  0  0  0  0
  4  5  1  0  0  0  0
  4 13  1  0  0  0  0
  5  6  1  0  0  0  0
  5 33  1  0  0  0  0
  6  7  1  0  0  0  0
  6 12  2  0  0  0  0
  7  8  2  0  0  0  0
  7 34  1  0  0  0  0
  8  9  1  0  0  0  0
  8 35  1  0  0  0  0
  9 10  2  0  0  0  0
  9 36  1  0  0  0  0
 10 11  1  0  0  0  0
 10 12  1  0  0  0  0
 12 37  1  0  0  0  0
 13 14  1  0  0  0  0
 13 29  2  0  0  0  0
 14 15  2  0  0  0  0
 14 38  1  0  0  0  0
 15 16  1  0  0  0  0
 15 28  1  0  0  0  0
 16 17  1  0  0  0  0
 16 39  1  0  0  0  0
 16 40  1  0  0  0  0
 17 18  1  0  0  0  0
 17 41  1  0  0  0  0
 17 42  1  0  0  0  0
 18 19  1  0  0  0  0
 18 27  2  0  0  0  0
 19 20  2  0  0  0  0
 19 43  1  0  0  0  0
 20 21  1  0  0  0  0
 20 44  1  0  0  0  0
 21 22  1  0  0  0  0
 21 26  2  0  0  0  0
 22 23  2  0  0  0  0
 22 45  1  0  0  0  0
 23 24  1  0  0  0  0
 23 46  1  0  0  0  0
 24 25  2  0  0  0  0
 24 47  1  0  0  0  0
 25 26  1  0  0  0  0
 25 48  1  0  0  0  0
 26 27  1  0  0  0  0
 27 49  1  0  0  0  0
 28 29  1  0  0  0  0
 28 50  1  0  0  0  0
 29 30  1  0  0  0  0
M  END
$$$$
