CHEMBL2032024
 OpenBabel04072215363D

 65 69  0  0  0  0  0  0  0  0999 V2000
    3.4799    0.0338   -1.2335 C   0  0  0  0  0  0  0  0  0  0  0  0
    4.8570   -0.2418   -0.9919 O   0  0  0  0  0  0  0  0  0  0  0  0
    5.1245   -1.1994   -0.0516 C   0  0  0  0  0  0  0  0  0  0  0  0
    4.1722   -1.8621    0.7060 C   0  0  0  0  0  0  0  0  0  0  0  0
    4.5721   -2.8219    1.6307 C   0  0  0  0  0  0  0  0  0  0  0  0
    5.9239   -3.2167    1.7466 C   0  0  0  0  0  0  0  0  0  0  0  0
    6.3742   -4.3145    2.5215 C   0  0  0  0  0  0  0  0  0  0  0  0
    5.5541   -5.1739    3.2428 O   0  0  0  0  0  0  0  0  0  0  0  0
    4.4603   -5.7624    2.6402 C   0  0  0  0  0  0  0  0  0  0  0  0
    4.2749   -5.8696    1.2681 C   0  0  0  0  0  0  0  0  0  0  0  0
    3.0579   -6.3255    0.7473 C   0  0  0  0  0  0  0  0  0  0  0  0
    2.0221   -6.7759    1.5733 C   0  0  0  0  0  0  0  0  0  0  0  0
    0.7863   -7.2755    1.0637 N   0  0  0  0  0  0  0  0  0  0  0  0
    0.4205   -7.3077   -0.2750 C   0  0  0  0  0  0  0  0  0  0  0  0
    1.0484   -6.7739   -1.1851 O   0  0  0  0  0  0  0  0  0  0  0  0
   -0.8053   -8.0704   -0.6057 C   0  0  0  0  0  0  0  0  0  0  0  0
   -1.2024   -8.5377   -1.8100 C   0  0  0  0  0  0  0  0  0  0  0  0
   -0.5344   -8.3040   -3.1323 C   0  0  0  0  0  0  0  0  0  0  0  0
   -2.3817   -9.2989   -1.7255 N   0  0  0  0  0  0  0  0  0  0  0  0
   -3.3605   -9.4340   -2.8252 C   0  0  0  0  0  0  0  0  0  0  0  0
   -3.0592  -10.6915   -3.6699 C   0  0  0  0  0  0  0  0  0  0  0  0
   -4.0871  -10.9690   -4.6796 N   0  0  0  0  0  0  0  0  0  0  0  0
   -2.8901   -9.0690   -0.4297 N   0  0  0  0  0  0  0  0  0  0  0  0
   -3.9025   -9.8635    0.1421 C   0  0  0  0  0  0  0  0  0  0  0  0
   -4.8675   -9.2392    0.9391 C   0  0  0  0  0  0  0  0  0  0  0  0
   -5.9257   -9.9762    1.4723 C   0  0  0  0  0  0  0  0  0  0  0  0
   -6.0049  -11.3482    1.2406 C   0  0  0  0  0  0  0  0  0  0  0  0
   -5.0387  -11.9802    0.4585 C   0  0  0  0  0  0  0  0  0  0  0  0
   -3.9973  -11.2375   -0.1047 C   0  0  0  0  0  0  0  0  0  0  0  0
   -1.8957   -8.4424    0.3377 C   0  0  0  0  0  0  0  0  0  0  0  0
   -1.8406   -8.2388    1.5365 O   0  0  0  0  0  0  0  0  0  0  0  0
    2.2404   -6.7644    2.9575 C   0  0  0  0  0  0  0  0  0  0  0  0
    3.4464   -6.2526    3.4751 C   0  0  0  0  0  0  0  0  0  0  0  0
    3.6054   -6.2172    4.8059 F   0  0  0  0  0  0  0  0  0  0  0  0
    7.7396   -4.5698    2.6350 C   0  0  0  0  0  0  0  0  0  0  0  0
    8.6075   -3.7629    1.9294 C   0  0  0  0  0  0  0  0  0  0  0  0
    8.2112   -2.7597    1.1185 N   0  0  0  0  0  0  0  0  0  0  0  0
    6.8952   -2.5004    1.0167 C   0  0  0  0  0  0  0  0  0  0  0  0
    6.4755   -1.5035    0.1402 C   0  0  0  0  0  0  0  0  0  0  0  0
    3.4178    0.8355   -1.9743 H   0  0  0  0  0  0  0  0  0  0  0  0
    2.9812    0.3862   -0.3239 H   0  0  0  0  0  0  0  0  0  0  0  0
    2.9709   -0.8450   -1.6455 H   0  0  0  0  0  0  0  0  0  0  0  0
    3.1089   -1.6768    0.6022 H   0  0  0  0  0  0  0  0  0  0  0  0
    3.7992   -3.2957    2.2283 H   0  0  0  0  0  0  0  0  0  0  0  0
    5.0347   -5.5433    0.5617 H   0  0  0  0  0  0  0  0  0  0  0  0
    2.9621   -6.2930   -0.3321 H   0  0  0  0  0  0  0  0  0  0  0  0
    0.1176   -7.6441    1.7405 H   0  0  0  0  0  0  0  0  0  0  0  0
    0.4739   -7.8968   -3.0554 H   0  0  0  0  0  0  0  0  0  0  0  0
   -1.1239   -7.5969   -3.7264 H   0  0  0  0  0  0  0  0  0  0  0  0
   -0.4361   -9.2341   -3.6945 H   0  0  0  0  0  0  0  0  0  0  0  0
   -3.3601   -8.5385   -3.4582 H   0  0  0  0  0  0  0  0  0  0  0  0
   -4.3813   -9.5184   -2.4323 H   0  0  0  0  0  0  0  0  0  0  0  0
   -2.9612  -11.5696   -3.0234 H   0  0  0  0  0  0  0  0  0  0  0  0
   -2.1029  -10.5751   -4.1859 H   0  0  0  0  0  0  0  0  0  0  0  0
   -4.9553  -11.2383   -4.2174 H   0  0  0  0  0  0  0  0  0  0  0  0
   -3.8037  -11.7821   -5.2275 H   0  0  0  0  0  0  0  0  0  0  0  0
   -4.8232   -8.1670    1.1125 H   0  0  0  0  0  0  0  0  0  0  0  0
   -6.6881   -9.4777    2.0658 H   0  0  0  0  0  0  0  0  0  0  0  0
   -6.8177  -11.9251    1.6745 H   0  0  0  0  0  0  0  0  0  0  0  0
   -5.0921  -13.0533    0.2945 H   0  0  0  0  0  0  0  0  0  0  0  0
   -3.2404  -11.7453   -0.6948 H   0  0  0  0  0  0  0  0  0  0  0  0
    1.4862   -7.1214    3.6501 H   0  0  0  0  0  0  0  0  0  0  0  0
    8.1135   -5.3788    3.2488 H   0  0  0  0  0  0  0  0  0  0  0  0
    9.6832   -3.9099    1.9861 H   0  0  0  0  0  0  0  0  0  0  0  0
    7.2268   -0.9633   -0.4334 H   0  0  0  0  0  0  0  0  0  0  0  0
  1  2  1  0  0  0  0
  1 40  1  0  0  0  0
  1 41  1  0  0  0  0
  1 42  1  0  0  0  0
  2  3  1  0  0  0  0
  3  4  1  0  0  0  0
  3 39  2  0  0  0  0
  4  5  2  0  0  0  0
  4 43  1  0  0  0  0
  5  6  1  0  0  0  0
  5 44  1  0  0  0  0
  6  7  1  0  0  0  0
  6 38  2  0  0  0  0
  7  8  1  0  0  0  0
  7 35  2  0  0  0  0
  8  9  1  0  0  0  0
  9 10  1  0  0  0  0
  9 33  2  0  0  0  0
 10 11  2  0  0  0  0
 10 45  1  0  0  0  0
 11 12  1  0  0  0  0
 11 46  1  0  0  0  0
 12 13  1  0  0  0  0
 12 32  2  0  0  0  0
 13 14  1  0  0  0  0
 13 47  1  0  0  0  0
 14 15  2  0  0  0  0
 14 16  1  0  0  0  0
 16 17  2  0  0  0  0
 16 30  1  0  0  0  0
 17 18  1  0  0  0  0
 17 19  1  0  0  0  0
 18 48  1  0  0  0  0
 18 49  1  0  0  0  0
 18 50  1  0  0  0  0
 19 20  1  0  0  0  0
 19 23  1  0  0  0  0
 20 21  1  0  0  0  0
 20 51  1  0  0  0  0
 20 52  1  0  0  0  0
 21 22  1  0  0  0  0
 21 53  1  0  0  0  0
 21 54  1  0  0  0  0
 22 55  1  0  0  0  0
 22 56  1  0  0  0  0
 23 24  1  0  0  0  0
 23 30  1  0  0  0  0
 24 25  1  0  0  0  0
 24 29  2  0  0  0  0
 25 26  2  0  0  0  0
 25 57  1  0  0  0  0
 26 27  1  0  0  0  0
 26 58  1  0  0  0  0
 27 28  2  0  0  0  0
 27 59  1  0  0  0  0
 28 29  1  0  0  0  0
 28 60  1  0  0  0  0
 29 61  1  0  0  0  0
 30 31  2  0  0  0  0
 32 33  1  0  0  0  0
 32 62  1  0  0  0  0
 33 34  1  0  0  0  0
 35 36  1  0  0  0  0
 35 63  1  0  0  0  0
 36 37  2  0  0  0  0
 36 64  1  0  0  0  0
 37 38  1  0  0  0  0
 38 39  1  0  0  0  0
 39 65  1  0  0  0  0
M  END
$$$$
