CHEMBL2113180
 OpenBabel04072215363D

 58 61  0  0  0  0  0  0  0  0999 V2000
    1.0858    0.2665   -0.8877 C   0  0  0  0  0  0  0  0  0  0  0  0
    2.3258   -0.1322   -0.3380 O   0  0  0  0  0  0  0  0  0  0  0  0
    2.8048   -1.3787   -0.8546 C   0  0  0  0  0  0  0  0  0  0  0  0
    4.1100   -1.6342   -0.1152 C   0  0  0  0  0  0  0  0  0  0  0  0
    4.7766   -2.8161   -0.5026 O   0  0  0  0  0  0  0  0  0  0  0  0
    6.1352   -2.8744   -0.3035 C   0  0  0  0  0  0  0  0  0  0  0  0
    6.7184   -3.8102   -1.1960 C   0  0  0  0  0  0  0  0  0  0  0  0
    8.0884   -4.0557   -1.2827 C   0  0  0  0  0  0  0  0  0  0  0  0
    8.5677   -4.9067   -2.1978 N   0  0  0  0  0  0  0  0  0  0  0  0
    9.8963   -5.0756   -2.2320 C   0  0  0  0  0  0  0  0  0  0  0  0
   10.7811   -4.5028   -1.4117 N   0  0  0  0  0  0  0  0  0  0  0  0
   10.2874   -3.6620   -0.4831 C   0  0  0  0  0  0  0  0  0  0  0  0
   11.1843   -3.0503    0.4399 N   0  0  0  0  0  0  0  0  0  0  0  0
   12.5611   -3.0974    0.2557 C   0  0  0  0  0  0  0  0  0  0  0  0
   13.1813   -2.7818   -0.8804 C   0  0  0  0  0  0  0  0  0  0  0  0
   14.6363   -2.9328   -1.0981 C   0  0  0  0  0  0  0  0  0  0  0  0
   15.0844   -2.6361   -2.1971 O   0  0  0  0  0  0  0  0  0  0  0  0
   15.4666   -3.4965    0.0367 C   0  0  0  0  0  0  0  0  0  0  0  0
   16.8410   -3.7631   -0.1625 N   0  0  0  0  0  0  0  0  0  0  0  0
   17.6800   -3.0636   -1.1557 C   0  0  0  0  0  0  0  0  0  0  0  0
   18.0716   -4.0082   -2.2919 C   0  0  0  0  0  0  0  0  0  0  0  0
   18.7521   -5.2645   -1.7504 C   0  0  0  0  0  0  0  0  0  0  0  0
   17.8977   -5.9247   -0.6711 C   0  0  0  0  0  0  0  0  0  0  0  0
   17.5185   -4.9301    0.4279 C   0  0  0  0  0  0  0  0  0  0  0  0
   14.8317   -3.7348    1.1968 C   0  0  0  0  0  0  0  0  0  0  0  0
   13.3875   -3.5163    1.4159 C   0  0  0  0  0  0  0  0  0  0  0  0
   12.8795   -3.7052    2.5193 O   0  0  0  0  0  0  0  0  0  0  0  0
    8.9167   -3.3738   -0.3933 C   0  0  0  0  0  0  0  0  0  0  0  0
    8.3603   -2.4261    0.4831 C   0  0  0  0  0  0  0  0  0  0  0  0
    6.9815   -2.1644    0.5550 C   0  0  0  0  0  0  0  0  0  0  0  0
    6.7795   -1.1328    1.4223 O   0  0  0  0  0  0  0  0  0  0  0  0
    5.6673   -1.0438    2.2882 C   0  0  0  0  0  0  0  0  0  0  0  0
    0.8179    1.2277   -0.4392 H   0  0  0  0  0  0  0  0  0  0  0  0
    0.3078   -0.4610   -0.6430 H   0  0  0  0  0  0  0  0  0  0  0  0
    1.1708    0.3965   -1.9692 H   0  0  0  0  0  0  0  0  0  0  0  0
    2.9647   -1.3198   -1.9357 H   0  0  0  0  0  0  0  0  0  0  0  0
    2.0831   -2.1788   -0.6486 H   0  0  0  0  0  0  0  0  0  0  0  0
    3.8083   -1.7462    0.9259 H   0  0  0  0  0  0  0  0  0  0  0  0
    4.7490   -0.7550   -0.2493 H   0  0  0  0  0  0  0  0  0  0  0  0
    6.0698   -4.3461   -1.8904 H   0  0  0  0  0  0  0  0  0  0  0  0
   10.2951   -5.7398   -2.9917 H   0  0  0  0  0  0  0  0  0  0  0  0
   10.9365   -3.3325    1.3912 H   0  0  0  0  0  0  0  0  0  0  0  0
   12.6304   -2.4381   -1.7482 H   0  0  0  0  0  0  0  0  0  0  0  0
   18.5895   -2.7148   -0.6495 H   0  0  0  0  0  0  0  0  0  0  0  0
   17.2138   -2.1546   -1.5451 H   0  0  0  0  0  0  0  0  0  0  0  0
   18.7503   -3.4951   -2.9830 H   0  0  0  0  0  0  0  0  0  0  0  0
   17.1839   -4.2980   -2.8667 H   0  0  0  0  0  0  0  0  0  0  0  0
   19.7296   -4.9984   -1.3294 H   0  0  0  0  0  0  0  0  0  0  0  0
   18.9374   -5.9721   -2.5666 H   0  0  0  0  0  0  0  0  0  0  0  0
   18.4432   -6.7686   -0.2340 H   0  0  0  0  0  0  0  0  0  0  0  0
   16.9877   -6.3311   -1.1303 H   0  0  0  0  0  0  0  0  0  0  0  0
   18.4162   -4.5928    0.9601 H   0  0  0  0  0  0  0  0  0  0  0  0
   16.8909   -5.4472    1.1606 H   0  0  0  0  0  0  0  0  0  0  0  0
   15.3610   -4.1020    2.0676 H   0  0  0  0  0  0  0  0  0  0  0  0
    9.0246   -1.8381    1.1174 H   0  0  0  0  0  0  0  0  0  0  0  0
    6.0131   -0.7088    3.2708 H   0  0  0  0  0  0  0  0  0  0  0  0
    5.1373   -1.9879    2.4308 H   0  0  0  0  0  0  0  0  0  0  0  0
    5.0157   -0.2450    1.9187 H   0  0  0  0  0  0  0  0  0  0  0  0
  1  2  1  0  0  0  0
  1 33  1  0  0  0  0
  1 34  1  0  0  0  0
  1 35  1  0  0  0  0
  2  3  1  0  0  0  0
  3  4  1  0  0  0  0
  3 36  1  0  0  0  0
  3 37  1  0  0  0  0
  4  5  1  0  0  0  0
  4 38  1  0  0  0  0
  4 39  1  0  0  0  0
  5  6  1  0  0  0  0
  6  7  1  0  0  0  0
  6 30  2  0  0  0  0
  7  8  2  0  0  0  0
  7 40  1  0  0  0  0
  8  9  1  0  0  0  0
  8 28  1  0  0  0  0
  9 10  2  0  0  0  0
 10 11  1  0  0  0  0
 10 41  1  0  0  0  0
 11 12  2  0  0  0  0
 12 13  1  0  0  0  0
 12 28  1  0  0  0  0
 13 14  1  0  0  0  0
 13 42  1  0  0  0  0
 14 15  2  0  0  0  0
 14 26  1  0  0  0  0
 15 16  1  0  0  0  0
 15 43  1  0  0  0  0
 16 17  2  0  0  0  0
 16 18  1  0  0  0  0
 18 19  1  0  0  0  0
 18 25  2  0  0  0  0
 19 20  1  0  0  0  0
 19 24  1  0  0  0  0
 20 21  1  0  0  0  0
 20 44  1  0  0  0  0
 20 45  1  0  0  0  0
 21 22  1  0  0  0  0
 21 46  1  0  0  0  0
 21 47  1  0  0  0  0
 22 23  1  0  0  0  0
 22 48  1  0  0  0  0
 22 49  1  0  0  0  0
 23 24  1  0  0  0  0
 23 50  1  0  0  0  0
 23 51  1  0  0  0  0
 24 52  1  0  0  0  0
 24 53  1  0  0  0  0
 25 26  1  0  0  0  0
 25 54  1  0  0  0  0
 26 27  2  0  0  0  0
 28 29  2  0  0  0  0
 29 30  1  0  0  0  0
 29 55  1  0  0  0  0
 30 31  1  0  0  0  0
 31 32  1  0  0  0  0
 32 56  1  0  0  0  0
 32 57  1  0  0  0  0
 32 58  1  0  0  0  0
M  END
$$$$
