CHEMBL2031904
 OpenBabel04072215363D

 77 81  0  0  0  0  0  0  0  0999 V2000
   -3.9238    0.0896  -14.4016 C   0  0  0  0  0  0  0  0  0  0  0  0
   -2.9950   -0.7134  -15.1309 O   0  0  0  0  0  0  0  0  0  0  0  0
   -1.6858   -0.3424  -14.9873 C   0  0  0  0  0  0  0  0  0  0  0  0
   -1.1817    0.2935  -13.8659 C   0  0  0  0  0  0  0  0  0  0  0  0
    0.1535    0.6775  -13.8291 C   0  0  0  0  0  0  0  0  0  0  0  0
    1.0461    0.3236  -14.8608 C   0  0  0  0  0  0  0  0  0  0  0  0
    2.4398    0.5599  -14.8253 C   0  0  0  0  0  0  0  0  0  0  0  0
    3.1267    1.1667  -13.7946 O   0  0  0  0  0  0  0  0  0  0  0  0
    3.0018    0.7419  -12.4889 C   0  0  0  0  0  0  0  0  0  0  0  0
    2.4316   -0.4645  -12.0644 C   0  0  0  0  0  0  0  0  0  0  0  0
    2.2005   -0.6943  -10.6992 C   0  0  0  0  0  0  0  0  0  0  0  0
    2.6386    0.2355   -9.7560 C   0  0  0  0  0  0  0  0  0  0  0  0
    2.4249    0.0523   -8.3849 N   0  0  0  0  0  0  0  0  0  0  0  0
    1.2354    0.0238   -7.7051 C   0  0  0  0  0  0  0  0  0  0  0  0
    1.2144   -0.5773   -6.6268 O   0  0  0  0  0  0  0  0  0  0  0  0
    0.0359    0.7547   -8.1742 C   0  0  0  0  0  0  0  0  0  0  0  0
   -1.2403    0.6212   -7.7237 C   0  0  0  0  0  0  0  0  0  0  0  0
   -1.7481   -0.3211   -6.6601 C   0  0  0  0  0  0  0  0  0  0  0  0
   -2.2767   -1.5448   -7.2309 N   0  0  0  0  0  0  0  0  0  0  0  0
   -3.3963   -2.1206   -6.6856 C   0  0  0  0  0  0  0  0  0  0  0  0
   -4.2064   -1.4998   -6.0013 O   0  0  0  0  0  0  0  0  0  0  0  0
   -3.4640   -3.4435   -6.9702 O   0  0  0  0  0  0  0  0  0  0  0  0
   -4.5507   -4.2460   -6.4171 C   0  0  0  0  0  0  0  0  0  0  0  0
   -5.9052   -3.7960   -6.9786 C   0  0  0  0  0  0  0  0  0  0  0  0
   -4.3052   -5.6968   -6.8692 C   0  0  0  0  0  0  0  0  0  0  0  0
   -4.5383   -4.2407   -4.8799 C   0  0  0  0  0  0  0  0  0  0  0  0
   -2.0898    1.6004   -8.2758 N   0  0  0  0  0  0  0  0  0  0  0  0
   -3.5352    1.5182   -8.4134 C   0  0  0  0  0  0  0  0  0  0  0  0
   -1.3707    2.2102   -9.2974 N   0  0  0  0  0  0  0  0  0  0  0  0
   -1.8111    3.3024  -10.0586 C   0  0  0  0  0  0  0  0  0  0  0  0
   -1.7069    3.1805  -11.4457 C   0  0  0  0  0  0  0  0  0  0  0  0
   -2.1440    4.1918  -12.2941 C   0  0  0  0  0  0  0  0  0  0  0  0
   -2.6379    5.3705  -11.7447 C   0  0  0  0  0  0  0  0  0  0  0  0
   -2.7025    5.5205  -10.3558 C   0  0  0  0  0  0  0  0  0  0  0  0
   -2.3089    4.4783   -9.5060 C   0  0  0  0  0  0  0  0  0  0  0  0
   -0.0278    1.8906   -9.1337 C   0  0  0  0  0  0  0  0  0  0  0  0
    0.9150    2.4817   -9.6359 O   0  0  0  0  0  0  0  0  0  0  0  0
    3.3549    1.3592  -10.1648 C   0  0  0  0  0  0  0  0  0  0  0  0
    3.4807    1.6313  -11.5234 C   0  0  0  0  0  0  0  0  0  0  0  0
    4.0356    2.7949  -11.8962 F   0  0  0  0  0  0  0  0  0  0  0  0
    3.2226    0.2587  -15.9352 C   0  0  0  0  0  0  0  0  0  0  0  0
    2.6102   -0.3344  -17.0180 C   0  0  0  0  0  0  0  0  0  0  0  0
    1.2983   -0.6470  -17.0592 N   0  0  0  0  0  0  0  0  0  0  0  0
    0.5303   -0.3268  -16.0033 C   0  0  0  0  0  0  0  0  0  0  0  0
   -0.8236   -0.6478  -16.0413 C   0  0  0  0  0  0  0  0  0  0  0  0
   -4.9335   -0.1857  -14.7168 H   0  0  0  0  0  0  0  0  0  0  0  0
   -3.7793    1.1544  -14.6202 H   0  0  0  0  0  0  0  0  0  0  0  0
   -3.8544   -0.0988  -13.3247 H   0  0  0  0  0  0  0  0  0  0  0  0
   -1.8018    0.4895  -13.0006 H   0  0  0  0  0  0  0  0  0  0  0  0
    0.5006    1.2334  -12.9627 H   0  0  0  0  0  0  0  0  0  0  0  0
    2.1024   -1.2120  -12.7810 H   0  0  0  0  0  0  0  0  0  0  0  0
    1.6884   -1.6031  -10.3928 H   0  0  0  0  0  0  0  0  0  0  0  0
    3.1626   -0.4439   -7.8958 H   0  0  0  0  0  0  0  0  0  0  0  0
   -2.5131    0.1865   -6.0605 H   0  0  0  0  0  0  0  0  0  0  0  0
   -0.9788   -0.6138   -5.9434 H   0  0  0  0  0  0  0  0  0  0  0  0
   -1.6314   -2.2047   -7.6439 H   0  0  0  0  0  0  0  0  0  0  0  0
   -5.8996   -3.8295   -8.0742 H   0  0  0  0  0  0  0  0  0  0  0  0
   -6.1498   -2.7684   -6.6996 H   0  0  0  0  0  0  0  0  0  0  0  0
   -6.7181   -4.4357   -6.6184 H   0  0  0  0  0  0  0  0  0  0  0  0
   -4.3029   -5.7791   -7.9616 H   0  0  0  0  0  0  0  0  0  0  0  0
   -5.0758   -6.3722   -6.4780 H   0  0  0  0  0  0  0  0  0  0  0  0
   -3.3300   -6.0587   -6.5242 H   0  0  0  0  0  0  0  0  0  0  0  0
   -4.6708   -3.2409   -4.4582 H   0  0  0  0  0  0  0  0  0  0  0  0
   -3.5824   -4.6156   -4.4982 H   0  0  0  0  0  0  0  0  0  0  0  0
   -5.3392   -4.8711   -4.4763 H   0  0  0  0  0  0  0  0  0  0  0  0
   -3.9796    0.7672   -7.7553 H   0  0  0  0  0  0  0  0  0  0  0  0
   -3.8260    1.2758   -9.4414 H   0  0  0  0  0  0  0  0  0  0  0  0
   -3.9856    2.4799   -8.1427 H   0  0  0  0  0  0  0  0  0  0  0  0
   -1.2949    2.2744  -11.8642 H   0  0  0  0  0  0  0  0  0  0  0  0
   -2.0830    4.0624  -13.3722 H   0  0  0  0  0  0  0  0  0  0  0  0
   -2.9567    6.1760  -12.4005 H   0  0  0  0  0  0  0  0  0  0  0  0
   -3.0490    6.4628   -9.9372 H   0  0  0  0  0  0  0  0  0  0  0  0
   -2.3379    4.6176   -8.4295 H   0  0  0  0  0  0  0  0  0  0  0  0
    3.6965    2.0960   -9.4447 H   0  0  0  0  0  0  0  0  0  0  0  0
    4.2828    0.4848  -15.9530 H   0  0  0  0  0  0  0  0  0  0  0  0
    3.1740   -0.5869  -17.9119 H   0  0  0  0  0  0  0  0  0  0  0  0
   -1.2180   -1.1486  -16.9224 H   0  0  0  0  0  0  0  0  0  0  0  0
  1  2  1  0  0  0  0
  1 46  1  0  0  0  0
  1 47  1  0  0  0  0
  1 48  1  0  0  0  0
  2  3  1  0  0  0  0
  3  4  1  0  0  0  0
  3 45  2  0  0  0  0
  4  5  2  0  0  0  0
  4 49  1  0  0  0  0
  5  6  1  0  0  0  0
  5 50  1  0  0  0  0
  6  7  1  0  0  0  0
  6 44  2  0  0  0  0
  7  8  1  0  0  0  0
  7 41  2  0  0  0  0
  8  9  1  0  0  0  0
  9 10  1  0  0  0  0
  9 39  2  0  0  0  0
 10 11  2  0  0  0  0
 10 51  1  0  0  0  0
 11 12  1  0  0  0  0
 11 52  1  0  0  0  0
 12 13  1  0  0  0  0
 12 38  2  0  0  0  0
 13 14  1  0  0  0  0
 13 53  1  0  0  0  0
 14 15  2  0  0  0  0
 14 16  1  0  0  0  0
 16 17  2  0  0  0  0
 16 36  1  0  0  0  0
 17 18  1  0  0  0  0
 17 27  1  0  0  0  0
 18 19  1  0  0  0  0
 18 54  1  0  0  0  0
 18 55  1  0  0  0  0
 19 20  1  0  0  0  0
 19 56  1  0  0  0  0
 20 21  2  0  0  0  0
 20 22  1  0  0  0  0
 22 23  1  0  0  0  0
 23 24  1  0  0  0  0
 23 25  1  0  0  0  0
 23 26  1  0  0  0  0
 24 57  1  0  0  0  0
 24 58  1  0  0  0  0
 24 59  1  0  0  0  0
 25 60  1  0  0  0  0
 25 61  1  0  0  0  0
 25 62  1  0  0  0  0
 26 63  1  0  0  0  0
 26 64  1  0  0  0  0
 26 65  1  0  0  0  0
 27 28  1  0  0  0  0
 27 29  1  0  0  0  0
 28 66  1  0  0  0  0
 28 67  1  0  0  0  0
 28 68  1  0  0  0  0
 29 30  1  0  0  0  0
 29 36  1  0  0  0  0
 30 31  1  0  0  0  0
 30 35  2  0  0  0  0
 31 32  2  0  0  0  0
 31 69  1  0  0  0  0
 32 33  1  0  0  0  0
 32 70  1  0  0  0  0
 33 34  2  0  0  0  0
 33 71  1  0  0  0  0
 34 35  1  0  0  0  0
 34 72  1  0  0  0  0
 35 73  1  0  0  0  0
 36 37  2  0  0  0  0
 38 39  1  0  0  0  0
 38 74  1  0  0  0  0
 39 40  1  0  0  0  0
 41 42  1  0  0  0  0
 41 75  1  0  0  0  0
 42 43  2  0  0  0  0
 42 76  1  0  0  0  0
 43 44  1  0  0  0  0
 44 45  1  0  0  0  0
 45 77  1  0  0  0  0
M  END
$$$$
