CHEMBL3928439
 OpenBabel04072215373D

 70 73  0  0  1  0  0  0  0  0999 V2000
    5.7284   -2.4990   -2.1001 C   0  0  0  0  0  0  0  0  0  0  0  0
    5.6927   -1.0228   -1.7222 C   0  0  0  0  0  0  0  0  0  0  0  0
    4.2712   -0.4917   -1.4438 C   0  0  0  0  0  0  0  0  0  0  0  0
    3.5149   -1.2826   -0.3449 C   0  0  0  0  0  0  0  0  0  0  0  0
    4.0570   -1.2289    1.0751 C   0  0  0  0  0  0  0  0  0  0  0  0
    4.2794    1.0473   -1.1990 C   0  0  0  0  0  0  0  0  0  0  0  0
    4.7989    1.9125   -2.3140 N   0  0  0  0  0  0  0  0  0  0  0  0
    4.6678    3.3298   -1.9017 C   0  0  0  0  0  0  0  0  0  0  0  0
    5.3580    4.3729   -2.7818 C   0  0  0  0  0  0  0  0  0  0  0  0
    4.6279    4.7516   -4.0657 C   0  0  0  0  0  0  0  0  0  0  0  0
    3.8365    3.7617   -4.6905 O   0  0  0  0  0  0  0  0  0  0  0  0
    4.3870    2.4609   -4.8484 C   0  0  3  0  0  0  0  0  0  0  0  0
    5.8544    2.3285   -5.2598 C   0  0  0  0  0  0  0  0  0  0  0  0
    6.2167    2.8683   -6.5555 O   0  0  0  0  0  0  0  0  0  0  0  0
    7.4448    2.3768   -6.9783 C   0  0  0  0  0  0  0  0  0  0  0  0
    8.3665    1.8441   -6.0297 C   0  0  0  0  0  0  0  0  0  0  0  0
    9.5549    1.2248   -6.3643 C   0  0  0  0  0  0  0  0  0  0  0  0
   10.3198    0.7168   -5.3917 N   0  0  0  0  0  0  0  0  0  0  0  0
   11.4632    0.1506   -5.7780 C   0  0  0  0  0  0  0  0  0  0  0  0
   11.9109    0.0779   -7.0326 N   0  0  0  0  0  0  0  0  0  0  0  0
   11.1270    0.5867   -7.9965 C   0  0  0  0  0  0  0  0  0  0  0  0
   11.5532    0.5739   -9.3538 N   0  0  0  0  0  0  0  0  0  0  0  0
   12.7031   -0.0468   -9.8998 C   0  0  0  0  0  0  0  0  0  0  0  0
   13.2650   -1.1856   -9.2993 C   0  0  0  0  0  0  0  0  0  0  0  0
   14.3996   -1.7858   -9.8386 C   0  0  0  0  0  0  0  0  0  0  0  0
   14.9592   -1.2942  -11.0129 C   0  0  0  0  0  0  0  0  0  0  0  0
   16.3926   -2.0589  -11.6028 Cl  0  0  0  0  0  0  0  0  0  0  0  0
   14.3577   -0.2074  -11.6608 C   0  0  0  0  0  0  0  0  0  0  0  0
   14.9738    0.4377  -13.1412 Cl  0  0  0  0  0  0  0  0  0  0  0  0
   13.2300    0.3974  -11.0984 C   0  0  0  0  0  0  0  0  0  0  0  0
    9.8815    1.1534   -7.7045 C   0  0  0  0  0  0  0  0  0  0  0  0
    8.9810    1.6518   -8.6663 C   0  0  0  0  0  0  0  0  0  0  0  0
    7.7886    2.3048   -8.3300 C   0  0  0  0  0  0  0  0  0  0  0  0
    7.1839    2.6883   -9.4826 O   0  0  0  0  0  0  0  0  0  0  0  0
    6.1397    3.6297   -9.5652 C   0  0  0  0  0  0  0  0  0  0  0  0
    4.0972    1.6040   -3.5847 C   0  0  0  0  0  0  0  0  0  0  0  0
    6.6868   -2.7444   -2.5690 H   0  0  0  0  0  0  0  0  0  0  0  0
    4.9338   -2.7501   -2.8104 H   0  0  0  0  0  0  0  0  0  0  0  0
    5.6199   -3.1359   -1.2170 H   0  0  0  0  0  0  0  0  0  0  0  0
    6.1276   -0.4620   -2.5578 H   0  0  0  0  0  0  0  0  0  0  0  0
    6.3463   -0.8507   -0.8602 H   0  0  0  0  0  0  0  0  0  0  0  0
    3.6745   -0.6779   -2.3456 H   0  0  0  0  0  0  0  0  0  0  0  0
    3.4703   -2.3375   -0.6425 H   0  0  0  0  0  0  0  0  0  0  0  0
    2.4708   -0.9452   -0.3237 H   0  0  0  0  0  0  0  0  0  0  0  0
    5.1235   -1.4615    1.1228 H   0  0  0  0  0  0  0  0  0  0  0  0
    3.5324   -1.9747    1.6863 H   0  0  0  0  0  0  0  0  0  0  0  0
    3.8818   -0.2534    1.5376 H   0  0  0  0  0  0  0  0  0  0  0  0
    4.8928    1.2404   -0.3082 H   0  0  0  0  0  0  0  0  0  0  0  0
    3.2559    1.3615   -0.9520 H   0  0  0  0  0  0  0  0  0  0  0  0
    5.1499    3.4278   -0.9188 H   0  0  0  0  0  0  0  0  0  0  0  0
    3.6159    3.6062   -1.7627 H   0  0  0  0  0  0  0  0  0  0  0  0
    6.3880    4.0659   -2.9937 H   0  0  0  0  0  0  0  0  0  0  0  0
    5.4881    5.2980   -2.2028 H   0  0  0  0  0  0  0  0  0  0  0  0
    5.3269    5.1616   -4.8032 H   0  0  0  0  0  0  0  0  0  0  0  0
    3.9345    5.5678   -3.8293 H   0  0  0  0  0  0  0  0  0  0  0  0
    3.8039    2.0178   -5.6653 H   0  0  0  0  0  0  0  0  0  0  0  0
    6.0516    1.2487   -5.2791 H   0  0  0  0  0  0  0  0  0  0  0  0
    6.4876    2.7909   -4.5015 H   0  0  0  0  0  0  0  0  0  0  0  0
    8.1776    1.8636   -4.9595 H   0  0  0  0  0  0  0  0  0  0  0  0
   12.0865   -0.2840   -5.0044 H   0  0  0  0  0  0  0  0  0  0  0  0
   11.3994    1.4889   -9.7628 H   0  0  0  0  0  0  0  0  0  0  0  0
   12.8420   -1.6115   -8.3922 H   0  0  0  0  0  0  0  0  0  0  0  0
   14.8383   -2.6383   -9.3221 H   0  0  0  0  0  0  0  0  0  0  0  0
   12.7789    1.2611  -11.6093 H   0  0  0  0  0  0  0  0  0  0  0  0
    9.1931    1.5090   -9.7241 H   0  0  0  0  0  0  0  0  0  0  0  0
    6.1698    4.0238  -10.5921 H   0  0  0  0  0  0  0  0  0  0  0  0
    6.2560    4.4783   -8.8897 H   0  0  0  0  0  0  0  0  0  0  0  0
    5.1799    3.1248   -9.4480 H   0  0  0  0  0  0  0  0  0  0  0  0
    4.3870    0.5844   -3.8693 H   0  0  0  0  0  0  0  0  0  0  0  0
    3.0151    1.5967   -3.4126 H   0  0  0  0  0  0  0  0  0  0  0  0
  1  2  1  0  0  0  0
  1 37  1  0  0  0  0
  1 38  1  0  0  0  0
  1 39  1  0  0  0  0
  2  3  1  0  0  0  0
  2 40  1  0  0  0  0
  2 41  1  0  0  0  0
  3  4  1  0  0  0  0
  3  6  1  0  0  0  0
  3 42  1  0  0  0  0
  4  5  1  0  0  0  0
  4 43  1  0  0  0  0
  4 44  1  0  0  0  0
  5 45  1  0  0  0  0
  5 46  1  0  0  0  0
  5 47  1  0  0  0  0
  6  7  1  0  0  0  0
  6 48  1  0  0  0  0
  6 49  1  0  0  0  0
  7  8  1  0  0  0  0
  7 36  1  0  0  0  0
  8  9  1  0  0  0  0
  8 50  1  0  0  0  0
  8 51  1  0  0  0  0
  9 10  1  0  0  0  0
  9 52  1  0  0  0  0
  9 53  1  0  0  0  0
 10 11  1  0  0  0  0
 10 54  1  0  0  0  0
 10 55  1  0  0  0  0
 11 12  1  0  0  0  0
 12 13  1  0  0  0  0
 12 36  1  0  0  0  0
 12 56  1  0  0  0  0
 13 14  1  0  0  0  0
 13 57  1  0  0  0  0
 13 58  1  0  0  0  0
 14 15  1  0  0  0  0
 15 16  1  0  0  0  0
 15 33  2  0  0  0  0
 16 17  2  0  0  0  0
 16 59  1  0  0  0  0
 17 18  1  0  0  0  0
 17 31  1  0  0  0  0
 18 19  2  0  0  0  0
 19 20  1  0  0  0  0
 19 60  1  0  0  0  0
 20 21  2  0  0  0  0
 21 22  1  0  0  0  0
 21 31  1  0  0  0  0
 22 23  1  0  0  0  0
 22 61  1  0  0  0  0
 23 24  1  0  0  0  0
 23 30  2  0  0  0  0
 24 25  2  0  0  0  0
 24 62  1  0  0  0  0
 25 26  1  0  0  0  0
 25 63  1  0  0  0  0
 26 27  1  0  0  0  0
 26 28  2  0  0  0  0
 28 29  1  0  0  0  0
 28 30  1  0  0  0  0
 30 64  1  0  0  0  0
 31 32  2  0  0  0  0
 32 33  1  0  0  0  0
 32 65  1  0  0  0  0
 33 34  1  0  0  0  0
 34 35  1  0  0  0  0
 35 66  1  0  0  0  0
 35 67  1  0  0  0  0
 35 68  1  0  0  0  0
 36 69  1  0  0  0  0
 36 70  1  0  0  0  0
M  END
$$$$
