CHEMBL431996
 OpenBabel04072215383D

 48 51  0  0  0  0  0  0  0  0999 V2000
    5.1146    2.1092   -1.5194 O   0  0  0  0  0  0  0  0  0  0  0  0
    4.9815    0.9132   -1.3049 C   0  0  0  0  0  0  0  0  0  0  0  0
    4.2502    0.1123   -2.1089 O   0  0  0  0  0  0  0  0  0  0  0  0
    5.6497    0.1954   -0.1667 C   0  0  0  0  0  0  0  0  0  0  0  0
    4.6420   -0.3515    0.8340 C   0  0  0  0  0  0  0  0  0  0  0  0
    5.3104   -1.0251    1.9927 C   0  0  0  0  0  0  0  0  0  0  0  0
    6.0988   -0.4221    2.9673 C   0  0  0  0  0  0  0  0  0  0  0  0
    6.5874    0.8928    3.1710 C   0  0  0  0  0  0  0  0  0  0  0  0
    5.9209    1.8414    3.8489 C   0  0  0  0  0  0  0  0  0  0  0  0
    4.5766    1.6786    4.5248 C   0  0  0  0  0  0  0  0  0  0  0  0
    3.8436    0.7109    4.5595 O   0  0  0  0  0  0  0  0  0  0  0  0
    4.3401    2.8943    5.1397 N   0  0  0  0  0  0  0  0  0  0  0  0
    5.3683    3.7964    4.9168 C   0  0  0  0  0  0  0  0  0  0  0  0
    5.4387    5.0824    5.4120 C   0  0  0  0  0  0  0  0  0  0  0  0
    6.5632    5.8349    5.0782 C   0  0  0  0  0  0  0  0  0  0  0  0
    7.5793    5.2955    4.2570 C   0  0  0  0  0  0  0  0  0  0  0  0
    8.7547    6.1709    3.9954 C   0  0  0  0  0  0  0  0  0  0  0  0
    9.1372    7.0118    4.7913 O   0  0  0  0  0  0  0  0  0  0  0  0
    9.3320    5.9785    2.7945 O   0  0  0  0  0  0  0  0  0  0  0  0
    7.4910    3.9715    3.7755 C   0  0  0  0  0  0  0  0  0  0  0  0
    6.3678    3.2249    4.1169 C   0  0  0  0  0  0  0  0  0  0  0  0
    6.4627   -1.3847    3.8804 N   0  0  0  0  0  0  0  0  0  0  0  0
    5.9703   -2.5951    3.4811 C   0  0  0  0  0  0  0  0  0  0  0  0
    5.2604   -2.4182    2.3118 C   0  0  0  0  0  0  0  0  0  0  0  0
    4.6237   -3.5647    1.5909 C   0  0  0  0  0  0  0  0  0  0  0  0
    4.5537   -4.8298    2.4706 C   0  0  0  0  0  0  0  0  0  0  0  0
    5.8428   -5.0562    3.2816 C   0  0  0  0  0  0  0  0  0  0  0  0
    6.1427   -3.8750    4.2211 C   0  0  0  0  0  0  0  0  0  0  0  0
    4.2569   -0.8297   -1.8544 H   0  0  0  0  0  0  0  0  0  0  0  0
    6.3136    0.9191    0.3203 H   0  0  0  0  0  0  0  0  0  0  0  0
    6.2935   -0.5936   -0.5705 H   0  0  0  0  0  0  0  0  0  0  0  0
    3.9727   -1.0632    0.3347 H   0  0  0  0  0  0  0  0  0  0  0  0
    3.9919    0.4521    1.2034 H   0  0  0  0  0  0  0  0  0  0  0  0
    7.5547    1.1215    2.7303 H   0  0  0  0  0  0  0  0  0  0  0  0
    3.5057    3.0659    5.6828 H   0  0  0  0  0  0  0  0  0  0  0  0
    4.6620    5.4933    6.0472 H   0  0  0  0  0  0  0  0  0  0  0  0
    6.6597    6.8498    5.4650 H   0  0  0  0  0  0  0  0  0  0  0  0
    8.8182    5.4406    2.1629 H   0  0  0  0  0  0  0  0  0  0  0  0
    8.2872    3.5325    3.1841 H   0  0  0  0  0  0  0  0  0  0  0  0
    7.0025   -1.2228    4.7186 H   0  0  0  0  0  0  0  0  0  0  0  0
    5.2227   -3.7847    0.6985 H   0  0  0  0  0  0  0  0  0  0  0  0
    3.6154   -3.3025    1.2530 H   0  0  0  0  0  0  0  0  0  0  0  0
    4.3551   -5.7027    1.8374 H   0  0  0  0  0  0  0  0  0  0  0  0
    3.7088   -4.7437    3.1659 H   0  0  0  0  0  0  0  0  0  0  0  0
    6.6811   -5.1943    2.5865 H   0  0  0  0  0  0  0  0  0  0  0  0
    5.7586   -5.9786    3.8677 H   0  0  0  0  0  0  0  0  0  0  0  0
    7.1569   -3.9659    4.6238 H   0  0  0  0  0  0  0  0  0  0  0  0
    5.4440   -3.8964    5.0664 H   0  0  0  0  0  0  0  0  0  0  0  0
  1  2  2  0  0  0  0
  2  3  1  0  0  0  0
  2  4  1  0  0  0  0
  3 29  1  0  0  0  0
  4  5  1  0  0  0  0
  4 30  1  0  0  0  0
  4 31  1  0  0  0  0
  5  6  1  0  0  0  0
  5 32  1  0  0  0  0
  5 33  1  0  0  0  0
  6  7  2  0  0  0  0
  6 24  1  0  0  0  0
  7  8  1  0  0  0  0
  7 22  1  0  0  0  0
  8  9  2  0  0  0  0
  8 34  1  0  0  0  0
  9 10  1  0  0  0  0
  9 21  1  0  0  0  0
 10 11  2  0  0  0  0
 10 12  1  0  0  0  0
 12 13  1  0  0  0  0
 12 35  1  0  0  0  0
 13 14  1  0  0  0  0
 13 21  2  0  0  0  0
 14 15  2  0  0  0  0
 14 36  1  0  0  0  0
 15 16  1  0  0  0  0
 15 37  1  0  0  0  0
 16 17  1  0  0  0  0
 16 20  2  0  0  0  0
 17 18  2  0  0  0  0
 17 19  1  0  0  0  0
 19 38  1  0  0  0  0
 20 21  1  0  0  0  0
 20 39  1  0  0  0  0
 22 23  1  0  0  0  0
 22 40  1  0  0  0  0
 23 24  2  0  0  0  0
 23 28  1  0  0  0  0
 24 25  1  0  0  0  0
 25 26  1  0  0  0  0
 25 41  1  0  0  0  0
 25 42  1  0  0  0  0
 26 27  1  0  0  0  0
 26 43  1  0  0  0  0
 26 44  1  0  0  0  0
 27 28  1  0  0  0  0
 27 45  1  0  0  0  0
 27 46  1  0  0  0  0
 28 47  1  0  0  0  0
 28 48  1  0  0  0  0
M  END
$$$$
