CHEMBL3656090
 OpenBabel04072215373D

 62 65  0  0  0  0  0  0  0  0999 V2000
    3.3702    6.1599    0.2943 C   0  0  0  0  0  0  0  0  0  0  0  0
    1.9784    6.3985   -0.2168 C   0  0  0  0  0  0  0  0  0  0  0  0
    1.6723    7.6066   -0.8499 C   0  0  0  0  0  0  0  0  0  0  0  0
    0.3965    7.8222   -1.3549 C   0  0  0  0  0  0  0  0  0  0  0  0
   -0.5863    6.8458   -1.2181 C   0  0  0  0  0  0  0  0  0  0  0  0
   -1.7402    7.0874   -1.8497 F   0  0  0  0  0  0  0  0  0  0  0  0
   -0.3374    5.6481   -0.5323 C   0  0  0  0  0  0  0  0  0  0  0  0
   -1.3119    4.6440   -0.2750 N   0  0  0  0  0  0  0  0  0  0  0  0
   -2.6856    4.8067   -0.3445 C   0  0  0  0  0  0  0  0  0  0  0  0
   -3.2774    5.8390   -0.6343 O   0  0  0  0  0  0  0  0  0  0  0  0
   -3.3647    3.6585    0.0466 N   0  0  0  0  0  0  0  0  0  0  0  0
   -4.7852    3.6585    0.0415 C   0  0  0  0  0  0  0  0  0  0  0  0
   -5.5229    4.0556   -1.0783 C   0  0  0  0  0  0  0  0  0  0  0  0
   -6.9212    4.0552   -1.0300 C   0  0  0  0  0  0  0  0  0  0  0  0
   -7.5848    3.6743    0.1397 C   0  0  0  0  0  0  0  0  0  0  0  0
   -8.9590    3.7176    0.1014 O   0  0  0  0  0  0  0  0  0  0  0  0
   -9.6954    2.7892    0.8029 C   0  0  0  0  0  0  0  0  0  0  0  0
   -9.2886    1.4876    1.0747 C   0  0  0  0  0  0  0  0  0  0  0  0
  -10.1411    0.6783    1.8051 C   0  0  0  0  0  0  0  0  0  0  0  0
  -11.3715    1.0564    2.2205 N   0  0  0  0  0  0  0  0  0  0  0  0
  -11.7674    2.3083    1.8903 C   0  0  0  0  0  0  0  0  0  0  0  0
  -13.1237    2.6471    2.3076 C   0  0  0  0  0  0  0  0  0  0  0  0
  -13.8681    3.8036    2.1520 C   0  0  0  0  0  0  0  0  0  0  0  0
  -15.1481    3.6213    2.7589 C   0  0  0  0  0  0  0  0  0  0  0  0
  -16.2665    4.5577    2.8825 C   0  0  0  0  0  0  0  0  0  0  0  0
  -17.2937    4.2861    3.4968 O   0  0  0  0  0  0  0  0  0  0  0  0
  -16.0690    5.7804    2.2742 N   0  0  0  0  0  0  0  0  0  0  0  0
  -17.0720    6.8275    2.2989 C   0  0  0  0  0  0  0  0  0  0  0  0
  -16.9716    7.6736    3.5606 C   0  0  0  0  0  0  0  0  0  0  0  0
  -18.0393    8.7349    3.5584 C   0  0  0  0  0  0  0  0  0  0  0  0
  -18.5114    9.2405    2.5518 O   0  0  0  0  0  0  0  0  0  0  0  0
  -18.3954    9.1342    4.8000 O   0  0  0  0  0  0  0  0  0  0  0  0
  -15.1434    2.3248    3.2451 C   0  0  0  0  0  0  0  0  0  0  0  0
  -13.9329    1.7508    2.9690 N   0  0  0  0  0  0  0  0  0  0  0  0
  -10.9639    3.2014    1.1958 C   0  0  0  0  0  0  0  0  0  0  0  0
   -6.8487    3.3438    1.2787 C   0  0  0  0  0  0  0  0  0  0  0  0
   -5.4614    3.2896    1.2040 C   0  0  0  0  0  0  0  0  0  0  0  0
   -4.7626    2.9291    2.2916 F   0  0  0  0  0  0  0  0  0  0  0  0
    0.9697    5.4245   -0.0627 C   0  0  0  0  0  0  0  0  0  0  0  0
    4.0241    7.0123    0.0748 H   0  0  0  0  0  0  0  0  0  0  0  0
    3.8049    5.2786   -0.1872 H   0  0  0  0  0  0  0  0  0  0  0  0
    3.3604    6.0201    1.3795 H   0  0  0  0  0  0  0  0  0  0  0  0
    2.4262    8.3805   -0.9720 H   0  0  0  0  0  0  0  0  0  0  0  0
    0.1506    8.7422   -1.8758 H   0  0  0  0  0  0  0  0  0  0  0  0
   -0.9785    3.7682    0.0975 H   0  0  0  0  0  0  0  0  0  0  0  0
   -2.9567    3.1998    0.8511 H   0  0  0  0  0  0  0  0  0  0  0  0
   -5.0207    4.3704   -1.9906 H   0  0  0  0  0  0  0  0  0  0  0  0
   -7.4896    4.3644   -1.9050 H   0  0  0  0  0  0  0  0  0  0  0  0
   -8.3336    1.0997    0.7420 H   0  0  0  0  0  0  0  0  0  0  0  0
   -9.8465   -0.3306    2.0804 H   0  0  0  0  0  0  0  0  0  0  0  0
  -13.5124    4.6957    1.6559 H   0  0  0  0  0  0  0  0  0  0  0  0
  -15.2078    5.9574    1.7804 H   0  0  0  0  0  0  0  0  0  0  0  0
  -18.0657    6.3718    2.2210 H   0  0  0  0  0  0  0  0  0  0  0  0
  -16.9149    7.4393    1.4038 H   0  0  0  0  0  0  0  0  0  0  0  0
  -15.9955    8.1679    3.6227 H   0  0  0  0  0  0  0  0  0  0  0  0
  -17.0871    7.0343    4.4423 H   0  0  0  0  0  0  0  0  0  0  0  0
  -17.9473    8.6517    5.5208 H   0  0  0  0  0  0  0  0  0  0  0  0
  -15.9141    1.7690    3.7686 H   0  0  0  0  0  0  0  0  0  0  0  0
  -13.6431    0.8095    3.2074 H   0  0  0  0  0  0  0  0  0  0  0  0
  -11.3075    4.1987    0.9514 H   0  0  0  0  0  0  0  0  0  0  0  0
   -7.3312    3.1267    2.2249 H   0  0  0  0  0  0  0  0  0  0  0  0
    1.2161    4.4981    0.4529 H   0  0  0  0  0  0  0  0  0  0  0  0
  1  2  1  0  0  0  0
  1 40  1  0  0  0  0
  1 41  1  0  0  0  0
  1 42  1  0  0  0  0
  2  3  1  0  0  0  0
  2 39  2  0  0  0  0
  3  4  2  0  0  0  0
  3 43  1  0  0  0  0
  4  5  1  0  0  0  0
  4 44  1  0  0  0  0
  5  6  1  0  0  0  0
  5  7  2  0  0  0  0
  7  8  1  0  0  0  0
  7 39  1  0  0  0  0
  8  9  1  0  0  0  0
  8 45  1  0  0  0  0
  9 10  2  0  0  0  0
  9 11  1  0  0  0  0
 11 12  1  0  0  0  0
 11 46  1  0  0  0  0
 12 13  1  0  0  0  0
 12 37  2  0  0  0  0
 13 14  2  0  0  0  0
 13 47  1  0  0  0  0
 14 15  1  0  0  0  0
 14 48  1  0  0  0  0
 15 16  1  0  0  0  0
 15 36  2  0  0  0  0
 16 17  1  0  0  0  0
 17 18  1  0  0  0  0
 17 35  2  0  0  0  0
 18 19  2  0  0  0  0
 18 49  1  0  0  0  0
 19 20  1  0  0  0  0
 19 50  1  0  0  0  0
 20 21  2  0  0  0  0
 21 22  1  0  0  0  0
 21 35  1  0  0  0  0
 22 23  2  0  0  0  0
 22 34  1  0  0  0  0
 23 24  1  0  0  0  0
 23 51  1  0  0  0  0
 24 25  1  0  0  0  0
 24 33  2  0  0  0  0
 25 26  2  0  0  0  0
 25 27  1  0  0  0  0
 27 28  1  0  0  0  0
 27 52  1  0  0  0  0
 28 29  1  0  0  0  0
 28 53  1  0  0  0  0
 28 54  1  0  0  0  0
 29 30  1  0  0  0  0
 29 55  1  0  0  0  0
 29 56  1  0  0  0  0
 30 31  2  0  0  0  0
 30 32  1  0  0  0  0
 32 57  1  0  0  0  0
 33 34  1  0  0  0  0
 33 58  1  0  0  0  0
 34 59  1  0  0  0  0
 35 60  1  0  0  0  0
 36 37  1  0  0  0  0
 36 61  1  0  0  0  0
 37 38  1  0  0  0  0
 39 62  1  0  0  0  0
M  END
$$$$
