CHEMBL3644030
 OpenBabel04072215373D

 39 40  0  0  0  0  0  0  0  0999 V2000
    1.4664   -0.2306    2.4437 C   0  0  0  0  0  0  0  0  0  0  0  0
    2.2986   -0.0575    1.4063 C   0  0  0  0  0  0  0  0  0  0  0  0
    3.0297   -1.1883    0.7542 C   0  0  0  0  0  0  0  0  0  0  0  0
    4.4281   -0.9311    0.7377 O   0  0  0  0  0  0  0  0  0  0  0  0
    5.2674   -1.8478    1.2975 C   0  0  0  0  0  0  0  0  0  0  0  0
    6.2612   -1.2354    1.9806 N   0  0  0  0  0  0  0  0  0  0  0  0
    7.2577   -1.9716    2.4951 C   0  0  0  0  0  0  0  0  0  0  0  0
    8.3691   -1.3674    3.0754 N   0  0  0  0  0  0  0  0  0  0  0  0
    8.4690   -0.1520    3.7613 C   0  0  0  0  0  0  0  0  0  0  0  0
    7.3703    0.4222    4.4113 C   0  0  0  0  0  0  0  0  0  0  0  0
    7.4631    1.6745    5.0217 C   0  0  0  0  0  0  0  0  0  0  0  0
    8.6682    2.3762    4.9674 C   0  0  0  0  0  0  0  0  0  0  0  0
    8.7340    4.0449    5.5854 S   0  0  0  0  0  0  0  0  0  0  0  0
    9.2119    3.8582    7.2810 C   0  0  0  0  0  0  0  0  0  0  0  0
    9.8106    4.7282    4.8910 O   0  0  0  0  0  0  0  0  0  0  0  0
    7.3856    4.5675    5.5637 O   0  0  0  0  0  0  0  0  0  0  0  0
    9.7792    1.8248    4.3282 C   0  0  0  0  0  0  0  0  0  0  0  0
    9.6799    0.5569    3.7429 C   0  0  0  0  0  0  0  0  0  0  0  0
    7.2880   -3.3026    2.4118 N   0  0  0  0  0  0  0  0  0  0  0  0
    6.2692   -3.8871    1.7577 C   0  0  0  0  0  0  0  0  0  0  0  0
    5.2426   -3.2110    1.1250 C   0  0  0  0  0  0  0  0  0  0  0  0
    4.2841   -4.0356    0.3484 C   0  0  0  0  0  0  0  0  0  0  0  0
    3.5034   -3.3701   -0.5402 F   0  0  0  0  0  0  0  0  0  0  0  0
    4.9101   -4.9970   -0.3900 F   0  0  0  0  0  0  0  0  0  0  0  0
    3.4260   -4.7115    1.1644 F   0  0  0  0  0  0  0  0  0  0  0  0
    0.9203    0.6035    2.8696 H   0  0  0  0  0  0  0  0  0  0  0  0
    1.3074   -1.2102    2.8864 H   0  0  0  0  0  0  0  0  0  0  0  0
    2.4257    0.9327    0.9767 H   0  0  0  0  0  0  0  0  0  0  0  0
    2.6952   -1.2440   -0.2879 H   0  0  0  0  0  0  0  0  0  0  0  0
    2.7739   -2.1233    1.2611 H   0  0  0  0  0  0  0  0  0  0  0  0
    9.1127   -2.0347    3.2184 H   0  0  0  0  0  0  0  0  0  0  0  0
    6.4185   -0.1031    4.4407 H   0  0  0  0  0  0  0  0  0  0  0  0
    6.5835    2.0990    5.4995 H   0  0  0  0  0  0  0  0  0  0  0  0
   10.1993    3.3966    7.3262 H   0  0  0  0  0  0  0  0  0  0  0  0
    8.4700    3.2495    7.8009 H   0  0  0  0  0  0  0  0  0  0  0  0
    9.2467    4.8551    7.7272 H   0  0  0  0  0  0  0  0  0  0  0  0
   10.7082    2.3843    4.2424 H   0  0  0  0  0  0  0  0  0  0  0  0
   10.5402    0.1520    3.2136 H   0  0  0  0  0  0  0  0  0  0  0  0
    6.3226   -4.9749    1.7332 H   0  0  0  0  0  0  0  0  0  0  0  0
  1  2  2  0  0  0  0
  1 26  1  0  0  0  0
  1 27  1  0  0  0  0
  2  3  1  0  0  0  0
  2 28  1  0  0  0  0
  3  4  1  0  0  0  0
  3 29  1  0  0  0  0
  3 30  1  0  0  0  0
  4  5  1  0  0  0  0
  5  6  1  0  0  0  0
  5 21  2  0  0  0  0
  6  7  2  0  0  0  0
  7  8  1  0  0  0  0
  7 19  1  0  0  0  0
  8  9  1  0  0  0  0
  8 31  1  0  0  0  0
  9 10  1  0  0  0  0
  9 18  2  0  0  0  0
 10 11  2  0  0  0  0
 10 32  1  0  0  0  0
 11 12  1  0  0  0  0
 11 33  1  0  0  0  0
 12 13  1  0  0  0  0
 12 17  2  0  0  0  0
 13 14  1  0  0  0  0
 13 15  2  0  0  0  0
 13 16  2  0  0  0  0
 14 34  1  0  0  0  0
 14 35  1  0  0  0  0
 14 36  1  0  0  0  0
 17 18  1  0  0  0  0
 17 37  1  0  0  0  0
 18 38  1  0  0  0  0
 19 20  2  0  0  0  0
 20 21  1  0  0  0  0
 20 39  1  0  0  0  0
 21 22  1  0  0  0  0
 22 23  1  0  0  0  0
 22 24  1  0  0  0  0
 22 25  1  0  0  0  0
M  END
$$$$
