CHEMBL3908326
 OpenBabel04072215373D

 75 80  0  0  0  0  0  0  0  0999 V2000
    3.7269   -2.7388    5.1830 C   0  0  0  0  0  0  0  0  0  0  0  0
    3.6101   -3.0621    3.7935 O   0  0  0  0  0  0  0  0  0  0  0  0
    4.7479   -3.5543    3.1964 C   0  0  0  0  0  0  0  0  0  0  0  0
    5.7680   -4.1859    3.8935 C   0  0  0  0  0  0  0  0  0  0  0  0
    6.8998   -4.6119    3.2078 C   0  0  0  0  0  0  0  0  0  0  0  0
    7.9488   -5.2629    3.8041 O   0  0  0  0  0  0  0  0  0  0  0  0
    7.5679   -6.1562    4.8495 C   0  0  0  0  0  0  0  0  0  0  0  0
    7.0372   -4.3607    1.8332 C   0  0  0  0  0  0  0  0  0  0  0  0
    6.0029   -3.8072    1.0698 C   0  0  0  0  0  0  0  0  0  0  0  0
    6.1592   -3.6021   -0.3241 N   0  0  0  0  0  0  0  0  0  0  0  0
    4.9306   -3.4553   -1.1869 C   0  0  0  0  0  0  0  0  0  0  0  0
    4.3647   -2.0493   -1.3965 C   0  0  0  0  0  0  0  0  0  0  0  0
    3.2380   -1.9422   -2.4176 C   0  0  0  0  0  0  0  0  0  0  0  0
    4.5298   -1.2385   -2.6780 C   0  0  0  0  0  0  0  0  0  0  0  0
    7.3041   -3.8018   -1.1724 C   0  0  0  0  0  0  0  0  0  0  0  0
    7.5588   -2.7388   -2.0250 C   0  0  0  0  0  0  0  0  0  0  0  0
    8.0608   -2.9767   -3.2723 C   0  0  0  0  0  0  0  0  0  0  0  0
    8.5388   -4.2086   -3.6178 C   0  0  0  0  0  0  0  0  0  0  0  0
    8.7395   -4.3407   -4.9300 N   0  0  0  0  0  0  0  0  0  0  0  0
    9.4903   -5.3693   -5.3181 C   0  0  0  0  0  0  0  0  0  0  0  0
   10.1522   -6.1653   -4.4024 C   0  0  0  0  0  0  0  0  0  0  0  0
   11.4515   -6.6239   -4.9234 C   0  0  0  0  0  0  0  0  0  0  0  0
   11.9145   -7.8750   -5.3899 C   0  0  0  0  0  0  0  0  0  0  0  0
   13.0051   -7.7797   -6.1725 N   0  0  0  0  0  0  0  0  0  0  0  0
   13.2228   -6.4507   -6.2893 N   0  0  0  0  0  0  0  0  0  0  0  0
   14.3954   -5.9461   -6.9949 C   0  0  0  0  0  0  0  0  0  0  0  0
   14.4219   -5.8670   -8.5585 C   0  0  0  0  0  0  0  0  0  0  0  0
   15.7530   -5.4710   -8.9792 O   0  0  0  0  0  0  0  0  0  0  0  0
   16.8568   -6.3260   -8.7749 C   0  0  0  0  0  0  0  0  0  0  0  0
   13.9102   -7.1605   -9.2189 C   0  0  0  0  0  0  0  0  0  0  0  0
   13.9778   -7.1256  -10.7455 C   0  0  0  0  0  0  0  0  0  0  0  0
   13.3107   -5.9606  -11.3293 N   0  0  0  0  0  0  0  0  0  0  0  0
   13.7451   -4.7090  -10.7051 C   0  0  0  0  0  0  0  0  0  0  0  0
   13.5778   -4.7203   -9.1656 C   0  0  0  0  0  0  0  0  0  0  0  0
   12.3409   -5.7306   -5.5298 C   0  0  0  0  0  0  0  0  0  0  0  0
    9.7596   -6.1712   -3.0743 N   0  0  0  0  0  0  0  0  0  0  0  0
    8.8214   -5.1907   -2.6530 C   0  0  0  0  0  0  0  0  0  0  0  0
    8.0440   -5.0017   -1.4293 C   0  0  0  0  0  0  0  0  0  0  0  0
    4.8483   -3.4148    1.7935 C   0  0  0  0  0  0  0  0  0  0  0  0
    2.8114   -2.2296    5.5011 H   0  0  0  0  0  0  0  0  0  0  0  0
    4.5661   -2.0557    5.3632 H   0  0  0  0  0  0  0  0  0  0  0  0
    3.8231   -3.6388    5.8030 H   0  0  0  0  0  0  0  0  0  0  0  0
    5.6954   -4.3426    4.9621 H   0  0  0  0  0  0  0  0  0  0  0  0
    8.3981   -6.8482    5.0169 H   0  0  0  0  0  0  0  0  0  0  0  0
    6.6877   -6.7524    4.5801 H   0  0  0  0  0  0  0  0  0  0  0  0
    7.3949   -5.6080    5.7811 H   0  0  0  0  0  0  0  0  0  0  0  0
    7.9755   -4.6419    1.3685 H   0  0  0  0  0  0  0  0  0  0  0  0
    4.1328   -4.0987   -0.8020 H   0  0  0  0  0  0  0  0  0  0  0  0
    5.1382   -3.8594   -2.1894 H   0  0  0  0  0  0  0  0  0  0  0  0
    4.2363   -1.4942   -0.4751 H   0  0  0  0  0  0  0  0  0  0  0  0
    2.3707   -1.3258   -2.2067 H   0  0  0  0  0  0  0  0  0  0  0  0
    3.0098   -2.8024   -3.0408 H   0  0  0  0  0  0  0  0  0  0  0  0
    4.4856   -0.1524   -2.6426 H   0  0  0  0  0  0  0  0  0  0  0  0
    5.1567   -1.6137   -3.4779 H   0  0  0  0  0  0  0  0  0  0  0  0
    7.1785   -1.7383   -1.7923 H   0  0  0  0  0  0  0  0  0  0  0  0
    8.0413   -2.1970   -4.0234 H   0  0  0  0  0  0  0  0  0  0  0  0
    9.6837   -5.4203   -6.3832 H   0  0  0  0  0  0  0  0  0  0  0  0
   11.4729   -8.8509   -5.2475 H   0  0  0  0  0  0  0  0  0  0  0  0
   15.2164   -6.5942   -6.6619 H   0  0  0  0  0  0  0  0  0  0  0  0
   14.6331   -4.9592   -6.5778 H   0  0  0  0  0  0  0  0  0  0  0  0
   17.6001   -5.7737   -8.1912 H   0  0  0  0  0  0  0  0  0  0  0  0
   17.3077   -6.5450   -9.7479 H   0  0  0  0  0  0  0  0  0  0  0  0
   16.6087   -7.2581   -8.2685 H   0  0  0  0  0  0  0  0  0  0  0  0
   12.8580   -7.3091   -8.9373 H   0  0  0  0  0  0  0  0  0  0  0  0
   14.4630   -8.0319   -8.8553 H   0  0  0  0  0  0  0  0  0  0  0  0
   13.4895   -8.0265  -11.1375 H   0  0  0  0  0  0  0  0  0  0  0  0
   15.0193   -7.1736  -11.0818 H   0  0  0  0  0  0  0  0  0  0  0  0
   12.3012   -6.0554  -11.2393 H   0  0  0  0  0  0  0  0  0  0  0  0
   13.1671   -3.8841  -11.1362 H   0  0  0  0  0  0  0  0  0  0  0  0
   14.7876   -4.5115  -10.9904 H   0  0  0  0  0  0  0  0  0  0  0  0
   12.5180   -4.8208   -8.9074 H   0  0  0  0  0  0  0  0  0  0  0  0
   13.9241   -3.7496   -8.7880 H   0  0  0  0  0  0  0  0  0  0  0  0
   12.3625   -4.6455   -5.5430 H   0  0  0  0  0  0  0  0  0  0  0  0
    7.9896   -5.8302   -0.7252 H   0  0  0  0  0  0  0  0  0  0  0  0
    4.0050   -2.9475    1.2926 H   0  0  0  0  0  0  0  0  0  0  0  0
  1  2  1  0  0  0  0
  1 40  1  0  0  0  0
  1 41  1  0  0  0  0
  1 42  1  0  0  0  0
  2  3  1  0  0  0  0
  3  4  1  0  0  0  0
  3 39  2  0  0  0  0
  4  5  2  0  0  0  0
  4 43  1  0  0  0  0
  5  6  1  0  0  0  0
  5  8  1  0  0  0  0
  6  7  1  0  0  0  0
  7 44  1  0  0  0  0
  7 45  1  0  0  0  0
  7 46  1  0  0  0  0
  8  9  2  0  0  0  0
  8 47  1  0  0  0  0
  9 10  1  0  0  0  0
  9 39  1  0  0  0  0
 10 11  1  0  0  0  0
 10 15  1  0  0  0  0
 11 12  1  0  0  0  0
 11 48  1  0  0  0  0
 11 49  1  0  0  0  0
 12 13  1  0  0  0  0
 12 14  1  0  0  0  0
 12 50  1  0  0  0  0
 13 14  1  0  0  0  0
 13 51  1  0  0  0  0
 13 52  1  0  0  0  0
 14 53  1  0  0  0  0
 14 54  1  0  0  0  0
 15 16  1  0  0  0  0
 15 38  2  0  0  0  0
 16 17  2  0  0  0  0
 16 55  1  0  0  0  0
 17 18  1  0  0  0  0
 17 56  1  0  0  0  0
 18 19  1  0  0  0  0
 18 37  2  0  0  0  0
 19 20  2  0  0  0  0
 20 21  1  0  0  0  0
 20 57  1  0  0  0  0
 21 22  1  0  0  0  0
 21 36  2  0  0  0  0
 22 23  1  0  0  0  0
 22 35  2  0  0  0  0
 23 24  2  0  0  0  0
 23 58  1  0  0  0  0
 24 25  1  0  0  0  0
 25 26  1  0  0  0  0
 25 35  1  0  0  0  0
 26 27  1  0  0  0  0
 26 59  1  0  0  0  0
 26 60  1  0  0  0  0
 27 28  1  0  0  0  0
 27 30  1  0  0  0  0
 27 34  1  0  0  0  0
 28 29  1  0  0  0  0
 29 61  1  0  0  0  0
 29 62  1  0  0  0  0
 29 63  1  0  0  0  0
 30 31  1  0  0  0  0
 30 64  1  0  0  0  0
 30 65  1  0  0  0  0
 31 32  1  0  0  0  0
 31 66  1  0  0  0  0
 31 67  1  0  0  0  0
 32 33  1  0  0  0  0
 32 68  1  0  0  0  0
 33 34  1  0  0  0  0
 33 69  1  0  0  0  0
 33 70  1  0  0  0  0
 34 71  1  0  0  0  0
 34 72  1  0  0  0  0
 35 73  1  0  0  0  0
 36 37  1  0  0  0  0
 37 38  1  0  0  0  0
 38 74  1  0  0  0  0
 39 75  1  0  0  0  0
M  END
$$$$
