CHEMBL3657554
 OpenBabel04072215373D

 65 69  0  0  1  0  0  0  0  0999 V2000
    3.5673    4.1242   -0.8431 C   0  0  0  0  0  0  0  0  0  0  0  0
    3.4890    2.7421   -0.5120 O   0  0  0  0  0  0  0  0  0  0  0  0
    4.3496    2.4312    0.5856 C   0  0  0  0  0  0  0  0  0  0  0  0
    4.2930    0.9298    0.9204 C   0  0  2  0  0  0  0  0  0  0  0  0
    5.0905    0.6505    2.2010 C   0  0  0  0  0  0  0  0  0  0  0  0
    5.5686   -0.7701    2.0208 C   0  0  1  0  0  0  0  0  0  0  0  0
    4.5481   -1.6932    2.3933 O   0  0  0  0  0  0  0  0  0  0  0  0
    5.8658   -0.8262    0.5294 C   0  0  0  0  0  0  0  0  0  0  0  0
    4.8858    0.0566   -0.1360 N   0  0  0  0  0  0  0  0  0  0  0  0
    3.8381   -0.6530   -0.8941 C   0  0  0  0  0  0  0  0  0  0  0  0
    4.4227   -1.4358   -2.0313 C   0  0  0  0  0  0  0  0  0  0  0  0
    4.9012   -2.7346   -2.0238 C   0  0  0  0  0  0  0  0  0  0  0  0
    5.4308   -2.9908   -3.2676 N   0  0  0  0  0  0  0  0  0  0  0  0
    6.1407   -4.1661   -3.6649 C   0  0  0  0  0  0  0  0  0  0  0  0
    6.7138   -4.1862   -4.9187 C   0  0  0  0  0  0  0  0  0  0  0  0
    7.3633   -5.3441   -5.2507 C   0  0  0  0  0  0  0  0  0  0  0  0
    7.4236   -6.4179   -4.4450 N   0  0  0  0  0  0  0  0  0  0  0  0
    6.8366   -6.3303   -3.2424 C   0  0  0  0  0  0  0  0  0  0  0  0
    6.8403   -7.4155   -2.3617 N   0  0  0  0  0  0  0  0  0  0  0  0
    6.7795   -8.8039   -2.6011 C   0  0  0  0  0  0  0  0  0  0  0  0
    6.8514   -9.3843   -3.8695 C   0  0  0  0  0  0  0  0  0  0  0  0
    6.7488  -10.7721   -4.0689 C   0  0  0  0  0  0  0  0  0  0  0  0
    6.5788  -11.5932   -2.9456 C   0  0  0  0  0  0  0  0  0  0  0  0
    6.5633  -11.0641   -1.6549 C   0  0  0  0  0  0  0  0  0  0  0  0
    6.6953   -9.6646   -1.4908 C   0  0  0  0  0  0  0  0  0  0  0  0
    6.3883  -12.1558   -0.7612 C   0  0  0  0  0  0  0  0  0  0  0  0
    6.3142  -12.0128    0.9352 Cl  0  0  0  0  0  0  0  0  0  0  0  0
    6.2472  -13.3148   -1.5026 C   0  0  0  0  0  0  0  0  0  0  0  0
    5.9609  -14.7053   -1.0510 C   0  0  0  0  0  0  0  0  0  0  0  0
    6.4038  -12.9591   -2.8271 N   0  0  0  0  0  0  0  0  0  0  0  0
    6.3694  -13.8665   -3.9614 C   0  0  0  0  0  0  0  0  0  0  0  0
    6.2229   -5.2158   -2.8021 N   0  0  0  0  0  0  0  0  0  0  0  0
    5.1858   -1.9642   -4.1261 N   0  0  0  0  0  0  0  0  0  0  0  0
    4.5514   -1.0429   -3.3891 C   0  0  0  0  0  0  0  0  0  0  0  0
    4.0477    0.2031   -4.0229 C   0  0  0  0  0  0  0  0  0  0  0  0
    2.9281    4.3090   -1.7095 H   0  0  0  0  0  0  0  0  0  0  0  0
    4.5940    4.4034   -1.1012 H   0  0  0  0  0  0  0  0  0  0  0  0
    3.2116    4.7364   -0.0082 H   0  0  0  0  0  0  0  0  0  0  0  0
    4.0161    3.0056    1.4598 H   0  0  0  0  0  0  0  0  0  0  0  0
    5.3776    2.7334    0.3499 H   0  0  0  0  0  0  0  0  0  0  0  0
    3.2460    0.6464    1.0952 H   0  0  0  0  0  0  0  0  0  0  0  0
    4.4689    0.7741    3.0933 H   0  0  0  0  0  0  0  0  0  0  0  0
    5.9567    1.3201    2.2765 H   0  0  0  0  0  0  0  0  0  0  0  0
    6.4535   -0.9900    2.6239 H   0  0  0  0  0  0  0  0  0  0  0  0
    3.8039   -1.5805    1.7793 H   0  0  0  0  0  0  0  0  0  0  0  0
    5.8800   -1.8567    0.1761 H   0  0  0  0  0  0  0  0  0  0  0  0
    6.8587   -0.3992    0.3402 H   0  0  0  0  0  0  0  0  0  0  0  0
    3.1296    0.0780   -1.3041 H   0  0  0  0  0  0  0  0  0  0  0  0
    3.2580   -1.3245   -0.2506 H   0  0  0  0  0  0  0  0  0  0  0  0
    4.9706   -3.4716   -1.2358 H   0  0  0  0  0  0  0  0  0  0  0  0
    6.6749   -3.3471   -5.6013 H   0  0  0  0  0  0  0  0  0  0  0  0
    7.8661   -5.4533   -6.2069 H   0  0  0  0  0  0  0  0  0  0  0  0
    6.3846   -7.1261   -1.5068 H   0  0  0  0  0  0  0  0  0  0  0  0
    6.9611   -8.7630   -4.7544 H   0  0  0  0  0  0  0  0  0  0  0  0
    6.7816  -11.1803   -5.0741 H   0  0  0  0  0  0  0  0  0  0  0  0
    6.6939   -9.2568   -0.4839 H   0  0  0  0  0  0  0  0  0  0  0  0
    5.8284  -14.7575    0.0343 H   0  0  0  0  0  0  0  0  0  0  0  0
    6.7801  -15.3781   -1.3190 H   0  0  0  0  0  0  0  0  0  0  0  0
    5.0365  -15.0735   -1.5072 H   0  0  0  0  0  0  0  0  0  0  0  0
    6.1539  -14.8851   -3.6347 H   0  0  0  0  0  0  0  0  0  0  0  0
    7.3475  -13.8410   -4.4490 H   0  0  0  0  0  0  0  0  0  0  0  0
    5.5856  -13.5340   -4.6468 H   0  0  0  0  0  0  0  0  0  0  0  0
    4.2801    0.2342   -5.0926 H   0  0  0  0  0  0  0  0  0  0  0  0
    4.4848    1.0863   -3.5490 H   0  0  0  0  0  0  0  0  0  0  0  0
    2.9579    0.2587   -3.9204 H   0  0  0  0  0  0  0  0  0  0  0  0
  1  2  1  0  0  0  0
  1 36  1  0  0  0  0
  1 37  1  0  0  0  0
  1 38  1  0  0  0  0
  2  3  1  0  0  0  0
  3 39  1  0  0  0  0
  3 40  1  0  0  0  0
  4  5  1  0  0  0  0
  4  9  1  0  0  0  0
  4  3  1  0  0  0  0
  4 41  1  1  0  0  0
  5  6  1  0  0  0  0
  5 42  1  0  0  0  0
  5 43  1  0  0  0  0
  6  7  1  0  0  0  0
  6  8  1  0  0  0  0
  6 44  1  1  0  0  0
  7 45  1  0  0  0  0
  8  9  1  0  0  0  0
  8 46  1  0  0  0  0
  8 47  1  0  0  0  0
  9 10  1  0  0  0  0
 10 11  1  0  0  0  0
 10 48  1  0  0  0  0
 10 49  1  0  0  0  0
 11 12  2  0  0  0  0
 11 34  1  0  0  0  0
 12 13  1  0  0  0  0
 12 50  1  0  0  0  0
 13 14  1  0  0  0  0
 13 33  1  0  0  0  0
 14 15  1  0  0  0  0
 14 32  2  0  0  0  0
 15 16  2  0  0  0  0
 15 51  1  0  0  0  0
 16 17  1  0  0  0  0
 16 52  1  0  0  0  0
 17 18  2  0  0  0  0
 18 19  1  0  0  0  0
 18 32  1  0  0  0  0
 19 20  1  0  0  0  0
 19 53  1  0  0  0  0
 20 21  1  0  0  0  0
 20 25  2  0  0  0  0
 21 22  2  0  0  0  0
 21 54  1  0  0  0  0
 22 23  1  0  0  0  0
 22 55  1  0  0  0  0
 23 24  2  0  0  0  0
 23 30  1  0  0  0  0
 24 25  1  0  0  0  0
 24 26  1  0  0  0  0
 25 56  1  0  0  0  0
 26 27  1  0  0  0  0
 26 28  2  0  0  0  0
 28 29  1  0  0  0  0
 28 30  1  0  0  0  0
 29 57  1  0  0  0  0
 29 58  1  0  0  0  0
 29 59  1  0  0  0  0
 30 31  1  0  0  0  0
 31 60  1  0  0  0  0
 31 61  1  0  0  0  0
 31 62  1  0  0  0  0
 33 34  2  0  0  0  0
 34 35  1  0  0  0  0
 35 63  1  0  0  0  0
 35 64  1  0  0  0  0
 35 65  1  0  0  0  0
M  END
$$$$
