CHEMBL191377
 OpenBabel04072215363D

 55 58  0  0  0  0  0  0  0  0999 V2000
    6.4258   -6.0320   -4.3568 O   0  0  0  0  0  0  0  0  0  0  0  0
    6.8943   -7.1117   -3.5612 C   0  0  0  0  0  0  0  0  0  0  0  0
    7.9340   -6.6076   -2.5690 C   0  0  0  0  0  0  0  0  0  0  0  0
    7.3387   -5.5619   -1.6284 C   0  0  0  0  0  0  0  0  0  0  0  0
    8.3531   -5.1126   -0.6676 N   0  0  0  0  0  0  0  0  0  0  0  0
    7.9476   -4.1046    0.2288 C   0  0  0  0  0  0  0  0  0  0  0  0
    6.6668   -4.0083    0.7723 C   0  0  0  0  0  0  0  0  0  0  0  0
    6.2669   -3.0897    1.6853 N   0  0  0  0  0  0  0  0  0  0  0  0
    7.2105   -2.2273    2.1173 C   0  0  0  0  0  0  0  0  0  0  0  0
    8.5354   -2.2263    1.6887 C   0  0  0  0  0  0  0  0  0  0  0  0
    9.4934   -1.2493    2.1910 C   0  0  0  0  0  0  0  0  0  0  0  0
    9.3672   -0.8000    3.4384 N   0  0  0  0  0  0  0  0  0  0  0  0
   10.3285    0.0389    3.8088 C   0  0  0  0  0  0  0  0  0  0  0  0
   11.3478    0.4559    3.0577 N   0  0  0  0  0  0  0  0  0  0  0  0
   11.3354    0.0040    1.8091 C   0  0  0  0  0  0  0  0  0  0  0  0
   12.3362    0.4362    0.9446 N   0  0  0  0  0  0  0  0  0  0  0  0
   12.2531    0.5840   -0.4444 C   0  0  0  0  0  0  0  0  0  0  0  0
   11.0456    0.8688   -1.0934 C   0  0  0  0  0  0  0  0  0  0  0  0
   10.9632    0.9225   -2.4899 C   0  0  0  0  0  0  0  0  0  0  0  0
   12.0733    0.6555   -3.2945 C   0  0  0  0  0  0  0  0  0  0  0  0
   12.0078    0.6572   -4.6711 N   0  0  0  0  0  0  0  0  0  0  0  0
   11.0762    1.4954   -5.4384 C   0  0  0  0  0  0  0  0  0  0  0  0
   10.1207    0.6290   -6.2717 C   0  0  0  0  0  0  0  0  0  0  0  0
   10.8351   -0.3104   -7.0930 O   0  0  0  0  0  0  0  0  0  0  0  0
   11.6252   -1.1824   -6.2683 C   0  0  0  0  0  0  0  0  0  0  0  0
   12.6688   -0.4017   -5.4510 C   0  0  0  0  0  0  0  0  0  0  0  0
   13.2796    0.3786   -2.6315 C   0  0  0  0  0  0  0  0  0  0  0  0
   13.3761    0.3531   -1.2340 C   0  0  0  0  0  0  0  0  0  0  0  0
   10.4408   -0.8604    1.3452 N   0  0  0  0  0  0  0  0  0  0  0  0
    8.8875   -3.2045    0.7352 C   0  0  0  0  0  0  0  0  0  0  0  0
    5.7800   -6.3956   -4.9877 H   0  0  0  0  0  0  0  0  0  0  0  0
    7.3367   -7.8624   -4.2227 H   0  0  0  0  0  0  0  0  0  0  0  0
    6.0408   -7.5602   -3.0417 H   0  0  0  0  0  0  0  0  0  0  0  0
    8.7773   -6.1656   -3.1131 H   0  0  0  0  0  0  0  0  0  0  0  0
    8.3244   -7.4524   -1.9892 H   0  0  0  0  0  0  0  0  0  0  0  0
    6.4924   -6.0193   -1.1051 H   0  0  0  0  0  0  0  0  0  0  0  0
    6.9714   -4.7020   -2.2015 H   0  0  0  0  0  0  0  0  0  0  0  0
    9.2282   -4.8664   -1.1248 H   0  0  0  0  0  0  0  0  0  0  0  0
    5.8789   -4.7018    0.4921 H   0  0  0  0  0  0  0  0  0  0  0  0
    6.8566   -1.4959    2.8390 H   0  0  0  0  0  0  0  0  0  0  0  0
   10.2762    0.4245    4.8208 H   0  0  0  0  0  0  0  0  0  0  0  0
   13.1142    0.8661    1.4170 H   0  0  0  0  0  0  0  0  0  0  0  0
   10.1428    1.0575   -0.5184 H   0  0  0  0  0  0  0  0  0  0  0  0
    9.9925    1.1303   -2.9301 H   0  0  0  0  0  0  0  0  0  0  0  0
   11.6783    2.1101   -6.1187 H   0  0  0  0  0  0  0  0  0  0  0  0
   10.5075    2.1915   -4.8131 H   0  0  0  0  0  0  0  0  0  0  0  0
    9.5335    1.2671   -6.9400 H   0  0  0  0  0  0  0  0  0  0  0  0
    9.4198    0.0811   -5.6313 H   0  0  0  0  0  0  0  0  0  0  0  0
   12.1315   -1.8945   -6.9276 H   0  0  0  0  0  0  0  0  0  0  0  0
   10.9567   -1.7529   -5.6123 H   0  0  0  0  0  0  0  0  0  0  0  0
   13.3859    0.0735   -6.1290 H   0  0  0  0  0  0  0  0  0  0  0  0
   13.2169   -1.1136   -4.8257 H   0  0  0  0  0  0  0  0  0  0  0  0
   14.1823    0.1911   -3.2075 H   0  0  0  0  0  0  0  0  0  0  0  0
   14.3288    0.1073   -0.7750 H   0  0  0  0  0  0  0  0  0  0  0  0
    9.9196   -3.2476    0.3820 H   0  0  0  0  0  0  0  0  0  0  0  0
  1  2  1  0  0  0  0
  1 31  1  0  0  0  0
  2  3  1  0  0  0  0
  2 32  1  0  0  0  0
  2 33  1  0  0  0  0
  3  4  1  0  0  0  0
  3 34  1  0  0  0  0
  3 35  1  0  0  0  0
  4  5  1  0  0  0  0
  4 36  1  0  0  0  0
  4 37  1  0  0  0  0
  5  6  1  0  0  0  0
  5 38  1  0  0  0  0
  6  7  1  0  0  0  0
  6 30  2  0  0  0  0
  7  8  2  0  0  0  0
  7 39  1  0  0  0  0
  8  9  1  0  0  0  0
  9 10  2  0  0  0  0
  9 40  1  0  0  0  0
 10 11  1  0  0  0  0
 10 30  1  0  0  0  0
 11 12  1  0  0  0  0
 11 29  2  0  0  0  0
 12 13  2  0  0  0  0
 13 14  1  0  0  0  0
 13 41  1  0  0  0  0
 14 15  2  0  0  0  0
 15 16  1  0  0  0  0
 15 29  1  0  0  0  0
 16 17  1  0  0  0  0
 16 42  1  0  0  0  0
 17 18  1  0  0  0  0
 17 28  2  0  0  0  0
 18 19  2  0  0  0  0
 18 43  1  0  0  0  0
 19 20  1  0  0  0  0
 19 44  1  0  0  0  0
 20 21  1  0  0  0  0
 20 27  2  0  0  0  0
 21 22  1  0  0  0  0
 21 26  1  0  0  0  0
 22 23  1  0  0  0  0
 22 45  1  0  0  0  0
 22 46  1  0  0  0  0
 23 24  1  0  0  0  0
 23 47  1  0  0  0  0
 23 48  1  0  0  0  0
 24 25  1  0  0  0  0
 25 26  1  0  0  0  0
 25 49  1  0  0  0  0
 25 50  1  0  0  0  0
 26 51  1  0  0  0  0
 26 52  1  0  0  0  0
 27 28  1  0  0  0  0
 27 53  1  0  0  0  0
 28 54  1  0  0  0  0
 30 55  1  0  0  0  0
M  END
$$$$
