CHEMBL3904777
 OpenBabel04072215373D

 67 71  0  0  0  0  0  0  0  0999 V2000
    4.5059   -5.9489    4.8568 C   0  0  0  0  0  0  0  0  0  0  0  0
    5.4474   -6.0885    3.6769 C   0  0  0  0  0  0  0  0  0  0  0  0
    6.8102   -5.7686    3.9966 O   0  0  0  0  0  0  0  0  0  0  0  0
    7.5064   -6.7303    4.6893 C   0  0  0  0  0  0  0  0  0  0  0  0
    7.0115   -7.6930    5.2160 O   0  0  0  0  0  0  0  0  0  0  0  0
    9.0081   -6.5134    4.6310 C   0  0  0  0  0  0  0  0  0  0  0  0
    9.4227   -5.4689    3.7292 N   0  0  0  0  0  0  0  0  0  0  0  0
    9.5304   -5.5843    2.3860 C   0  0  0  0  0  0  0  0  0  0  0  0
    9.6864   -4.2918    1.9587 C   0  0  0  0  0  0  0  0  0  0  0  0
    9.6237   -3.8255    0.5499 C   0  0  0  0  0  0  0  0  0  0  0  0
    9.5299   -4.9632   -0.5022 N   0  0  0  0  0  0  0  0  0  0  0  0
    8.1685   -5.0603   -0.9540 C   0  0  0  0  0  0  0  0  0  0  0  0
    7.8810   -5.1914   -2.3098 C   0  0  0  0  0  0  0  0  0  0  0  0
    6.5594   -5.2928   -2.7695 C   0  0  0  0  0  0  0  0  0  0  0  0
    6.1873   -5.4185   -4.0815 O   0  0  0  0  0  0  0  0  0  0  0  0
    7.2505   -5.3501   -5.0216 C   0  0  0  0  0  0  0  0  0  0  0  0
    5.4939   -5.2965   -1.8697 C   0  0  0  0  0  0  0  0  0  0  0  0
    5.7375   -5.1668   -0.5121 C   0  0  0  0  0  0  0  0  0  0  0  0
    4.7766   -5.2380    0.4622 O   0  0  0  0  0  0  0  0  0  0  0  0
    3.5426   -5.8466    0.0780 C   0  0  0  0  0  0  0  0  0  0  0  0
    7.0563   -4.9759   -0.0726 C   0  0  0  0  0  0  0  0  0  0  0  0
   10.7602   -5.4138   -1.1135 C   0  0  0  0  0  0  0  0  0  0  0  0
   11.7794   -4.4973   -1.0892 C   0  0  0  0  0  0  0  0  0  0  0  0
   12.8929   -4.6892   -1.8361 C   0  0  0  0  0  0  0  0  0  0  0  0
   13.1340   -5.7397   -2.6102 C   0  0  0  0  0  0  0  0  0  0  0  0
   14.0872   -5.2904   -3.3590 N   0  0  0  0  0  0  0  0  0  0  0  0
   15.0833   -6.1168   -3.5749 C   0  0  0  0  0  0  0  0  0  0  0  0
   15.0780   -7.4461   -3.3430 C   0  0  0  0  0  0  0  0  0  0  0  0
   16.5288   -7.9564   -3.5686 C   0  0  0  0  0  0  0  0  0  0  0  0
   17.1664   -8.9804   -4.3435 C   0  0  0  0  0  0  0  0  0  0  0  0
   18.4860   -8.7975   -4.5677 N   0  0  0  0  0  0  0  0  0  0  0  0
   18.7687   -7.6180   -3.9963 N   0  0  0  0  0  0  0  0  0  0  0  0
   20.0907   -7.0072   -4.1007 C   0  0  0  0  0  0  0  0  0  0  0  0
   17.6537   -7.1003   -3.3771 C   0  0  0  0  0  0  0  0  0  0  0  0
   13.8266   -7.9722   -2.8674 N   0  0  0  0  0  0  0  0  0  0  0  0
   12.6628   -6.9973   -2.3837 C   0  0  0  0  0  0  0  0  0  0  0  0
   11.1894   -6.6910   -1.7443 C   0  0  0  0  0  0  0  0  0  0  0  0
    9.8189   -3.4658    3.0457 N   0  0  0  0  0  0  0  0  0  0  0  0
    9.6823   -4.2130    4.1393 N   0  0  0  0  0  0  0  0  0  0  0  0
    3.4855   -6.2008    4.5509 H   0  0  0  0  0  0  0  0  0  0  0  0
    4.5139   -4.9238    5.2386 H   0  0  0  0  0  0  0  0  0  0  0  0
    4.7876   -6.6049    5.6841 H   0  0  0  0  0  0  0  0  0  0  0  0
    5.1343   -5.3812    2.9057 H   0  0  0  0  0  0  0  0  0  0  0  0
    5.3958   -7.0909    3.2363 H   0  0  0  0  0  0  0  0  0  0  0  0
    9.4451   -7.4388    4.2371 H   0  0  0  0  0  0  0  0  0  0  0  0
    9.4062   -6.3086    5.6259 H   0  0  0  0  0  0  0  0  0  0  0  0
    9.3606   -6.4963    1.8356 H   0  0  0  0  0  0  0  0  0  0  0  0
   10.4580   -3.1335    0.4270 H   0  0  0  0  0  0  0  0  0  0  0  0
    8.7876   -3.1142    0.4463 H   0  0  0  0  0  0  0  0  0  0  0  0
    8.7114   -5.1660   -3.0030 H   0  0  0  0  0  0  0  0  0  0  0  0
    6.8270   -5.4646   -6.0212 H   0  0  0  0  0  0  0  0  0  0  0  0
    7.9637   -6.1663   -4.8632 H   0  0  0  0  0  0  0  0  0  0  0  0
    7.7453   -4.3742   -4.9708 H   0  0  0  0  0  0  0  0  0  0  0  0
    4.4860   -5.4028   -2.2582 H   0  0  0  0  0  0  0  0  0  0  0  0
    3.0031   -6.1398    0.9847 H   0  0  0  0  0  0  0  0  0  0  0  0
    3.6944   -6.7579   -0.5129 H   0  0  0  0  0  0  0  0  0  0  0  0
    2.9249   -5.1258   -0.4660 H   0  0  0  0  0  0  0  0  0  0  0  0
    7.1849   -4.7861    0.9908 H   0  0  0  0  0  0  0  0  0  0  0  0
   11.7657   -3.5151   -0.6402 H   0  0  0  0  0  0  0  0  0  0  0  0
   13.6306   -3.8840   -1.7891 H   0  0  0  0  0  0  0  0  0  0  0  0
   15.9642   -5.5218   -3.7957 H   0  0  0  0  0  0  0  0  0  0  0  0
   16.7332   -9.8357   -4.8413 H   0  0  0  0  0  0  0  0  0  0  0  0
   20.7774   -7.6612   -4.6490 H   0  0  0  0  0  0  0  0  0  0  0  0
   20.4902   -6.8365   -3.0948 H   0  0  0  0  0  0  0  0  0  0  0  0
   20.0287   -6.0461   -4.6283 H   0  0  0  0  0  0  0  0  0  0  0  0
   17.7505   -6.1126   -2.9439 H   0  0  0  0  0  0  0  0  0  0  0  0
   10.4605   -7.5124   -1.7462 H   0  0  0  0  0  0  0  0  0  0  0  0
  1  2  1  0  0  0  0
  1 40  1  0  0  0  0
  1 41  1  0  0  0  0
  1 42  1  0  0  0  0
  2  3  1  0  0  0  0
  2 43  1  0  0  0  0
  2 44  1  0  0  0  0
  3  4  1  0  0  0  0
  4  5  2  0  0  0  0
  4  6  1  0  0  0  0
  6  7  1  0  0  0  0
  6 45  1  0  0  0  0
  6 46  1  0  0  0  0
  7  8  1  0  0  0  0
  7 39  1  0  0  0  0
  8  9  2  0  0  0  0
  8 47  1  0  0  0  0
  9 10  1  0  0  0  0
  9 38  1  0  0  0  0
 10 11  1  0  0  0  0
 10 48  1  0  0  0  0
 10 49  1  0  0  0  0
 11 12  1  0  0  0  0
 11 22  1  0  0  0  0
 12 13  1  0  0  0  0
 12 21  2  0  0  0  0
 13 14  2  0  0  0  0
 13 50  1  0  0  0  0
 14 15  1  0  0  0  0
 14 17  1  0  0  0  0
 15 16  1  0  0  0  0
 16 51  1  0  0  0  0
 16 52  1  0  0  0  0
 16 53  1  0  0  0  0
 17 18  2  0  0  0  0
 17 54  1  0  0  0  0
 18 19  1  0  0  0  0
 18 21  1  0  0  0  0
 19 20  1  0  0  0  0
 20 55  1  0  0  0  0
 20 56  1  0  0  0  0
 20 57  1  0  0  0  0
 21 58  1  0  0  0  0
 22 23  1  0  0  0  0
 22 37  2  0  0  0  0
 23 24  2  0  0  0  0
 23 59  1  0  0  0  0
 24 25  1  0  0  0  0
 24 60  1  0  0  0  0
 25 26  1  0  0  0  0
 25 36  2  0  0  0  0
 26 27  2  0  0  0  0
 27 28  1  0  0  0  0
 27 61  1  0  0  0  0
 28 29  1  0  0  0  0
 28 35  2  0  0  0  0
 29 30  1  0  0  0  0
 29 34  2  0  0  0  0
 30 31  2  0  0  0  0
 30 62  1  0  0  0  0
 31 32  1  0  0  0  0
 32 33  1  0  0  0  0
 32 34  1  0  0  0  0
 33 63  1  0  0  0  0
 33 64  1  0  0  0  0
 33 65  1  0  0  0  0
 34 66  1  0  0  0  0
 35 36  1  0  0  0  0
 36 37  1  0  0  0  0
 37 67  1  0  0  0  0
 38 39  2  0  0  0  0
M  END
$$$$
