CHEMBL1257911
 OpenBabel04072215363D

 34 37  0  0  0  0  0  0  0  0999 V2000
    1.0476    0.3118    0.1162 N   0  0  0  0  0  0  0  0  0  0  0  0
    2.4372    0.2473   -0.0233 C   0  0  0  0  0  0  0  0  0  0  0  0
    3.2055    1.3956    0.1393 C   0  0  0  0  0  0  0  0  0  0  0  0
    4.5972    1.3261    0.1152 C   0  0  0  0  0  0  0  0  0  0  0  0
    5.2573    0.0959   -0.0383 C   0  0  0  0  0  0  0  0  0  0  0  0
    4.4914   -1.0855   -0.1111 C   0  0  0  0  0  0  0  0  0  0  0  0
    3.0861   -0.9902   -0.0977 C   0  0  0  0  0  0  0  0  0  0  0  0
    5.1206   -2.4613   -0.1558 C   0  0  0  0  0  0  0  0  0  0  0  0
    4.5249   -3.5536    0.7133 C   0  0  0  0  0  0  0  0  0  0  0  0
    4.0718   -3.2137    2.0025 C   0  0  0  0  0  0  0  0  0  0  0  0
    3.6345   -4.1981    2.8945 C   0  0  0  0  0  0  0  0  0  0  0  0
    3.6697   -5.5389    2.5267 C   0  0  0  0  0  0  0  0  0  0  0  0
    4.1102   -5.8939    1.2534 C   0  0  0  0  0  0  0  0  0  0  0  0
    4.5240   -4.9121    0.3403 C   0  0  0  0  0  0  0  0  0  0  0  0
    4.9536   -5.4878   -1.2358 Cl  0  0  0  0  0  0  0  0  0  0  0  0
    6.1705   -2.8207   -0.8350 N   0  0  0  0  0  0  0  0  0  0  0  0
    6.8900   -1.8865   -1.5652 C   0  0  0  0  0  0  0  0  0  0  0  0
    7.5840   -2.1683   -2.7089 C   0  0  0  0  0  0  0  0  0  0  0  0
    8.2826   -1.0320   -2.9886 N   0  0  0  0  0  0  0  0  0  0  0  0
    8.0974   -0.0392   -2.0971 N   0  0  0  0  0  0  0  0  0  0  0  0
    7.2208   -0.5589   -1.2336 C   0  0  0  0  0  0  0  0  0  0  0  0
    6.6602    0.1254   -0.2118 N   0  0  0  0  0  0  0  0  0  0  0  0
    0.6507    1.2083   -0.1538 H   0  0  0  0  0  0  0  0  0  0  0  0
    0.5488   -0.4630   -0.3102 H   0  0  0  0  0  0  0  0  0  0  0  0
    2.7289    2.3661    0.2584 H   0  0  0  0  0  0  0  0  0  0  0  0
    5.1661    2.2508    0.1793 H   0  0  0  0  0  0  0  0  0  0  0  0
    2.4818   -1.8945   -0.1568 H   0  0  0  0  0  0  0  0  0  0  0  0
    4.0772   -2.1811    2.3437 H   0  0  0  0  0  0  0  0  0  0  0  0
    3.2889   -3.9165    3.8867 H   0  0  0  0  0  0  0  0  0  0  0  0
    3.3589   -6.3087    3.2291 H   0  0  0  0  0  0  0  0  0  0  0  0
    4.1345   -6.9453    0.9738 H   0  0  0  0  0  0  0  0  0  0  0  0
    7.6586   -3.0580   -3.3150 H   0  0  0  0  0  0  0  0  0  0  0  0
    8.9115   -0.8637   -3.7663 H   0  0  0  0  0  0  0  0  0  0  0  0
    7.0505    1.0541   -0.1065 H   0  0  0  0  0  0  0  0  0  0  0  0
  1  2  1  0  0  0  0
  1 23  1  0  0  0  0
  1 24  1  0  0  0  0
  2  3  1  0  0  0  0
  2  7  2  0  0  0  0
  3  4  2  0  0  0  0
  3 25  1  0  0  0  0
  4  5  1  0  0  0  0
  4 26  1  0  0  0  0
  5  6  2  0  0  0  0
  5 22  1  0  0  0  0
  6  7  1  0  0  0  0
  6  8  1  0  0  0  0
  7 27  1  0  0  0  0
  8  9  1  0  0  0  0
  8 16  2  0  0  0  0
  9 10  1  0  0  0  0
  9 14  2  0  0  0  0
 10 11  2  0  0  0  0
 10 28  1  0  0  0  0
 11 12  1  0  0  0  0
 11 29  1  0  0  0  0
 12 13  2  0  0  0  0
 12 30  1  0  0  0  0
 13 14  1  0  0  0  0
 13 31  1  0  0  0  0
 14 15  1  0  0  0  0
 16 17  1  0  0  0  0
 17 18  2  0  0  0  0
 17 21  1  0  0  0  0
 18 19  1  0  0  0  0
 18 32  1  0  0  0  0
 19 20  1  0  0  0  0
 19 33  1  0  0  0  0
 20 21  2  0  0  0  0
 21 22  1  0  0  0  0
 22 34  1  0  0  0  0
M  END
$$$$
