CHEMBL398154
 OpenBabel04072215373D

 67 70  0  0  0  0  0  0  0  0999 V2000
    1.0860   -0.8854    0.7806 C   0  0  0  0  0  0  0  0  0  0  0  0
    2.2495   -0.0802    0.2318 C   0  0  0  0  0  0  0  0  0  0  0  0
    2.8107    0.7340    1.2670 O   0  0  0  0  0  0  0  0  0  0  0  0
    4.1696    0.9299    1.2494 C   0  0  0  0  0  0  0  0  0  0  0  0
    4.7707    0.9518    2.5244 C   0  0  0  0  0  0  0  0  0  0  0  0
    6.1469    1.1039    2.7205 C   0  0  0  0  0  0  0  0  0  0  0  0
    6.6456    1.0996    3.9636 N   0  0  0  0  0  0  0  0  0  0  0  0
    7.9751    1.2127    4.0884 C   0  0  0  0  0  0  0  0  0  0  0  0
    8.8567    1.3706    3.0934 N   0  0  0  0  0  0  0  0  0  0  0  0
    8.3490    1.4475    1.8502 C   0  0  0  0  0  0  0  0  0  0  0  0
    9.2986    1.7901    0.8627 N   0  0  0  0  0  0  0  0  0  0  0  0
    9.0344    2.3837   -0.3542 C   0  0  0  0  0  0  0  0  0  0  0  0
    8.4324    3.5722   -0.4894 C   0  0  0  0  0  0  0  0  0  0  0  0
    7.9771    4.0953   -1.7853 C   0  0  0  0  0  0  0  0  0  0  0  0
    7.4406    5.1972   -1.8431 O   0  0  0  0  0  0  0  0  0  0  0  0
    8.1541    3.2310   -2.9888 C   0  0  0  0  0  0  0  0  0  0  0  0
    7.5874    3.7216   -4.1454 O   0  0  0  0  0  0  0  0  0  0  0  0
    8.0744    3.2116   -5.3848 C   0  0  0  0  0  0  0  0  0  0  0  0
    7.7479    4.1628   -6.5130 C   0  0  0  0  0  0  0  0  0  0  0  0
    7.5721    5.5279   -6.2832 C   0  0  0  0  0  0  0  0  0  0  0  0
    7.3494    6.3742   -7.3643 C   0  0  0  0  0  0  0  0  0  0  0  0
    7.3260    5.8441   -8.6468 C   0  0  0  0  0  0  0  0  0  0  0  0
    7.5212    4.4819   -8.7952 C   0  0  0  0  0  0  0  0  0  0  0  0
    7.7315    3.6349   -7.7634 N   0  0  0  0  0  0  0  0  0  0  0  0
    8.8253    2.0756   -2.8738 C   0  0  0  0  0  0  0  0  0  0  0  0
    9.3770    1.6033   -1.5878 C   0  0  0  0  0  0  0  0  0  0  0  0
   10.0475    0.5777   -1.5311 O   0  0  0  0  0  0  0  0  0  0  0  0
    6.9656    1.2390    1.5988 C   0  0  0  0  0  0  0  0  0  0  0  0
    6.3514    1.1480    0.3226 C   0  0  0  0  0  0  0  0  0  0  0  0
    4.9788    1.0578    0.1219 C   0  0  0  0  0  0  0  0  0  0  0  0
    4.4508    1.1958   -1.1843 N   0  0  0  0  0  0  0  0  0  0  0  0
    5.1268    0.9503   -2.3595 C   0  0  0  0  0  0  0  0  0  0  0  0
    6.2721    0.5304   -2.4710 O   0  0  0  0  0  0  0  0  0  0  0  0
    4.2949    1.1656   -3.5670 C   0  0  0  0  0  0  0  0  0  0  0  0
    4.5921    0.4347   -4.6536 C   0  0  0  0  0  0  0  0  0  0  0  0
    3.9247    0.4719   -5.9924 C   0  0  0  0  0  0  0  0  0  0  0  0
    3.2104    1.7108   -6.3262 N   0  0  0  0  0  0  0  0  0  0  0  0
    4.1496    2.8259   -6.5236 C   0  0  0  0  0  0  0  0  0  0  0  0
    2.4639    1.4989   -7.5732 C   0  0  0  0  0  0  0  0  0  0  0  0
    0.5141   -1.3298   -0.0414 H   0  0  0  0  0  0  0  0  0  0  0  0
    0.4190   -0.2605    1.3808 H   0  0  0  0  0  0  0  0  0  0  0  0
    1.4491   -1.6936    1.4220 H   0  0  0  0  0  0  0  0  0  0  0  0
    1.8535    0.5828   -0.5439 H   0  0  0  0  0  0  0  0  0  0  0  0
    2.9783   -0.7731   -0.2041 H   0  0  0  0  0  0  0  0  0  0  0  0
    4.1366    0.8452    3.4038 H   0  0  0  0  0  0  0  0  0  0  0  0
    8.3788    1.1926    5.0928 H   0  0  0  0  0  0  0  0  0  0  0  0
   10.0936    1.1571    0.8883 H   0  0  0  0  0  0  0  0  0  0  0  0
    8.1883    4.1816    0.3732 H   0  0  0  0  0  0  0  0  0  0  0  0
    7.6121    2.2375   -5.5816 H   0  0  0  0  0  0  0  0  0  0  0  0
    9.1659    3.1098   -5.3578 H   0  0  0  0  0  0  0  0  0  0  0  0
    7.6082    5.9357   -5.2751 H   0  0  0  0  0  0  0  0  0  0  0  0
    7.2058    7.4384   -7.2025 H   0  0  0  0  0  0  0  0  0  0  0  0
    7.1646    6.4781   -9.5103 H   0  0  0  0  0  0  0  0  0  0  0  0
    7.5238    4.0221   -9.7791 H   0  0  0  0  0  0  0  0  0  0  0  0
    8.9506    1.3823   -3.6959 H   0  0  0  0  0  0  0  0  0  0  0  0
    6.9948    1.1488   -0.5374 H   0  0  0  0  0  0  0  0  0  0  0  0
    3.4738    1.4422   -1.2519 H   0  0  0  0  0  0  0  0  0  0  0  0
    3.4972    1.8967   -3.5508 H   0  0  0  0  0  0  0  0  0  0  0  0
    5.4010   -0.2937   -4.5900 H   0  0  0  0  0  0  0  0  0  0  0  0
    3.2168   -0.3682   -5.9918 H   0  0  0  0  0  0  0  0  0  0  0  0
    4.6754    0.2441   -6.7608 H   0  0  0  0  0  0  0  0  0  0  0  0
    4.6604    3.0885   -5.5919 H   0  0  0  0  0  0  0  0  0  0  0  0
    3.6111    3.7277   -6.8365 H   0  0  0  0  0  0  0  0  0  0  0  0
    4.9078    2.5989   -7.2812 H   0  0  0  0  0  0  0  0  0  0  0  0
    1.7329    0.6913   -7.4530 H   0  0  0  0  0  0  0  0  0  0  0  0
    3.1248    1.2408   -8.4099 H   0  0  0  0  0  0  0  0  0  0  0  0
    1.8987    2.3970   -7.8445 H   0  0  0  0  0  0  0  0  0  0  0  0
  1  2  1  0  0  0  0
  1 40  1  0  0  0  0
  1 41  1  0  0  0  0
  1 42  1  0  0  0  0
  2  3  1  0  0  0  0
  2 43  1  0  0  0  0
  2 44  1  0  0  0  0
  3  4  1  0  0  0  0
  4  5  1  0  0  0  0
  4 30  2  0  0  0  0
  5  6  2  0  0  0  0
  5 45  1  0  0  0  0
  6  7  1  0  0  0  0
  6 28  1  0  0  0  0
  7  8  2  0  0  0  0
  8  9  1  0  0  0  0
  8 46  1  0  0  0  0
  9 10  2  0  0  0  0
 10 11  1  0  0  0  0
 10 28  1  0  0  0  0
 11 12  1  0  0  0  0
 11 47  1  0  0  0  0
 12 13  2  0  0  0  0
 12 26  1  0  0  0  0
 13 14  1  0  0  0  0
 13 48  1  0  0  0  0
 14 15  2  0  0  0  0
 14 16  1  0  0  0  0
 16 17  1  0  0  0  0
 16 25  2  0  0  0  0
 17 18  1  0  0  0  0
 18 19  1  0  0  0  0
 18 49  1  0  0  0  0
 18 50  1  0  0  0  0
 19 20  1  0  0  0  0
 19 24  2  0  0  0  0
 20 21  2  0  0  0  0
 20 51  1  0  0  0  0
 21 22  1  0  0  0  0
 21 52  1  0  0  0  0
 22 23  2  0  0  0  0
 22 53  1  0  0  0  0
 23 24  1  0  0  0  0
 23 54  1  0  0  0  0
 25 26  1  0  0  0  0
 25 55  1  0  0  0  0
 26 27  2  0  0  0  0
 28 29  2  0  0  0  0
 29 30  1  0  0  0  0
 29 56  1  0  0  0  0
 30 31  1  0  0  0  0
 31 32  1  0  0  0  0
 31 57  1  0  0  0  0
 32 33  2  0  0  0  0
 32 34  1  0  0  0  0
 34 35  2  0  0  0  0
 34 58  1  0  0  0  0
 35 36  1  0  0  0  0
 35 59  1  0  0  0  0
 36 37  1  0  0  0  0
 36 60  1  0  0  0  0
 36 61  1  0  0  0  0
 37 38  1  0  0  0  0
 37 39  1  0  0  0  0
 38 62  1  0  0  0  0
 38 63  1  0  0  0  0
 38 64  1  0  0  0  0
 39 65  1  0  0  0  0
 39 66  1  0  0  0  0
 39 67  1  0  0  0  0
M  END
$$$$
