CHEMBL2002690
 OpenBabel04072215363D

 41 44  0  0  0  0  0  0  0  0999 V2000
    2.6700    2.6665   -2.0889 O   0  0  0  0  0  0  0  0  0  0  0  0
    2.1922    1.8987   -1.2648 C   0  0  0  0  0  0  0  0  0  0  0  0
    0.8578    1.7916   -0.9388 N   0  0  0  0  0  0  0  0  0  0  0  0
   -0.1429    2.5215   -1.5408 C   0  0  0  0  0  0  0  0  0  0  0  0
   -1.2664    2.7990   -0.9193 N   0  0  0  0  0  0  0  0  0  0  0  0
   -2.0715    3.5638   -1.7652 C   0  0  0  0  0  0  0  0  0  0  0  0
   -3.3213    4.1273   -1.4336 C   0  0  0  0  0  0  0  0  0  0  0  0
   -3.8634    3.9559   -0.1814 O   0  0  0  0  0  0  0  0  0  0  0  0
   -4.0326    4.8876   -2.3612 C   0  0  0  0  0  0  0  0  0  0  0  0
   -3.5079    5.0850   -3.6346 C   0  0  0  0  0  0  0  0  0  0  0  0
   -2.2738    4.5337   -4.0016 C   0  0  0  0  0  0  0  0  0  0  0  0
   -1.5680    3.7826   -3.0462 C   0  0  0  0  0  0  0  0  0  0  0  0
   -0.0408    3.0032   -3.1745 S   0  0  0  0  0  0  0  0  0  0  0  0
    2.9565    0.9880   -0.5327 N   0  0  0  0  0  0  0  0  0  0  0  0
    4.3754    0.9726   -0.6247 C   0  0  0  0  0  0  0  0  0  0  0  0
    5.0619    2.1824   -0.4254 C   0  0  0  0  0  0  0  0  0  0  0  0
    6.4541    2.2235   -0.4040 C   0  0  0  0  0  0  0  0  0  0  0  0
    7.1757    1.0551   -0.5914 C   0  0  0  0  0  0  0  0  0  0  0  0
    6.5021   -0.1475   -0.8198 C   0  0  0  0  0  0  0  0  0  0  0  0
    5.0897   -0.2311   -0.8457 C   0  0  0  0  0  0  0  0  0  0  0  0
    4.4599   -1.5302   -1.2190 C   0  0  0  0  0  0  0  0  0  0  0  0
    4.9987   -2.7571   -0.7849 C   0  0  0  0  0  0  0  0  0  0  0  0
    4.4825   -3.9818   -1.2235 C   0  0  0  0  0  0  0  0  0  0  0  0
    3.3855   -4.0114   -2.0774 C   0  0  0  0  0  0  0  0  0  0  0  0
    2.8155   -2.8183   -2.5050 C   0  0  0  0  0  0  0  0  0  0  0  0
    3.3637   -1.5969   -2.1010 C   0  0  0  0  0  0  0  0  0  0  0  0
    0.6451    1.5115    0.0065 H   0  0  0  0  0  0  0  0  0  0  0  0
   -3.2119    3.4155    0.3054 H   0  0  0  0  0  0  0  0  0  0  0  0
   -4.9862    5.3230   -2.0835 H   0  0  0  0  0  0  0  0  0  0  0  0
   -4.0654    5.6800   -4.3566 H   0  0  0  0  0  0  0  0  0  0  0  0
   -1.8696    4.6937   -4.9968 H   0  0  0  0  0  0  0  0  0  0  0  0
    2.5130    0.0910   -0.3857 H   0  0  0  0  0  0  0  0  0  0  0  0
    4.5136    3.1087   -0.2681 H   0  0  0  0  0  0  0  0  0  0  0  0
    6.9692    3.1666   -0.2444 H   0  0  0  0  0  0  0  0  0  0  0  0
    8.2624    1.0762   -0.5823 H   0  0  0  0  0  0  0  0  0  0  0  0
    7.1089   -1.0294   -1.0181 H   0  0  0  0  0  0  0  0  0  0  0  0
    5.8555   -2.7772   -0.1140 H   0  0  0  0  0  0  0  0  0  0  0  0
    4.9495   -4.9111   -0.9069 H   0  0  0  0  0  0  0  0  0  0  0  0
    2.9870   -4.9613   -2.4237 H   0  0  0  0  0  0  0  0  0  0  0  0
    1.9636   -2.8319   -3.1802 H   0  0  0  0  0  0  0  0  0  0  0  0
    2.9381   -0.6901   -2.5262 H   0  0  0  0  0  0  0  0  0  0  0  0
  1  2  2  0  0  0  0
  2  3  1  0  0  0  0
  2 14  1  0  0  0  0
  3  4  1  0  0  0  0
  3 27  1  0  0  0  0
  4  5  2  0  0  0  0
  4 13  1  0  0  0  0
  5  6  1  0  0  0  0
  6  7  1  0  0  0  0
  6 12  2  0  0  0  0
  7  8  1  0  0  0  0
  7  9  2  0  0  0  0
  8 28  1  0  0  0  0
  9 10  1  0  0  0  0
  9 29  1  0  0  0  0
 10 11  2  0  0  0  0
 10 30  1  0  0  0  0
 11 12  1  0  0  0  0
 11 31  1  0  0  0  0
 12 13  1  0  0  0  0
 14 15  1  0  0  0  0
 14 32  1  0  0  0  0
 15 16  1  0  0  0  0
 15 20  2  0  0  0  0
 16 17  2  0  0  0  0
 16 33  1  0  0  0  0
 17 18  1  0  0  0  0
 17 34  1  0  0  0  0
 18 19  2  0  0  0  0
 18 35  1  0  0  0  0
 19 20  1  0  0  0  0
 19 36  1  0  0  0  0
 20 21  1  0  0  0  0
 21 22  1  0  0  0  0
 21 26  2  0  0  0  0
 22 23  2  0  0  0  0
 22 37  1  0  0  0  0
 23 24  1  0  0  0  0
 23 38  1  0  0  0  0
 24 25  2  0  0  0  0
 24 39  1  0  0  0  0
 25 26  1  0  0  0  0
 25 40  1  0  0  0  0
 26 41  1  0  0  0  0
M  END
$$$$
