CHEMBL2386801
 OpenBabel04072215363D

 68 72  0  0  0  0  0  0  0  0999 V2000
   -0.5039  -10.2655   -4.0662 C   0  0  0  0  0  0  0  0  0  0  0  0
   -0.7812   -8.9724   -3.4216 C   0  0  0  0  0  0  0  0  0  0  0  0
   -0.0156   -7.9681   -2.8788 C   0  0  0  0  0  0  0  0  0  0  0  0
   -0.9590   -7.0554   -2.3511 C   0  0  0  0  0  0  0  0  0  0  0  0
   -0.6466   -5.9097   -1.6483 N   0  0  0  0  0  0  0  0  0  0  0  0
   -1.4948   -5.1465   -0.8991 C   0  0  0  0  0  0  0  0  0  0  0  0
   -1.0714   -4.1479   -0.3204 O   0  0  0  0  0  0  0  0  0  0  0  0
   -2.7738   -5.5899   -0.7702 N   0  0  0  0  0  0  0  0  0  0  0  0
   -3.7490   -4.9068    0.0312 C   0  0  0  0  0  0  0  0  0  0  0  0
   -5.0535   -5.6583    0.0783 C   0  0  0  0  0  0  0  0  0  0  0  0
   -5.2695   -6.6472    1.0419 C   0  0  0  0  0  0  0  0  0  0  0  0
   -6.5022   -7.3055    1.1234 C   0  0  0  0  0  0  0  0  0  0  0  0
   -7.5440   -6.9989    0.2309 C   0  0  0  0  0  0  0  0  0  0  0  0
   -8.8547   -7.6465    0.3526 C   0  0  0  0  0  0  0  0  0  0  0  0
   -9.2550   -8.5992    1.3286 C   0  0  0  0  0  0  0  0  0  0  0  0
  -10.5722   -8.8912    1.0762 C   0  0  0  0  0  0  0  0  0  0  0  0
  -11.4218   -9.7521    1.7622 N   0  0  0  0  0  0  0  0  0  0  0  0
  -11.0039  -10.4924    2.9242 C   0  0  0  0  0  0  0  0  0  0  0  0
   -9.8800  -10.3742    3.3892 O   0  0  0  0  0  0  0  0  0  0  0  0
  -11.9945  -11.3774    3.5672 C   0  0  0  0  0  0  0  0  0  0  0  0
  -13.0580  -11.9369    2.8634 C   0  0  0  0  0  0  0  0  0  0  0  0
  -13.9431  -12.7866    3.5303 C   0  0  0  0  0  0  0  0  0  0  0  0
  -13.7919  -13.1083    4.8908 C   0  0  0  0  0  0  0  0  0  0  0  0
  -14.6570  -14.0085    5.4744 N   0  0  0  0  0  0  0  0  0  0  0  0
  -14.2873  -14.8002    6.6591 C   0  0  0  0  0  0  0  0  0  0  0  0
  -15.0383  -16.1544    6.6100 C   0  0  0  0  0  0  0  0  0  0  0  0
  -16.5077  -15.9943    6.4975 N   0  0  0  0  0  0  0  0  0  0  0  0
  -17.1581  -17.2974    6.3822 C   0  0  0  0  0  0  0  0  0  0  0  0
  -16.8272  -15.1547    5.3205 C   0  0  0  0  0  0  0  0  0  0  0  0
  -16.1105  -13.7880    5.3618 C   0  0  0  0  0  0  0  0  0  0  0  0
  -12.7061  -12.5461    5.5686 C   0  0  0  0  0  0  0  0  0  0  0  0
  -11.8148  -11.6896    4.9190 C   0  0  0  0  0  0  0  0  0  0  0  0
  -10.8929   -8.1329   -0.0169 N   0  0  0  0  0  0  0  0  0  0  0  0
   -9.8836   -7.3764   -0.4721 N   0  0  0  0  0  0  0  0  0  0  0  0
   -7.3031   -6.0432   -0.7639 C   0  0  0  0  0  0  0  0  0  0  0  0
   -6.0700   -5.3861   -0.8462 C   0  0  0  0  0  0  0  0  0  0  0  0
   -2.2061   -7.4628   -2.6134 N   0  0  0  0  0  0  0  0  0  0  0  0
   -2.0930   -8.6573   -3.2839 O   0  0  0  0  0  0  0  0  0  0  0  0
    0.5691  -10.4706   -4.1017 H   0  0  0  0  0  0  0  0  0  0  0  0
   -0.8946  -10.2737   -5.0880 H   0  0  0  0  0  0  0  0  0  0  0  0
   -0.9882  -11.0739   -3.5083 H   0  0  0  0  0  0  0  0  0  0  0  0
    1.0612   -7.9328   -2.8186 H   0  0  0  0  0  0  0  0  0  0  0  0
    0.3196   -5.6204   -1.6077 H   0  0  0  0  0  0  0  0  0  0  0  0
   -3.0913   -6.2793   -1.4467 H   0  0  0  0  0  0  0  0  0  0  0  0
   -3.8949   -3.9009   -0.3777 H   0  0  0  0  0  0  0  0  0  0  0  0
   -3.3433   -4.7832    1.0419 H   0  0  0  0  0  0  0  0  0  0  0  0
   -4.4835   -6.9035    1.7510 H   0  0  0  0  0  0  0  0  0  0  0  0
   -6.6247   -8.0479    1.9086 H   0  0  0  0  0  0  0  0  0  0  0  0
   -8.6360   -8.9930    2.1193 H   0  0  0  0  0  0  0  0  0  0  0  0
  -12.3800   -9.8190    1.4511 H   0  0  0  0  0  0  0  0  0  0  0  0
  -13.1998  -11.7861    1.7989 H   0  0  0  0  0  0  0  0  0  0  0  0
  -14.7369  -13.2618    2.9564 H   0  0  0  0  0  0  0  0  0  0  0  0
  -14.5433  -14.2544    7.5762 H   0  0  0  0  0  0  0  0  0  0  0  0
  -13.2120  -15.0139    6.6784 H   0  0  0  0  0  0  0  0  0  0  0  0
  -14.7963  -16.7193    7.5176 H   0  0  0  0  0  0  0  0  0  0  0  0
  -14.6576  -16.7286    5.7534 H   0  0  0  0  0  0  0  0  0  0  0  0
  -16.9521  -17.9073    7.2682 H   0  0  0  0  0  0  0  0  0  0  0  0
  -16.8269  -17.8510    5.4961 H   0  0  0  0  0  0  0  0  0  0  0  0
  -18.2455  -17.1765    6.3258 H   0  0  0  0  0  0  0  0  0  0  0  0
  -17.9079  -14.9773    5.2754 H   0  0  0  0  0  0  0  0  0  0  0  0
  -16.5375  -15.6721    4.3952 H   0  0  0  0  0  0  0  0  0  0  0  0
  -16.4595  -13.2046    6.2242 H   0  0  0  0  0  0  0  0  0  0  0  0
  -16.3854  -13.2222    4.4652 H   0  0  0  0  0  0  0  0  0  0  0  0
  -12.5381  -12.7601    6.6213 H   0  0  0  0  0  0  0  0  0  0  0  0
  -10.9755  -11.2779    5.4791 H   0  0  0  0  0  0  0  0  0  0  0  0
  -11.7785   -8.0738   -0.5053 H   0  0  0  0  0  0  0  0  0  0  0  0
   -8.0832   -5.7909   -1.4823 H   0  0  0  0  0  0  0  0  0  0  0  0
   -5.9146   -4.6469   -1.6289 H   0  0  0  0  0  0  0  0  0  0  0  0
  1  2  1  0  0  0  0
  1 39  1  0  0  0  0
  1 40  1  0  0  0  0
  1 41  1  0  0  0  0
  2  3  2  0  0  0  0
  2 38  1  0  0  0  0
  3  4  1  0  0  0  0
  3 42  1  0  0  0  0
  4  5  1  0  0  0  0
  4 37  2  0  0  0  0
  5  6  1  0  0  0  0
  5 43  1  0  0  0  0
  6  7  2  0  0  0  0
  6  8  1  0  0  0  0
  8  9  1  0  0  0  0
  8 44  1  0  0  0  0
  9 10  1  0  0  0  0
  9 45  1  0  0  0  0
  9 46  1  0  0  0  0
 10 11  1  0  0  0  0
 10 36  2  0  0  0  0
 11 12  2  0  0  0  0
 11 47  1  0  0  0  0
 12 13  1  0  0  0  0
 12 48  1  0  0  0  0
 13 14  1  0  0  0  0
 13 35  2  0  0  0  0
 14 15  1  0  0  0  0
 14 34  2  0  0  0  0
 15 16  2  0  0  0  0
 15 49  1  0  0  0  0
 16 17  1  0  0  0  0
 16 33  1  0  0  0  0
 17 18  1  0  0  0  0
 17 50  1  0  0  0  0
 18 19  2  0  0  0  0
 18 20  1  0  0  0  0
 20 21  1  0  0  0  0
 20 32  2  0  0  0  0
 21 22  2  0  0  0  0
 21 51  1  0  0  0  0
 22 23  1  0  0  0  0
 22 52  1  0  0  0  0
 23 24  1  0  0  0  0
 23 31  2  0  0  0  0
 24 25  1  0  0  0  0
 24 30  1  0  0  0  0
 25 26  1  0  0  0  0
 25 53  1  0  0  0  0
 25 54  1  0  0  0  0
 26 27  1  0  0  0  0
 26 55  1  0  0  0  0
 26 56  1  0  0  0  0
 27 28  1  0  0  0  0
 27 29  1  0  0  0  0
 28 57  1  0  0  0  0
 28 58  1  0  0  0  0
 28 59  1  0  0  0  0
 29 30  1  0  0  0  0
 29 60  1  0  0  0  0
 29 61  1  0  0  0  0
 30 62  1  0  0  0  0
 30 63  1  0  0  0  0
 31 32  1  0  0  0  0
 31 64  1  0  0  0  0
 32 65  1  0  0  0  0
 33 34  1  0  0  0  0
 33 66  1  0  0  0  0
 35 36  1  0  0  0  0
 35 67  1  0  0  0  0
 36 68  1  0  0  0  0
 37 38  1  0  0  0  0
M  END
$$$$
