CHEMBL2003657
 OpenBabel04072215363D

 49 53  0  0  0  0  0  0  0  0999 V2000
    1.1806   -0.3711    0.1032 C   0  0  0  0  0  0  0  0  0  0  0  0
    2.7102   -0.3810    0.1582 C   0  0  0  0  0  0  0  0  0  0  0  0
    3.1742   -1.3656    1.2233 C   0  0  0  0  0  0  0  0  0  0  0  0
    3.3663   -0.7231   -1.4790 S   0  0  0  0  0  0  0  0  0  0  0  0
    2.8911   -2.0314   -1.9106 O   0  0  0  0  0  0  0  0  0  0  0  0
    3.1350    0.4402   -2.3074 O   0  0  0  0  0  0  0  0  0  0  0  0
    5.0534   -0.8770   -1.3992 N   0  0  0  0  0  0  0  0  0  0  0  0
    5.6872   -2.0406   -1.0215 C   0  0  0  0  0  0  0  0  0  0  0  0
    5.0880   -3.2393   -0.8948 N   0  0  0  0  0  0  0  0  0  0  0  0
    6.9639   -1.8247   -0.8211 N   0  0  0  0  0  0  0  0  0  0  0  0
    7.1745   -0.5098   -1.1440 C   0  0  0  0  0  0  0  0  0  0  0  0
    8.3833    0.1983   -1.1391 C   0  0  0  0  0  0  0  0  0  0  0  0
    8.3997    1.5146   -1.6128 C   0  0  0  0  0  0  0  0  0  0  0  0
    7.2357    2.1337   -2.0959 C   0  0  0  0  0  0  0  0  0  0  0  0
    7.3562    3.4111   -2.8156 C   0  0  0  0  0  0  0  0  0  0  0  0
    6.7179    4.6613   -2.7555 C   0  0  0  0  0  0  0  0  0  0  0  0
    5.6744    5.1313   -1.8545 C   0  0  0  0  0  0  0  0  0  0  0  0
    5.4805    4.6309   -0.5617 C   0  0  0  0  0  0  0  0  0  0  0  0
    4.4623    5.1524    0.2503 C   0  0  0  0  0  0  0  0  0  0  0  0
    3.6550    6.1799   -0.2244 C   0  0  0  0  0  0  0  0  0  0  0  0
    2.6905    6.6722    0.5678 F   0  0  0  0  0  0  0  0  0  0  0  0
    3.8372    6.7080   -1.4887 C   0  0  0  0  0  0  0  0  0  0  0  0
    4.8469    6.1834   -2.3011 C   0  0  0  0  0  0  0  0  0  0  0  0
    7.1539    5.5159   -3.7665 N   0  0  0  0  0  0  0  0  0  0  0  0
    7.9968    4.7946   -4.4355 C   0  0  0  0  0  0  0  0  0  0  0  0
    8.9038    5.0420   -5.8932 S   0  0  0  0  0  0  0  0  0  0  0  0
    9.5005    3.3849   -5.7540 C   0  0  0  0  0  0  0  0  0  0  0  0
    9.0270    2.7460   -4.6697 C   0  0  0  0  0  0  0  0  0  0  0  0
    8.1690    3.5434   -3.9333 N   0  0  0  0  0  0  0  0  0  0  0  0
    5.9966    1.4612   -2.0055 C   0  0  0  0  0  0  0  0  0  0  0  0
    5.9956    0.1279   -1.5377 C   0  0  0  0  0  0  0  0  0  0  0  0
    0.7569   -0.0539    1.0622 H   0  0  0  0  0  0  0  0  0  0  0  0
    0.7849   -1.3682   -0.1229 H   0  0  0  0  0  0  0  0  0  0  0  0
    0.8130    0.3117   -0.6698 H   0  0  0  0  0  0  0  0  0  0  0  0
    3.0628    0.6240    0.4191 H   0  0  0  0  0  0  0  0  0  0  0  0
    2.8631   -2.3896    0.9895 H   0  0  0  0  0  0  0  0  0  0  0  0
    2.7482   -1.1041    2.1990 H   0  0  0  0  0  0  0  0  0  0  0  0
    4.2612   -1.3561    1.3357 H   0  0  0  0  0  0  0  0  0  0  0  0
    4.2100   -3.4072   -1.3995 H   0  0  0  0  0  0  0  0  0  0  0  0
    5.7109   -4.0438   -0.9424 H   0  0  0  0  0  0  0  0  0  0  0  0
    9.2972   -0.2941   -0.8215 H   0  0  0  0  0  0  0  0  0  0  0  0
    9.3565    2.0346   -1.6459 H   0  0  0  0  0  0  0  0  0  0  0  0
    6.1213    3.8545   -0.1593 H   0  0  0  0  0  0  0  0  0  0  0  0
    4.3054    4.7689    1.2534 H   0  0  0  0  0  0  0  0  0  0  0  0
    3.2099    7.5190   -1.8410 H   0  0  0  0  0  0  0  0  0  0  0  0
    4.9918    6.6108   -3.2932 H   0  0  0  0  0  0  0  0  0  0  0  0
   10.1648    2.9633   -6.4965 H   0  0  0  0  0  0  0  0  0  0  0  0
    9.2396    1.7302   -4.3777 H   0  0  0  0  0  0  0  0  0  0  0  0
    5.0893    1.9318   -2.3773 H   0  0  0  0  0  0  0  0  0  0  0  0
  1  2  1  0  0  0  0
  1 32  1  0  0  0  0
  1 33  1  0  0  0  0
  1 34  1  0  0  0  0
  2  3  1  0  0  0  0
  2  4  1  0  0  0  0
  2 35  1  0  0  0  0
  3 36  1  0  0  0  0
  3 37  1  0  0  0  0
  3 38  1  0  0  0  0
  4  5  2  0  0  0  0
  4  6  2  0  0  0  0
  4  7  1  0  0  0  0
  7  8  1  0  0  0  0
  7 31  1  0  0  0  0
  8  9  1  0  0  0  0
  8 10  2  0  0  0  0
  9 39  1  0  0  0  0
  9 40  1  0  0  0  0
 10 11  1  0  0  0  0
 11 12  1  0  0  0  0
 11 31  2  0  0  0  0
 12 13  2  0  0  0  0
 12 41  1  0  0  0  0
 13 14  1  0  0  0  0
 13 42  1  0  0  0  0
 14 15  1  0  0  0  0
 14 30  2  0  0  0  0
 15 16  2  0  0  0  0
 15 29  1  0  0  0  0
 16 17  1  0  0  0  0
 16 24  1  0  0  0  0
 17 18  1  0  0  0  0
 17 23  2  0  0  0  0
 18 19  2  0  0  0  0
 18 43  1  0  0  0  0
 19 20  1  0  0  0  0
 19 44  1  0  0  0  0
 20 21  1  0  0  0  0
 20 22  2  0  0  0  0
 22 23  1  0  0  0  0
 22 45  1  0  0  0  0
 23 46  1  0  0  0  0
 24 25  2  0  0  0  0
 25 26  1  0  0  0  0
 25 29  1  0  0  0  0
 26 27  1  0  0  0  0
 27 28  2  0  0  0  0
 27 47  1  0  0  0  0
 28 29  1  0  0  0  0
 28 48  1  0  0  0  0
 30 31  1  0  0  0  0
 30 49  1  0  0  0  0
M  END
$$$$
