CHEMBL1277162
 OpenBabel04072215363D

 51 54  0  0  0  0  0  0  0  0999 V2000
    9.7666   -2.8152   -4.1798 C   0  0  0  0  0  0  0  0  0  0  0  0
    9.8766   -1.6210   -4.9612 O   0  0  0  0  0  0  0  0  0  0  0  0
    8.8426   -0.7299   -4.8319 C   0  0  0  0  0  0  0  0  0  0  0  0
    8.1231   -0.6294   -3.6296 C   0  0  0  0  0  0  0  0  0  0  0  0
    6.9827    0.1461   -3.5061 C   0  0  0  0  0  0  0  0  0  0  0  0
    6.2972    0.0751   -2.3607 N   0  0  0  0  0  0  0  0  0  0  0  0
    5.1482    0.7531   -2.3028 C   0  0  0  0  0  0  0  0  0  0  0  0
    4.6405    1.5082   -3.2751 N   0  0  0  0  0  0  0  0  0  0  0  0
    5.3905    1.6277   -4.3919 C   0  0  0  0  0  0  0  0  0  0  0  0
    4.9207    2.4531   -5.4220 O   0  0  0  0  0  0  0  0  0  0  0  0
    4.0232    3.4409   -5.0705 C   0  0  0  0  0  0  0  0  0  0  0  0
    4.2080    4.2366   -3.9452 C   0  0  0  0  0  0  0  0  0  0  0  0
    3.2171    5.1320   -3.5451 C   0  0  0  0  0  0  0  0  0  0  0  0
    2.0500    5.3035   -4.2904 C   0  0  0  0  0  0  0  0  0  0  0  0
    0.9815    6.1306   -3.8603 N   0  0  0  0  0  0  0  0  0  0  0  0
    0.9650    6.8829   -2.6958 C   0  0  0  0  0  0  0  0  0  0  0  0
    1.9177    7.0355   -1.9446 O   0  0  0  0  0  0  0  0  0  0  0  0
   -0.2921    7.4134   -2.4259 N   0  0  0  0  0  0  0  0  0  0  0  0
   -0.4830    8.2039   -1.2639 C   0  0  0  0  0  0  0  0  0  0  0  0
    0.4343    9.1996   -0.9042 C   0  0  0  0  0  0  0  0  0  0  0  0
    0.2913    9.8987    0.2944 C   0  0  0  0  0  0  0  0  0  0  0  0
   -0.7720    9.6042    1.1429 C   0  0  0  0  0  0  0  0  0  0  0  0
   -1.7050    8.6323    0.7780 C   0  0  0  0  0  0  0  0  0  0  0  0
   -1.5772    7.9485   -0.4358 C   0  0  0  0  0  0  0  0  0  0  0  0
    1.9231    4.5881   -5.4893 C   0  0  0  0  0  0  0  0  0  0  0  0
    2.9094    3.6604   -5.8769 C   0  0  0  0  0  0  0  0  0  0  0  0
    6.5859    0.9313   -4.5896 C   0  0  0  0  0  0  0  0  0  0  0  0
    7.3778    0.9470   -5.7595 C   0  0  0  0  0  0  0  0  0  0  0  0
    8.4909    0.1041   -5.9004 C   0  0  0  0  0  0  0  0  0  0  0  0
    9.0610    0.2224   -7.1365 O   0  0  0  0  0  0  0  0  0  0  0  0
   10.0761   -0.6821   -7.5388 C   0  0  0  0  0  0  0  0  0  0  0  0
   10.2095   -3.6389   -4.7474 H   0  0  0  0  0  0  0  0  0  0  0  0
    8.7299   -3.1046   -3.9635 H   0  0  0  0  0  0  0  0  0  0  0  0
   10.3289   -2.6985   -3.2476 H   0  0  0  0  0  0  0  0  0  0  0  0
    8.4252   -1.1991   -2.7540 H   0  0  0  0  0  0  0  0  0  0  0  0
    4.5770    0.6825   -1.3841 H   0  0  0  0  0  0  0  0  0  0  0  0
    5.0861    4.1217   -3.3175 H   0  0  0  0  0  0  0  0  0  0  0  0
    3.3989    5.6505   -2.6121 H   0  0  0  0  0  0  0  0  0  0  0  0
    0.1855    6.2181   -4.4730 H   0  0  0  0  0  0  0  0  0  0  0  0
   -1.0655    6.8235   -2.6953 H   0  0  0  0  0  0  0  0  0  0  0  0
    1.2851    9.4246   -1.5432 H   0  0  0  0  0  0  0  0  0  0  0  0
    1.0248   10.6512    0.5718 H   0  0  0  0  0  0  0  0  0  0  0  0
   -0.8640   10.1217    2.0940 H   0  0  0  0  0  0  0  0  0  0  0  0
   -2.5199    8.3889    1.4551 H   0  0  0  0  0  0  0  0  0  0  0  0
   -2.2950    7.1717   -0.6803 H   0  0  0  0  0  0  0  0  0  0  0  0
    1.0464    4.7130   -6.1223 H   0  0  0  0  0  0  0  0  0  0  0  0
    2.7804    3.0876   -6.7949 H   0  0  0  0  0  0  0  0  0  0  0  0
    7.0987    1.5895   -6.5932 H   0  0  0  0  0  0  0  0  0  0  0  0
   10.1839   -0.5786   -8.6243 H   0  0  0  0  0  0  0  0  0  0  0  0
    9.8078   -1.7252   -7.3519 H   0  0  0  0  0  0  0  0  0  0  0  0
   11.0349   -0.4153   -7.0849 H   0  0  0  0  0  0  0  0  0  0  0  0
  1  2  1  0  0  0  0
  1 32  1  0  0  0  0
  1 33  1  0  0  0  0
  1 34  1  0  0  0  0
  2  3  1  0  0  0  0
  3  4  1  0  0  0  0
  3 29  2  0  0  0  0
  4  5  2  0  0  0  0
  4 35  1  0  0  0  0
  5  6  1  0  0  0  0
  5 27  1  0  0  0  0
  6  7  2  0  0  0  0
  7  8  1  0  0  0  0
  7 36  1  0  0  0  0
  8  9  2  0  0  0  0
  9 10  1  0  0  0  0
  9 27  1  0  0  0  0
 10 11  1  0  0  0  0
 11 12  1  0  0  0  0
 11 26  2  0  0  0  0
 12 13  2  0  0  0  0
 12 37  1  0  0  0  0
 13 14  1  0  0  0  0
 13 38  1  0  0  0  0
 14 15  1  0  0  0  0
 14 25  2  0  0  0  0
 15 16  1  0  0  0  0
 15 39  1  0  0  0  0
 16 17  2  0  0  0  0
 16 18  1  0  0  0  0
 18 19  1  0  0  0  0
 18 40  1  0  0  0  0
 19 20  1  0  0  0  0
 19 24  2  0  0  0  0
 20 21  2  0  0  0  0
 20 41  1  0  0  0  0
 21 22  1  0  0  0  0
 21 42  1  0  0  0  0
 22 23  2  0  0  0  0
 22 43  1  0  0  0  0
 23 24  1  0  0  0  0
 23 44  1  0  0  0  0
 24 45  1  0  0  0  0
 25 26  1  0  0  0  0
 25 46  1  0  0  0  0
 26 47  1  0  0  0  0
 27 28  2  0  0  0  0
 28 29  1  0  0  0  0
 28 48  1  0  0  0  0
 29 30  1  0  0  0  0
 30 31  1  0  0  0  0
 31 49  1  0  0  0  0
 31 50  1  0  0  0  0
 31 51  1  0  0  0  0
M  END
$$$$
