CHEMBL4064874
 OpenBabel04072215383D

 74 77  0  0  0  0  0  0  0  0999 V2000
    1.0620   -0.1827   -0.1371 C   0  0  0  0  0  0  0  0  0  0  0  0
    2.5654   -0.1532   -0.1727 C   0  0  0  0  0  0  0  0  0  0  0  0
    3.2034    0.9741   -0.7072 C   0  0  0  0  0  0  0  0  0  0  0  0
    4.5921    1.0217   -0.7924 C   0  0  0  0  0  0  0  0  0  0  0  0
    5.3732   -0.0512   -0.3432 C   0  0  0  0  0  0  0  0  0  0  0  0
    6.8475    0.0923   -0.4749 C   0  0  0  0  0  0  0  0  0  0  0  0
    7.2982    1.2338   -0.3793 O   0  0  0  0  0  0  0  0  0  0  0  0
    7.5706   -1.0492   -0.7902 N   0  0  0  0  0  0  0  0  0  0  0  0
    8.9622   -1.0570   -1.0825 C   0  0  0  0  0  0  0  0  0  0  0  0
    9.8075   -0.0109   -0.7102 C   0  0  0  0  0  0  0  0  0  0  0  0
   11.1357    0.0149   -1.1242 C   0  0  0  0  0  0  0  0  0  0  0  0
   11.6678   -1.0040   -1.9300 C   0  0  0  0  0  0  0  0  0  0  0  0
   13.0873   -0.8367   -2.4278 C   0  0  0  0  0  0  0  0  0  0  0  0
   13.1730   -0.7755   -3.8862 N   0  0  0  0  0  0  0  0  0  0  0  0
   12.4246    0.3297   -4.5027 C   0  0  0  0  0  0  0  0  0  0  0  0
   12.5340    0.2725   -6.0459 C   0  0  0  0  0  0  0  0  0  0  0  0
   13.9149    0.2756   -6.5694 N   0  0  0  0  0  0  0  0  0  0  0  0
   14.5308    1.5918   -6.4286 C   0  0  0  0  0  0  0  0  0  0  0  0
   14.6956   -0.7692   -5.8751 C   0  0  0  0  0  0  0  0  0  0  0  0
   14.5762   -0.7583   -4.3327 C   0  0  0  0  0  0  0  0  0  0  0  0
   10.8479   -2.1038   -2.2685 C   0  0  0  0  0  0  0  0  0  0  0  0
   11.2950   -3.2547   -3.1562 C   0  0  0  0  0  0  0  0  0  0  0  0
   12.5824   -3.2539   -3.5905 F   0  0  0  0  0  0  0  0  0  0  0  0
   11.1606   -4.4531   -2.5118 F   0  0  0  0  0  0  0  0  0  0  0  0
   10.5231   -3.3632   -4.2722 F   0  0  0  0  0  0  0  0  0  0  0  0
    9.5055   -2.1197   -1.8104 C   0  0  0  0  0  0  0  0  0  0  0  0
    4.7530   -1.1686    0.2245 C   0  0  0  0  0  0  0  0  0  0  0  0
    3.3513   -1.2273    0.3021 C   0  0  0  0  0  0  0  0  0  0  0  0
    2.7388   -2.4020    0.8518 C   0  0  0  0  0  0  0  0  0  0  0  0
    2.2078   -3.3882    1.2876 C   0  0  0  0  0  0  0  0  0  0  0  0
    1.5530   -4.5608    1.7892 C   0  0  0  0  0  0  0  0  0  0  0  0
    0.1795   -4.7091    1.6880 C   0  0  0  0  0  0  0  0  0  0  0  0
   -0.4977   -5.7834    2.1438 N   0  0  0  0  0  0  0  0  0  0  0  0
    0.2485   -6.7808    2.6857 C   0  0  0  0  0  0  0  0  0  0  0  0
    1.6413   -6.7686    2.7881 C   0  0  0  0  0  0  0  0  0  0  0  0
    2.4310   -7.8278    3.2298 N   0  0  0  0  0  0  0  0  0  0  0  0
    2.0060   -9.2203    3.0880 C   0  0  0  0  0  0  0  0  0  0  0  0
    1.8735   -9.5703    1.6019 C   0  0  0  0  0  0  0  0  0  0  0  0
    3.0745  -10.1243    3.7096 C   0  0  0  0  0  0  0  0  0  0  0  0
    2.2828   -5.5987    2.3654 C   0  0  0  0  0  0  0  0  0  0  0  0
    0.6362    0.7522   -0.5191 H   0  0  0  0  0  0  0  0  0  0  0  0
    0.7010   -0.3107    0.8875 H   0  0  0  0  0  0  0  0  0  0  0  0
    0.6866   -0.9943   -0.7681 H   0  0  0  0  0  0  0  0  0  0  0  0
    2.6258    1.8230   -1.0670 H   0  0  0  0  0  0  0  0  0  0  0  0
    5.0686    1.9061   -1.2159 H   0  0  0  0  0  0  0  0  0  0  0  0
    7.0517   -1.8766   -1.0443 H   0  0  0  0  0  0  0  0  0  0  0  0
    9.4584    0.8154   -0.0983 H   0  0  0  0  0  0  0  0  0  0  0  0
   11.7438    0.8736   -0.8409 H   0  0  0  0  0  0  0  0  0  0  0  0
   13.6566   -1.6947   -2.0478 H   0  0  0  0  0  0  0  0  0  0  0  0
   13.5507    0.0526   -1.9797 H   0  0  0  0  0  0  0  0  0  0  0  0
   12.7798    1.2977   -4.1302 H   0  0  0  0  0  0  0  0  0  0  0  0
   11.3597    0.2585   -4.2560 H   0  0  0  0  0  0  0  0  0  0  0  0
   11.9600    1.0970   -6.4860 H   0  0  0  0  0  0  0  0  0  0  0  0
   12.0416   -0.6455   -6.3962 H   0  0  0  0  0  0  0  0  0  0  0  0
   13.9406    2.3461   -6.9596 H   0  0  0  0  0  0  0  0  0  0  0  0
   15.5265    1.5955   -6.8859 H   0  0  0  0  0  0  0  0  0  0  0  0
   14.6352    1.9142   -5.3875 H   0  0  0  0  0  0  0  0  0  0  0  0
   15.7531   -0.7046   -6.1609 H   0  0  0  0  0  0  0  0  0  0  0  0
   14.3523   -1.7462   -6.2408 H   0  0  0  0  0  0  0  0  0  0  0  0
   15.0965    0.1197   -3.9283 H   0  0  0  0  0  0  0  0  0  0  0  0
   15.0957   -1.6450   -3.9487 H   0  0  0  0  0  0  0  0  0  0  0  0
    8.8724   -2.9671   -2.0836 H   0  0  0  0  0  0  0  0  0  0  0  0
    5.3490   -1.9812    0.6326 H   0  0  0  0  0  0  0  0  0  0  0  0
   -0.4387   -3.9457    1.2140 H   0  0  0  0  0  0  0  0  0  0  0  0
   -0.3371   -7.6220    3.0431 H   0  0  0  0  0  0  0  0  0  0  0  0
    2.9712   -7.6080    4.0642 H   0  0  0  0  0  0  0  0  0  0  0  0
    1.0578   -9.3994    3.6079 H   0  0  0  0  0  0  0  0  0  0  0  0
    2.8126   -9.3763    1.0702 H   0  0  0  0  0  0  0  0  0  0  0  0
    1.0951   -8.9774    1.1120 H   0  0  0  0  0  0  0  0  0  0  0  0
    1.6171  -10.6257    1.4675 H   0  0  0  0  0  0  0  0  0  0  0  0
    4.0527   -9.9587    3.2434 H   0  0  0  0  0  0  0  0  0  0  0  0
    2.8147  -11.1808    3.5825 H   0  0  0  0  0  0  0  0  0  0  0  0
    3.1816   -9.9284    4.7810 H   0  0  0  0  0  0  0  0  0  0  0  0
    3.3638   -5.5327    2.4305 H   0  0  0  0  0  0  0  0  0  0  0  0
  1  2  1  0  0  0  0
  1 41  1  0  0  0  0
  1 42  1  0  0  0  0
  1 43  1  0  0  0  0
  2  3  1  0  0  0  0
  2 28  2  0  0  0  0
  3  4  2  0  0  0  0
  3 44  1  0  0  0  0
  4  5  1  0  0  0  0
  4 45  1  0  0  0  0
  5  6  1  0  0  0  0
  5 27  2  0  0  0  0
  6  7  2  0  0  0  0
  6  8  1  0  0  0  0
  8  9  1  0  0  0  0
  8 46  1  0  0  0  0
  9 10  1  0  0  0  0
  9 26  2  0  0  0  0
 10 11  2  0  0  0  0
 10 47  1  0  0  0  0
 11 12  1  0  0  0  0
 11 48  1  0  0  0  0
 12 13  1  0  0  0  0
 12 21  2  0  0  0  0
 13 14  1  0  0  0  0
 13 49  1  0  0  0  0
 13 50  1  0  0  0  0
 14 15  1  0  0  0  0
 14 20  1  0  0  0  0
 15 16  1  0  0  0  0
 15 51  1  0  0  0  0
 15 52  1  0  0  0  0
 16 17  1  0  0  0  0
 16 53  1  0  0  0  0
 16 54  1  0  0  0  0
 17 18  1  0  0  0  0
 17 19  1  0  0  0  0
 18 55  1  0  0  0  0
 18 56  1  0  0  0  0
 18 57  1  0  0  0  0
 19 20  1  0  0  0  0
 19 58  1  0  0  0  0
 19 59  1  0  0  0  0
 20 60  1  0  0  0  0
 20 61  1  0  0  0  0
 21 22  1  0  0  0  0
 21 26  1  0  0  0  0
 22 23  1  0  0  0  0
 22 24  1  0  0  0  0
 22 25  1  0  0  0  0
 26 62  1  0  0  0  0
 27 28  1  0  0  0  0
 27 63  1  0  0  0  0
 28 29  1  0  0  0  0
 29 30  3  0  0  0  0
 30 31  1  0  0  0  0
 31 32  1  0  0  0  0
 31 40  2  0  0  0  0
 32 33  2  0  0  0  0
 32 64  1  0  0  0  0
 33 34  1  0  0  0  0
 34 35  2  0  0  0  0
 34 65  1  0  0  0  0
 35 36  1  0  0  0  0
 35 40  1  0  0  0  0
 36 37  1  0  0  0  0
 36 66  1  0  0  0  0
 37 38  1  0  0  0  0
 37 39  1  0  0  0  0
 37 67  1  0  0  0  0
 38 68  1  0  0  0  0
 38 69  1  0  0  0  0
 38 70  1  0  0  0  0
 39 71  1  0  0  0  0
 39 72  1  0  0  0  0
 39 73  1  0  0  0  0
 40 74  1  0  0  0  0
M  END
$$$$
