CHEMBL4796639
 OpenBabel04072215383D

 64 66  0  0  0  0  0  0  0  0999 V2000
    4.7283    2.0479   -1.4910 C   0  0  0  0  0  0  0  0  0  0  0  0
    4.3956    0.5594   -1.5220 C   0  0  0  0  0  0  0  0  0  0  0  0
    4.8387   -0.2010   -0.3391 N   0  0  0  0  0  0  0  0  0  0  0  0
    4.3299    0.3448    0.9365 C   0  0  0  0  0  0  0  0  0  0  0  0
    2.8167    0.3077    1.1542 C   0  0  0  0  0  0  0  0  0  0  0  0
    4.5117   -1.6416   -0.4715 C   0  0  0  0  0  0  0  0  0  0  0  0
    5.1117   -2.3592   -1.7002 C   0  0  0  0  0  0  0  0  0  0  0  0
    6.5608   -2.3400   -1.7566 N   0  0  0  0  0  0  0  0  0  0  0  0
    7.2187   -2.9510   -2.8075 C   0  0  0  0  0  0  0  0  0  0  0  0
    6.5978   -3.4928   -3.7201 O   0  0  0  0  0  0  0  0  0  0  0  0
    8.6909   -2.8891   -2.7946 C   0  0  0  0  0  0  0  0  0  0  0  0
    9.5438   -2.8427   -1.6927 C   0  0  0  0  0  0  0  0  0  0  0  0
    9.3033   -2.8573   -0.2239 C   0  0  0  0  0  0  0  0  0  0  0  0
   10.8410   -2.8826   -2.1619 N   0  0  0  0  0  0  0  0  0  0  0  0
   10.8622   -2.9932   -3.5272 C   0  0  0  0  0  0  0  0  0  0  0  0
   12.1138   -3.1061   -4.1883 C   0  0  0  0  0  0  0  0  0  0  0  0
   12.7143   -4.2835   -4.4313 C   0  0  0  0  0  0  0  0  0  0  0  0
   12.2268   -5.6506   -4.0066 C   0  0  0  0  0  0  0  0  0  0  0  0
   11.2828   -5.9430   -3.2973 O   0  0  0  0  0  0  0  0  0  0  0  0
   13.1209   -6.5422   -4.5646 N   0  0  0  0  0  0  0  0  0  0  0  0
   14.1410   -5.8902   -5.2385 C   0  0  0  0  0  0  0  0  0  0  0  0
   15.2129   -6.4916   -5.8721 C   0  0  0  0  0  0  0  0  0  0  0  0
   16.1623   -5.6554   -6.4620 C   0  0  0  0  0  0  0  0  0  0  0  0
   16.0372   -4.2437   -6.4023 C   0  0  0  0  0  0  0  0  0  0  0  0
   17.1224   -3.4095   -7.0556 C   0  0  0  0  0  0  0  0  0  0  0  0
   17.3694   -2.0550   -6.3882 C   0  0  0  0  0  0  0  0  0  0  0  0
   18.4900   -1.3691   -7.0456 N   0  0  0  0  0  0  0  0  0  0  0  0
   18.7336   -0.2336   -6.5955 N   0  3  0  0  0  0  0  0  0  0  0  0
   18.9380    0.8030   -6.1690 N   0  5  0  0  0  0  0  0  0  0  0  0
   14.9031   -3.6737   -5.7785 C   0  0  0  0  0  0  0  0  0  0  0  0
   13.9664   -4.5086   -5.1870 C   0  0  0  0  0  0  0  0  0  0  0  0
    9.5470   -2.9821   -3.9620 C   0  0  0  0  0  0  0  0  0  0  0  0
    9.0825   -3.0986   -5.3742 C   0  0  0  0  0  0  0  0  0  0  0  0
    4.5824    2.4761   -2.4888 H   0  0  0  0  0  0  0  0  0  0  0  0
    5.7720    2.2172   -1.2070 H   0  0  0  0  0  0  0  0  0  0  0  0
    4.0796    2.5958   -0.8012 H   0  0  0  0  0  0  0  0  0  0  0  0
    4.9081    0.1677   -2.4062 H   0  0  0  0  0  0  0  0  0  0  0  0
    3.3206    0.4324   -1.6967 H   0  0  0  0  0  0  0  0  0  0  0  0
    4.6752    1.3786    1.0535 H   0  0  0  0  0  0  0  0  0  0  0  0
    4.8075   -0.1935    1.7658 H   0  0  0  0  0  0  0  0  0  0  0  0
    2.2604    0.6914    0.2947 H   0  0  0  0  0  0  0  0  0  0  0  0
    2.5500    0.9296    2.0161 H   0  0  0  0  0  0  0  0  0  0  0  0
    2.4701   -0.7089    1.3659 H   0  0  0  0  0  0  0  0  0  0  0  0
    3.4236   -1.7796   -0.5081 H   0  0  0  0  0  0  0  0  0  0  0  0
    4.8726   -2.1638    0.4242 H   0  0  0  0  0  0  0  0  0  0  0  0
    4.7235   -1.9411   -2.6350 H   0  0  0  0  0  0  0  0  0  0  0  0
    4.7987   -3.4104   -1.6842 H   0  0  0  0  0  0  0  0  0  0  0  0
    7.0579   -1.6509   -1.2082 H   0  0  0  0  0  0  0  0  0  0  0  0
    8.2489   -2.9678    0.0349 H   0  0  0  0  0  0  0  0  0  0  0  0
    9.6699   -1.9313    0.2307 H   0  0  0  0  0  0  0  0  0  0  0  0
    9.8308   -3.6992    0.2377 H   0  0  0  0  0  0  0  0  0  0  0  0
   11.6607   -2.9103   -1.5710 H   0  0  0  0  0  0  0  0  0  0  0  0
   12.5516   -2.1841   -4.5630 H   0  0  0  0  0  0  0  0  0  0  0  0
   13.0374   -7.5378   -4.4334 H   0  0  0  0  0  0  0  0  0  0  0  0
   15.3227   -7.5694   -5.9110 H   0  0  0  0  0  0  0  0  0  0  0  0
   17.0152   -6.1057   -6.9645 H   0  0  0  0  0  0  0  0  0  0  0  0
   16.8692   -3.2689   -8.1140 H   0  0  0  0  0  0  0  0  0  0  0  0
   18.0666   -3.9720   -7.0348 H   0  0  0  0  0  0  0  0  0  0  0  0
   17.5992   -2.2006   -5.3251 H   0  0  0  0  0  0  0  0  0  0  0  0
   16.4751   -1.4261   -6.4627 H   0  0  0  0  0  0  0  0  0  0  0  0
   14.7566   -2.6019   -5.7463 H   0  0  0  0  0  0  0  0  0  0  0  0
    9.9227   -3.1315   -6.0750 H   0  0  0  0  0  0  0  0  0  0  0  0
    8.4590   -2.2396   -5.6416 H   0  0  0  0  0  0  0  0  0  0  0  0
    8.5003   -4.0147   -5.5130 H   0  0  0  0  0  0  0  0  0  0  0  0
  1  2  1  0  0  0  0
  1 34  1  0  0  0  0
  1 35  1  0  0  0  0
  1 36  1  0  0  0  0
  2  3  1  0  0  0  0
  2 37  1  0  0  0  0
  2 38  1  0  0  0  0
  3  4  1  0  0  0  0
  3  6  1  0  0  0  0
  4  5  1  0  0  0  0
  4 39  1  0  0  0  0
  4 40  1  0  0  0  0
  5 41  1  0  0  0  0
  5 42  1  0  0  0  0
  5 43  1  0  0  0  0
  6  7  1  0  0  0  0
  6 44  1  0  0  0  0
  6 45  1  0  0  0  0
  7  8  1  0  0  0  0
  7 46  1  0  0  0  0
  7 47  1  0  0  0  0
  8  9  1  0  0  0  0
  8 48  1  0  0  0  0
  9 10  2  0  0  0  0
  9 11  1  0  0  0  0
 11 12  2  0  0  0  0
 11 32  1  0  0  0  0
 12 13  1  0  0  0  0
 12 14  1  0  0  0  0
 13 49  1  0  0  0  0
 13 50  1  0  0  0  0
 13 51  1  0  0  0  0
 14 15  1  0  0  0  0
 14 52  1  0  0  0  0
 15 16  1  0  0  0  0
 15 32  2  0  0  0  0
 16 17  2  0  0  0  0
 16 53  1  0  0  0  0
 17 18  1  0  0  0  0
 17 31  1  0  0  0  0
 18 19  2  0  0  0  0
 18 20  1  0  0  0  0
 20 21  1  0  0  0  0
 20 54  1  0  0  0  0
 21 22  1  0  0  0  0
 21 31  2  0  0  0  0
 22 23  2  0  0  0  0
 22 55  1  0  0  0  0
 23 24  1  0  0  0  0
 23 56  1  0  0  0  0
 24 25  1  0  0  0  0
 24 30  2  0  0  0  0
 25 26  1  0  0  0  0
 25 57  1  0  0  0  0
 25 58  1  0  0  0  0
 26 27  1  0  0  0  0
 26 59  1  0  0  0  0
 26 60  1  0  0  0  0
 27 28  2  0  0  0  0
 28 29  2  0  0  0  0
 30 31  1  0  0  0  0
 30 61  1  0  0  0  0
 32 33  1  0  0  0  0
 33 62  1  0  0  0  0
 33 63  1  0  0  0  0
 33 64  1  0  0  0  0
M  CHG  2  28   1  29  -1
M  END
$$$$
