CHEMBL2007266
 OpenBabel04072215363D

 64 68  0  0  0  0  0  0  0  0999 V2000
    2.8431   -0.0551   -0.5235 C   0  0  0  0  0  0  0  0  0  0  0  0
    1.4416   -0.0339    0.0165 C   0  0  0  0  0  0  0  0  0  0  0  0
    0.9557   -1.1785    0.6582 C   0  0  0  0  0  0  0  0  0  0  0  0
   -0.3259   -1.1800    1.1870 C   0  0  0  0  0  0  0  0  0  0  0  0
   -1.1322   -0.0461    1.0752 C   0  0  0  0  0  0  0  0  0  0  0  0
   -2.2991   -0.1183    1.7241 F   0  0  0  0  0  0  0  0  0  0  0  0
   -0.7038    1.1196    0.4103 C   0  0  0  0  0  0  0  0  0  0  0  0
   -1.4956    2.3044    0.2391 N   0  0  0  0  0  0  0  0  0  0  0  0
   -2.8883    2.3603    0.3492 C   0  0  0  0  0  0  0  0  0  0  0  0
   -3.6102    1.4211    0.5759 O   0  0  0  0  0  0  0  0  0  0  0  0
   -3.4071    3.6398    0.0867 N   0  0  0  0  0  0  0  0  0  0  0  0
   -4.8208    3.8012    0.1321 C   0  0  0  0  0  0  0  0  0  0  0  0
   -5.5328    3.5087    1.3000 C   0  0  0  0  0  0  0  0  0  0  0  0
   -6.9301    3.5926    1.3442 C   0  0  0  0  0  0  0  0  0  0  0  0
   -7.6606    3.9641    0.2146 C   0  0  0  0  0  0  0  0  0  0  0  0
   -9.1352    4.0119    0.2422 C   0  0  0  0  0  0  0  0  0  0  0  0
   -9.8587    4.3208    1.4108 C   0  0  0  0  0  0  0  0  0  0  0  0
  -11.2523    4.4541    1.4084 C   0  0  0  0  0  0  0  0  0  0  0  0
  -11.9918    4.3648    0.2236 C   0  0  0  0  0  0  0  0  0  0  0  0
  -13.3501    4.4862    0.1229 O   0  0  0  0  0  0  0  0  0  0  0  0
  -13.9611    5.3410    1.0922 C   0  0  0  0  0  0  0  0  0  0  0  0
  -15.4681    5.3861    0.8601 C   0  0  0  0  0  0  0  0  0  0  0  0
  -16.1368    6.3029    1.8811 C   0  0  0  0  0  0  0  0  0  0  0  0
  -17.5750    6.3723    1.6958 N   0  0  0  0  0  0  0  0  0  0  0  0
  -18.4888    5.5415    2.2871 C   0  0  0  0  0  0  0  0  0  0  0  0
  -19.7417    5.9153    1.8521 C   0  0  0  0  0  0  0  0  0  0  0  0
  -19.5751    7.0178    0.9803 C   0  0  0  0  0  0  0  0  0  0  0  0
  -18.2255    7.2853    0.9086 C   0  0  0  0  0  0  0  0  0  0  0  0
  -11.2564    4.0592   -0.9276 C   0  0  0  0  0  0  0  0  0  0  0  0
  -11.6119    4.0146   -2.2486 N   0  0  0  0  0  0  0  0  0  0  0  0
  -10.7001    3.4307   -3.0447 N   0  0  0  0  0  0  0  0  0  0  0  0
   -9.6618    3.2528   -2.2375 C   0  0  0  0  0  0  0  0  0  0  0  0
   -8.5382    2.6348   -2.6223 N   0  0  0  0  0  0  0  0  0  0  0  0
   -9.8929    3.7830   -0.9324 C   0  0  0  0  0  0  0  0  0  0  0  0
   -6.9255    4.3104   -0.9409 C   0  0  0  0  0  0  0  0  0  0  0  0
   -5.5250    4.2225   -0.9928 C   0  0  0  0  0  0  0  0  0  0  0  0
    0.6111    1.1098   -0.1023 C   0  0  0  0  0  0  0  0  0  0  0  0
    3.3338   -1.0164   -0.3244 H   0  0  0  0  0  0  0  0  0  0  0  0
    3.4500    0.7196   -0.0434 H   0  0  0  0  0  0  0  0  0  0  0  0
    2.8443    0.0889   -1.6081 H   0  0  0  0  0  0  0  0  0  0  0  0
    1.5711   -2.0700    0.7586 H   0  0  0  0  0  0  0  0  0  0  0  0
   -0.7174   -2.0521    1.6995 H   0  0  0  0  0  0  0  0  0  0  0  0
   -1.0126    3.1441   -0.0309 H   0  0  0  0  0  0  0  0  0  0  0  0
   -2.9181    4.1638   -0.6225 H   0  0  0  0  0  0  0  0  0  0  0  0
   -5.0047    3.1911    2.1965 H   0  0  0  0  0  0  0  0  0  0  0  0
   -7.4351    3.3282    2.2665 H   0  0  0  0  0  0  0  0  0  0  0  0
   -9.3296    4.4704    2.3509 H   0  0  0  0  0  0  0  0  0  0  0  0
  -11.7302    4.6560    2.3608 H   0  0  0  0  0  0  0  0  0  0  0  0
  -13.5453    6.3499    0.9867 H   0  0  0  0  0  0  0  0  0  0  0  0
  -13.7846    4.9687    2.1077 H   0  0  0  0  0  0  0  0  0  0  0  0
  -15.8842    4.3717    0.9259 H   0  0  0  0  0  0  0  0  0  0  0  0
  -15.6809    5.7255   -0.1613 H   0  0  0  0  0  0  0  0  0  0  0  0
  -15.7469    7.3250    1.8037 H   0  0  0  0  0  0  0  0  0  0  0  0
  -15.9528    5.9578    2.9053 H   0  0  0  0  0  0  0  0  0  0  0  0
  -18.1812    4.7497    2.9577 H   0  0  0  0  0  0  0  0  0  0  0  0
  -20.6745    5.4438    2.1324 H   0  0  0  0  0  0  0  0  0  0  0  0
  -20.3552    7.5587    0.4608 H   0  0  0  0  0  0  0  0  0  0  0  0
  -17.6834    8.0424    0.3573 H   0  0  0  0  0  0  0  0  0  0  0  0
  -12.4553    4.3826   -2.6689 H   0  0  0  0  0  0  0  0  0  0  0  0
   -8.4356    2.2799   -3.5612 H   0  0  0  0  0  0  0  0  0  0  0  0
   -7.7569    2.4637   -2.0048 H   0  0  0  0  0  0  0  0  0  0  0  0
   -7.4492    4.5868   -1.8487 H   0  0  0  0  0  0  0  0  0  0  0  0
   -5.0282    4.4219   -1.9370 H   0  0  0  0  0  0  0  0  0  0  0  0
    1.0059    1.9849   -0.6166 H   0  0  0  0  0  0  0  0  0  0  0  0
  1  2  1  0  0  0  0
  1 38  1  0  0  0  0
  1 39  1  0  0  0  0
  1 40  1  0  0  0  0
  2  3  1  0  0  0  0
  2 37  2  0  0  0  0
  3  4  2  0  0  0  0
  3 41  1  0  0  0  0
  4  5  1  0  0  0  0
  4 42  1  0  0  0  0
  5  6  1  0  0  0  0
  5  7  2  0  0  0  0
  7  8  1  0  0  0  0
  7 37  1  0  0  0  0
  8  9  1  0  0  0  0
  8 43  1  0  0  0  0
  9 10  2  0  0  0  0
  9 11  1  0  0  0  0
 11 12  1  0  0  0  0
 11 44  1  0  0  0  0
 12 13  1  0  0  0  0
 12 36  2  0  0  0  0
 13 14  2  0  0  0  0
 13 45  1  0  0  0  0
 14 15  1  0  0  0  0
 14 46  1  0  0  0  0
 15 16  1  0  0  0  0
 15 35  2  0  0  0  0
 16 17  1  0  0  0  0
 16 34  2  0  0  0  0
 17 18  2  0  0  0  0
 17 47  1  0  0  0  0
 18 19  1  0  0  0  0
 18 48  1  0  0  0  0
 19 20  1  0  0  0  0
 19 29  2  0  0  0  0
 20 21  1  0  0  0  0
 21 22  1  0  0  0  0
 21 49  1  0  0  0  0
 21 50  1  0  0  0  0
 22 23  1  0  0  0  0
 22 51  1  0  0  0  0
 22 52  1  0  0  0  0
 23 24  1  0  0  0  0
 23 53  1  0  0  0  0
 23 54  1  0  0  0  0
 24 25  1  0  0  0  0
 24 28  1  0  0  0  0
 25 26  2  0  0  0  0
 25 55  1  0  0  0  0
 26 27  1  0  0  0  0
 26 56  1  0  0  0  0
 27 28  2  0  0  0  0
 27 57  1  0  0  0  0
 28 58  1  0  0  0  0
 29 30  1  0  0  0  0
 29 34  1  0  0  0  0
 30 31  1  0  0  0  0
 30 59  1  0  0  0  0
 31 32  2  0  0  0  0
 32 33  1  0  0  0  0
 32 34  1  0  0  0  0
 33 60  1  0  0  0  0
 33 61  1  0  0  0  0
 35 36  1  0  0  0  0
 35 62  1  0  0  0  0
 36 63  1  0  0  0  0
 37 64  1  0  0  0  0
M  END
$$$$
