CHEMBL4533153
 OpenBabel04072215383D

 76 80  0  0  0  0  0  0  0  0999 V2000
    2.7161   -1.2611    0.0619 C   0  0  0  0  0  0  0  0  0  0  0  0
    2.5360    0.1057    0.4267 O   0  0  0  0  0  0  0  0  0  0  0  0
    3.2845    1.0757   -0.1792 C   0  0  0  0  0  0  0  0  0  0  0  0
    4.5050    0.7687   -0.7599 C   0  0  0  0  0  0  0  0  0  0  0  0
    5.1856    1.6729   -1.5853 C   0  0  0  0  0  0  0  0  0  0  0  0
    6.2789    1.2841   -2.3890 C   0  0  0  0  0  0  0  0  0  0  0  0
    6.7662   -0.0145   -2.4791 O   0  0  0  0  0  0  0  0  0  0  0  0
    5.9239   -1.0639   -2.8077 C   0  0  0  0  0  0  0  0  0  0  0  0
    4.6484   -0.9104   -3.3352 C   0  0  0  0  0  0  0  0  0  0  0  0
    3.8294   -2.0208   -3.5464 C   0  0  0  0  0  0  0  0  0  0  0  0
    4.2671   -3.3318   -3.3155 C   0  0  0  0  0  0  0  0  0  0  0  0
    3.4287   -4.4553   -3.5748 N   0  0  0  0  0  0  0  0  0  0  0  0
    2.0617   -4.3560   -3.7722 C   0  0  0  0  0  0  0  0  0  0  0  0
    1.4166   -3.3350   -3.6456 O   0  0  0  0  0  0  0  0  0  0  0  0
    1.3977   -5.5197   -4.1617 N   0  0  0  0  0  0  0  0  0  0  0  0
   -0.2802   -5.5474   -4.2871 S   0  0  0  0  0  0  0  0  0  0  0  0
   -0.5790   -6.8955   -4.7373 O   0  0  0  0  0  0  0  0  0  0  0  0
   -0.8245   -5.0508   -3.0430 O   0  0  0  0  0  0  0  0  0  0  0  0
   -0.6184   -4.4014   -5.6551 C   0  0  0  0  0  0  0  0  0  0  0  0
   -2.1106   -4.2328   -5.8316 C   0  0  0  0  0  0  0  0  0  0  0  0
   -2.7952   -3.2165   -5.1422 C   0  0  0  0  0  0  0  0  0  0  0  0
   -4.1699   -3.0473   -5.3082 C   0  0  0  0  0  0  0  0  0  0  0  0
   -4.8656   -3.8920   -6.1579 C   0  0  0  0  0  0  0  0  0  0  0  0
   -6.1843   -3.7314   -6.3229 F   0  0  0  0  0  0  0  0  0  0  0  0
   -4.2107   -4.8987   -6.8615 C   0  0  0  0  0  0  0  0  0  0  0  0
   -2.8338   -5.0681   -6.6979 C   0  0  0  0  0  0  0  0  0  0  0  0
    5.5681   -3.4997   -2.8368 C   0  0  0  0  0  0  0  0  0  0  0  0
    6.3725   -2.3708   -2.5703 C   0  0  0  0  0  0  0  0  0  0  0  0
    7.5956   -2.5693   -2.0542 F   0  0  0  0  0  0  0  0  0  0  0  0
    6.9723    2.2523   -3.1041 C   0  0  0  0  0  0  0  0  0  0  0  0
    6.5143    3.5542   -3.0407 C   0  0  0  0  0  0  0  0  0  0  0  0
    5.4130    3.9388   -2.3556 N   0  0  0  0  0  0  0  0  0  0  0  0
    4.7489    3.0106   -1.6442 C   0  0  0  0  0  0  0  0  0  0  0  0
    3.6022    3.3582   -0.9340 C   0  0  0  0  0  0  0  0  0  0  0  0
    2.8544    2.4126   -0.2093 C   0  0  0  0  0  0  0  0  0  0  0  0
    1.7560    2.9545    0.4267 O   0  0  0  0  0  0  0  0  0  0  0  0
    1.0581    2.0524    1.2764 C   0  0  0  0  0  0  0  0  0  0  0  0
   -0.0337    2.7334    2.0815 C   0  0  0  0  0  0  0  0  0  0  0  0
   -0.7580    1.6359    2.8790 C   0  0  0  0  0  0  0  0  0  0  0  0
   -1.8282    2.1380    3.7458 N   0  0  0  0  0  0  0  0  0  0  0  0
   -2.4365    1.0384    4.5181 C   0  0  0  0  0  0  0  0  0  0  0  0
   -3.5581    0.5071    3.6479 C   0  0  0  0  0  0  0  0  0  0  0  0
   -4.0786    1.7443    2.9471 C   0  0  0  0  0  0  0  0  0  0  0  0
   -2.9321    2.7455    2.9884 C   0  0  0  0  0  0  0  0  0  0  0  0
    3.1583   -1.7923    0.9090 H   0  0  0  0  0  0  0  0  0  0  0  0
    3.3249   -1.4308   -0.8253 H   0  0  0  0  0  0  0  0  0  0  0  0
    1.7350   -1.6956   -0.1509 H   0  0  0  0  0  0  0  0  0  0  0  0
    4.9352   -0.2113   -0.6005 H   0  0  0  0  0  0  0  0  0  0  0  0
    4.2191    0.0657   -3.5423 H   0  0  0  0  0  0  0  0  0  0  0  0
    2.8313   -1.7926   -3.8986 H   0  0  0  0  0  0  0  0  0  0  0  0
    3.8477   -5.3723   -3.5664 H   0  0  0  0  0  0  0  0  0  0  0  0
    1.8422   -6.4199   -4.3011 H   0  0  0  0  0  0  0  0  0  0  0  0
   -0.1596   -4.8131   -6.5597 H   0  0  0  0  0  0  0  0  0  0  0  0
   -0.1668   -3.4299   -5.4463 H   0  0  0  0  0  0  0  0  0  0  0  0
   -2.2620   -2.5462   -4.4682 H   0  0  0  0  0  0  0  0  0  0  0  0
   -4.7036   -2.2650   -4.7784 H   0  0  0  0  0  0  0  0  0  0  0  0
   -4.7795   -5.5412   -7.5259 H   0  0  0  0  0  0  0  0  0  0  0  0
   -2.3359   -5.8574   -7.2564 H   0  0  0  0  0  0  0  0  0  0  0  0
    5.9776   -4.4826   -2.6189 H   0  0  0  0  0  0  0  0  0  0  0  0
    7.8485    1.9996   -3.6896 H   0  0  0  0  0  0  0  0  0  0  0  0
    7.0391    4.3578   -3.5511 H   0  0  0  0  0  0  0  0  0  0  0  0
    3.2712    4.3949   -0.9555 H   0  0  0  0  0  0  0  0  0  0  0  0
    1.7530    1.6046    1.9967 H   0  0  0  0  0  0  0  0  0  0  0  0
    0.5733    1.2957    0.6485 H   0  0  0  0  0  0  0  0  0  0  0  0
   -0.6973    3.2630    1.3921 H   0  0  0  0  0  0  0  0  0  0  0  0
    0.3965    3.4907    2.7470 H   0  0  0  0  0  0  0  0  0  0  0  0
   -0.0083    1.1400    3.5116 H   0  0  0  0  0  0  0  0  0  0  0  0
   -1.1364    0.8705    2.1882 H   0  0  0  0  0  0  0  0  0  0  0  0
   -2.8506    1.4515    5.4460 H   0  0  0  0  0  0  0  0  0  0  0  0
   -1.7281    0.2532    4.8056 H   0  0  0  0  0  0  0  0  0  0  0  0
   -4.3385    0.0066    4.2280 H   0  0  0  0  0  0  0  0  0  0  0  0
   -3.1738   -0.2103    2.9104 H   0  0  0  0  0  0  0  0  0  0  0  0
   -4.9449    2.1506    3.4801 H   0  0  0  0  0  0  0  0  0  0  0  0
   -4.3844    1.5182    1.9206 H   0  0  0  0  0  0  0  0  0  0  0  0
   -3.2486    3.6565    3.5085 H   0  0  0  0  0  0  0  0  0  0  0  0
   -2.6678    3.0493    1.9721 H   0  0  0  0  0  0  0  0  0  0  0  0
  1  2  1  0  0  0  0
  1 45  1  0  0  0  0
  1 46  1  0  0  0  0
  1 47  1  0  0  0  0
  2  3  1  0  0  0  0
  3  4  1  0  0  0  0
  3 35  2  0  0  0  0
  4  5  2  0  0  0  0
  4 48  1  0  0  0  0
  5  6  1  0  0  0  0
  5 33  1  0  0  0  0
  6  7  1  0  0  0  0
  6 30  2  0  0  0  0
  7  8  1  0  0  0  0
  8  9  1  0  0  0  0
  8 28  2  0  0  0  0
  9 10  2  0  0  0  0
  9 49  1  0  0  0  0
 10 11  1  0  0  0  0
 10 50  1  0  0  0  0
 11 12  1  0  0  0  0
 11 27  2  0  0  0  0
 12 13  1  0  0  0  0
 12 51  1  0  0  0  0
 13 14  2  0  0  0  0
 13 15  1  0  0  0  0
 15 16  1  0  0  0  0
 15 52  1  0  0  0  0
 16 17  2  0  0  0  0
 16 18  2  0  0  0  0
 16 19  1  0  0  0  0
 19 20  1  0  0  0  0
 19 53  1  0  0  0  0
 19 54  1  0  0  0  0
 20 21  1  0  0  0  0
 20 26  2  0  0  0  0
 21 22  2  0  0  0  0
 21 55  1  0  0  0  0
 22 23  1  0  0  0  0
 22 56  1  0  0  0  0
 23 24  1  0  0  0  0
 23 25  2  0  0  0  0
 25 26  1  0  0  0  0
 25 57  1  0  0  0  0
 26 58  1  0  0  0  0
 27 28  1  0  0  0  0
 27 59  1  0  0  0  0
 28 29  1  0  0  0  0
 30 31  1  0  0  0  0
 30 60  1  0  0  0  0
 31 32  2  0  0  0  0
 31 61  1  0  0  0  0
 32 33  1  0  0  0  0
 33 34  2  0  0  0  0
 34 35  1  0  0  0  0
 34 62  1  0  0  0  0
 35 36  1  0  0  0  0
 36 37  1  0  0  0  0
 37 38  1  0  0  0  0
 37 63  1  0  0  0  0
 37 64  1  0  0  0  0
 38 39  1  0  0  0  0
 38 65  1  0  0  0  0
 38 66  1  0  0  0  0
 39 40  1  0  0  0  0
 39 67  1  0  0  0  0
 39 68  1  0  0  0  0
 40 41  1  0  0  0  0
 40 44  1  0  0  0  0
 41 42  1  0  0  0  0
 41 69  1  0  0  0  0
 41 70  1  0  0  0  0
 42 43  1  0  0  0  0
 42 71  1  0  0  0  0
 42 72  1  0  0  0  0
 43 44  1  0  0  0  0
 43 73  1  0  0  0  0
 43 74  1  0  0  0  0
 44 75  1  0  0  0  0
 44 76  1  0  0  0  0
M  END
$$$$
