CHEMBL3818283
 OpenBabel04072215373D

 37 40  0  0  0  0  0  0  0  0999 V2000
    1.6159   -0.3885   -2.5952 F   0  0  0  0  0  0  0  0  0  0  0  0
    0.4250   -0.2708   -1.9937 C   0  0  0  0  0  0  0  0  0  0  0  0
    0.0561    0.9464   -1.4428 C   0  0  0  0  0  0  0  0  0  0  0  0
   -1.1942    1.0709   -0.8340 C   0  0  0  0  0  0  0  0  0  0  0  0
   -2.0858   -0.0135   -0.7853 C   0  0  0  0  0  0  0  0  0  0  0  0
   -3.3550    0.0855   -0.1821 N   0  0  0  0  0  0  0  0  0  0  0  0
   -4.1309    1.2479   -0.1096 C   0  0  0  0  0  0  0  0  0  0  0  0
   -4.9186    1.4013    0.9604 N   0  0  0  0  0  0  0  0  0  0  0  0
   -5.6176    2.5501    1.0263 C   0  0  0  0  0  0  0  0  0  0  0  0
   -5.5491    3.5452    0.0787 C   0  0  0  0  0  0  0  0  0  0  0  0
   -4.7454    3.2887   -1.0075 C   0  0  0  0  0  0  0  0  0  0  0  0
   -4.6543    4.2431   -2.0485 N   0  0  0  0  0  0  0  0  0  0  0  0
   -4.1960    3.9408   -3.3570 C   0  0  0  0  0  0  0  0  0  0  0  0
   -4.6330    2.7748   -4.0089 C   0  0  0  0  0  0  0  0  0  0  0  0
   -4.2036    2.4248   -5.2920 C   0  0  0  0  0  0  0  0  0  0  0  0
   -3.3104    3.2968   -5.9113 C   0  0  0  0  0  0  0  0  0  0  0  0
   -2.6898    3.2441   -7.1318 N   0  0  0  0  0  0  0  0  0  0  0  0
   -1.8841    4.2912   -7.3826 N   0  0  0  0  0  0  0  0  0  0  0  0
   -1.9874    5.0303   -6.2760 C   0  0  0  0  0  0  0  0  0  0  0  0
   -2.8643    4.4710   -5.3175 C   0  0  0  0  0  0  0  0  0  0  0  0
   -3.3209    4.8120   -4.0280 C   0  0  0  0  0  0  0  0  0  0  0  0
   -4.0473    2.1485   -1.0970 N   0  0  0  0  0  0  0  0  0  0  0  0
   -1.6702   -1.2451   -1.3085 C   0  0  0  0  0  0  0  0  0  0  0  0
   -0.4229   -1.3702   -1.9277 C   0  0  0  0  0  0  0  0  0  0  0  0
    0.7306    1.7942   -1.4947 H   0  0  0  0  0  0  0  0  0  0  0  0
   -1.4719    2.0321   -0.4089 H   0  0  0  0  0  0  0  0  0  0  0  0
   -3.4212   -0.3871    0.7107 H   0  0  0  0  0  0  0  0  0  0  0  0
   -6.2611    2.6502    1.8960 H   0  0  0  0  0  0  0  0  0  0  0  0
   -6.1295    4.4522    0.1652 H   0  0  0  0  0  0  0  0  0  0  0  0
   -4.2789    5.1140   -1.6908 H   0  0  0  0  0  0  0  0  0  0  0  0
   -5.3242    2.1047   -3.4985 H   0  0  0  0  0  0  0  0  0  0  0  0
   -4.5464    1.5113   -5.7645 H   0  0  0  0  0  0  0  0  0  0  0  0
   -2.7721    2.5181   -7.8336 H   0  0  0  0  0  0  0  0  0  0  0  0
   -1.4186    5.9486   -6.2068 H   0  0  0  0  0  0  0  0  0  0  0  0
   -2.9666    5.7236   -3.5580 H   0  0  0  0  0  0  0  0  0  0  0  0
   -2.3371   -2.1029   -1.2754 H   0  0  0  0  0  0  0  0  0  0  0  0
   -0.1138   -2.3120   -2.3683 H   0  0  0  0  0  0  0  0  0  0  0  0
  1  2  1  0  0  0  0
  2  3  1  0  0  0  0
  2 24  2  0  0  0  0
  3  4  2  0  0  0  0
  3 25  1  0  0  0  0
  4  5  1  0  0  0  0
  4 26  1  0  0  0  0
  5  6  1  0  0  0  0
  5 23  2  0  0  0  0
  6  7  1  0  0  0  0
  6 27  1  0  0  0  0
  7  8  1  0  0  0  0
  7 22  2  0  0  0  0
  8  9  2  0  0  0  0
  9 10  1  0  0  0  0
  9 28  1  0  0  0  0
 10 11  2  0  0  0  0
 10 29  1  0  0  0  0
 11 12  1  0  0  0  0
 11 22  1  0  0  0  0
 12 13  1  0  0  0  0
 12 30  1  0  0  0  0
 13 14  1  0  0  0  0
 13 21  2  0  0  0  0
 14 15  2  0  0  0  0
 14 31  1  0  0  0  0
 15 16  1  0  0  0  0
 15 32  1  0  0  0  0
 16 17  1  0  0  0  0
 16 20  2  0  0  0  0
 17 18  1  0  0  0  0
 17 33  1  0  0  0  0
 18 19  2  0  0  0  0
 19 20  1  0  0  0  0
 19 34  1  0  0  0  0
 20 21  1  0  0  0  0
 21 35  1  0  0  0  0
 23 24  1  0  0  0  0
 23 36  1  0  0  0  0
 24 37  1  0  0  0  0
M  END
$$$$
