CHEMBL3287318
 OpenBabel04072215363D

 70 74  0  0  0  0  0  0  0  0999 V2000
   18.5221   -6.2932   -2.1741 C   0  0  0  0  0  0  0  0  0  0  0  0
   16.9029   -6.3354   -1.4406 S   0  0  0  0  0  0  0  0  0  0  0  0
   15.9693   -5.9111   -2.4756 O   0  0  0  0  0  0  0  0  0  0  0  0
   16.7890   -7.6518   -0.8340 O   0  0  0  0  0  0  0  0  0  0  0  0
   16.9323   -5.1043   -0.1292 C   0  0  0  0  0  0  0  0  0  0  0  0
   15.5890   -5.1077    0.5558 C   0  0  0  0  0  0  0  0  0  0  0  0
   15.3458   -6.0036    1.6072 C   0  0  0  0  0  0  0  0  0  0  0  0
   14.0920   -6.0638    2.2028 C   0  0  0  0  0  0  0  0  0  0  0  0
   13.0831   -5.2076    1.7735 C   0  0  0  0  0  0  0  0  0  0  0  0
   13.3079   -4.2635    0.7606 C   0  0  0  0  0  0  0  0  0  0  0  0
   12.3108   -3.3455    0.3773 N   0  0  0  0  0  0  0  0  0  0  0  0
   11.3251   -2.8405    1.2286 C   0  0  0  0  0  0  0  0  0  0  0  0
   10.1601   -2.4331    0.7123 N   0  0  0  0  0  0  0  0  0  0  0  0
    9.2501   -1.9453    1.5857 C   0  0  0  0  0  0  0  0  0  0  0  0
    9.4677   -1.8141    2.9375 C   0  0  0  0  0  0  0  0  0  0  0  0
   10.7072   -2.2105    3.3547 C   0  0  0  0  0  0  0  0  0  0  0  0
   11.0591   -2.0148    4.6849 O   0  0  0  0  0  0  0  0  0  0  0  0
   12.4087   -1.8940    4.9455 C   0  0  0  0  0  0  0  0  0  0  0  0
   13.2652   -1.1258    4.1513 C   0  0  0  0  0  0  0  0  0  0  0  0
   14.6385   -1.0915    4.4038 C   0  0  0  0  0  0  0  0  0  0  0  0
   15.1732   -1.7659    5.5022 C   0  0  0  0  0  0  0  0  0  0  0  0
   16.5525   -1.7766    5.8061 N   0  0  0  0  0  0  0  0  0  0  0  0
   17.5489   -1.0563    5.1757 C   0  0  0  0  0  0  0  0  0  0  0  0
   17.4263   -0.2671    4.2498 O   0  0  0  0  0  0  0  0  0  0  0  0
   18.9318   -1.3664    5.6695 C   0  0  0  0  0  0  0  0  0  0  0  0
   19.7620   -2.3420    4.8787 C   0  0  0  0  0  0  0  0  0  0  0  0
   20.9683   -2.4243    5.0910 O   0  0  0  0  0  0  0  0  0  0  0  0
   19.0766   -3.1205    3.9614 N   0  0  0  0  0  0  0  0  0  0  0  0
   19.7925   -4.0622    3.2103 C   0  0  0  0  0  0  0  0  0  0  0  0
   20.5390   -5.0726    3.8193 C   0  0  0  0  0  0  0  0  0  0  0  0
   21.2750   -5.9625    3.0375 C   0  0  0  0  0  0  0  0  0  0  0  0
   21.3173   -5.7989    1.6529 C   0  0  0  0  0  0  0  0  0  0  0  0
   20.6105   -4.7494    1.0504 C   0  0  0  0  0  0  0  0  0  0  0  0
   20.7141   -4.4350   -0.4100 C   0  0  0  0  0  0  0  0  0  0  0  0
   21.2140   -5.4495   -1.1618 F   0  0  0  0  0  0  0  0  0  0  0  0
   19.4816   -4.1572   -0.9209 F   0  0  0  0  0  0  0  0  0  0  0  0
   21.4663   -3.3400   -0.6824 F   0  0  0  0  0  0  0  0  0  0  0  0
   19.7973   -3.9215    1.8337 C   0  0  0  0  0  0  0  0  0  0  0  0
   19.2186   -1.3624    7.1724 C   0  0  0  0  0  0  0  0  0  0  0  0
   19.6653   -0.2006    6.3396 C   0  0  0  0  0  0  0  0  0  0  0  0
   14.3076   -2.4842    6.3366 C   0  0  0  0  0  0  0  0  0  0  0  0
   12.9376   -2.5432    6.0561 C   0  0  0  0  0  0  0  0  0  0  0  0
   12.1376   -3.2393    6.8822 F   0  0  0  0  0  0  0  0  0  0  0  0
   11.6119   -2.7524    2.5308 N   0  0  0  0  0  0  0  0  0  0  0  0
   14.5600   -4.2446    0.1344 C   0  0  0  0  0  0  0  0  0  0  0  0
   18.5500   -7.0010   -3.0038 H   0  0  0  0  0  0  0  0  0  0  0  0
   19.2502   -6.6034   -1.4226 H   0  0  0  0  0  0  0  0  0  0  0  0
   18.7264   -5.2969   -2.5677 H   0  0  0  0  0  0  0  0  0  0  0  0
   17.1496   -4.1200   -0.5525 H   0  0  0  0  0  0  0  0  0  0  0  0
   17.7160   -5.3752    0.5831 H   0  0  0  0  0  0  0  0  0  0  0  0
   16.1232   -6.6819    1.9530 H   0  0  0  0  0  0  0  0  0  0  0  0
   13.8916   -6.7755    2.9980 H   0  0  0  0  0  0  0  0  0  0  0  0
   12.1091   -5.2791    2.2521 H   0  0  0  0  0  0  0  0  0  0  0  0
   11.9551   -3.4542   -0.5620 H   0  0  0  0  0  0  0  0  0  0  0  0
    8.3073   -1.6382    1.1413 H   0  0  0  0  0  0  0  0  0  0  0  0
    8.7321   -1.4033    3.6118 H   0  0  0  0  0  0  0  0  0  0  0  0
   12.8864   -0.5984    3.2798 H   0  0  0  0  0  0  0  0  0  0  0  0
   15.2539   -0.5365    3.7073 H   0  0  0  0  0  0  0  0  0  0  0  0
   16.8395   -2.3916    6.5582 H   0  0  0  0  0  0  0  0  0  0  0  0
   18.2981   -2.6603    3.4983 H   0  0  0  0  0  0  0  0  0  0  0  0
   20.5511   -5.1738    4.9019 H   0  0  0  0  0  0  0  0  0  0  0  0
   21.8383   -6.7618    3.5139 H   0  0  0  0  0  0  0  0  0  0  0  0
   21.9179   -6.4815    1.0538 H   0  0  0  0  0  0  0  0  0  0  0  0
   19.2381   -3.1130    1.3657 H   0  0  0  0  0  0  0  0  0  0  0  0
   19.9858   -2.0436    7.5324 H   0  0  0  0  0  0  0  0  0  0  0  0
   18.4089   -1.2047    7.8713 H   0  0  0  0  0  0  0  0  0  0  0  0
   20.7240   -0.0836    6.1299 H   0  0  0  0  0  0  0  0  0  0  0  0
   19.1407    0.7413    6.4542 H   0  0  0  0  0  0  0  0  0  0  0  0
   14.6750   -3.0137    7.2113 H   0  0  0  0  0  0  0  0  0  0  0  0
   14.7439   -3.5302   -0.6659 H   0  0  0  0  0  0  0  0  0  0  0  0
  1  2  1  0  0  0  0
  1 46  1  0  0  0  0
  1 47  1  0  0  0  0
  1 48  1  0  0  0  0
  2  3  2  0  0  0  0
  2  4  2  0  0  0  0
  2  5  1  0  0  0  0
  5  6  1  0  0  0  0
  5 49  1  0  0  0  0
  5 50  1  0  0  0  0
  6  7  1  0  0  0  0
  6 45  2  0  0  0  0
  7  8  2  0  0  0  0
  7 51  1  0  0  0  0
  8  9  1  0  0  0  0
  8 52  1  0  0  0  0
  9 10  2  0  0  0  0
  9 53  1  0  0  0  0
 10 11  1  0  0  0  0
 10 45  1  0  0  0  0
 11 12  1  0  0  0  0
 11 54  1  0  0  0  0
 12 13  1  0  0  0  0
 12 44  2  0  0  0  0
 13 14  2  0  0  0  0
 14 15  1  0  0  0  0
 14 55  1  0  0  0  0
 15 16  2  0  0  0  0
 15 56  1  0  0  0  0
 16 17  1  0  0  0  0
 16 44  1  0  0  0  0
 17 18  1  0  0  0  0
 18 19  1  0  0  0  0
 18 42  2  0  0  0  0
 19 20  2  0  0  0  0
 19 57  1  0  0  0  0
 20 21  1  0  0  0  0
 20 58  1  0  0  0  0
 21 22  1  0  0  0  0
 21 41  2  0  0  0  0
 22 23  1  0  0  0  0
 22 59  1  0  0  0  0
 23 24  2  0  0  0  0
 23 25  1  0  0  0  0
 25 26  1  0  0  0  0
 25 39  1  0  0  0  0
 25 40  1  0  0  0  0
 26 27  2  0  0  0  0
 26 28  1  0  0  0  0
 28 29  1  0  0  0  0
 28 60  1  0  0  0  0
 29 30  1  0  0  0  0
 29 38  2  0  0  0  0
 30 31  2  0  0  0  0
 30 61  1  0  0  0  0
 31 32  1  0  0  0  0
 31 62  1  0  0  0  0
 32 33  2  0  0  0  0
 32 63  1  0  0  0  0
 33 34  1  0  0  0  0
 33 38  1  0  0  0  0
 34 35  1  0  0  0  0
 34 36  1  0  0  0  0
 34 37  1  0  0  0  0
 38 64  1  0  0  0  0
 39 40  1  0  0  0  0
 39 65  1  0  0  0  0
 39 66  1  0  0  0  0
 40 67  1  0  0  0  0
 40 68  1  0  0  0  0
 41 42  1  0  0  0  0
 41 69  1  0  0  0  0
 42 43  1  0  0  0  0
 45 70  1  0  0  0  0
M  END
$$$$
