CHEMBL596807
 OpenBabel04072215383D

 37 40  0  0  0  0  0  0  0  0999 V2000
    1.2535   -0.5458    0.5808 O   0  0  0  0  0  0  0  0  0  0  0  0
    2.3969   -0.2487    0.2341 C   0  0  0  0  0  0  0  0  0  0  0  0
    3.0874   -0.9587   -0.9074 C   0  0  0  0  0  0  0  0  0  0  0  0
    4.3343   -1.6178   -0.4397 C   0  0  0  0  0  0  0  0  0  0  0  0
    4.4728   -2.9870   -0.3694 C   0  0  0  0  0  0  0  0  0  0  0  0
    5.5663   -3.6029    0.1085 N   0  0  0  0  0  0  0  0  0  0  0  0
    6.5809   -2.8181    0.4910 C   0  0  0  0  0  0  0  0  0  0  0  0
    7.7015   -3.4601    1.0054 N   0  0  0  0  0  0  0  0  0  0  0  0
    9.0199   -2.9998    1.0759 C   0  0  0  0  0  0  0  0  0  0  0  0
    9.8624   -3.4511    2.0992 C   0  0  0  0  0  0  0  0  0  0  0  0
   11.1476   -2.9181    2.2532 C   0  0  0  0  0  0  0  0  0  0  0  0
   11.6026   -1.9388    1.3730 C   0  0  0  0  0  0  0  0  0  0  0  0
   13.1690   -1.2586    1.5747 Cl  0  0  0  0  0  0  0  0  0  0  0  0
   10.7910   -1.4960    0.3361 C   0  0  0  0  0  0  0  0  0  0  0  0
    9.5060   -2.0207    0.1989 C   0  0  0  0  0  0  0  0  0  0  0  0
    6.5402   -1.4722    0.4331 N   0  0  0  0  0  0  0  0  0  0  0  0
    5.4079   -0.8783    0.0003 C   0  0  0  0  0  0  0  0  0  0  0  0
    5.3938    0.6017    0.0311 C   0  0  0  0  0  0  0  0  0  0  0  0
    6.5442    1.3126   -0.3692 C   0  0  0  0  0  0  0  0  0  0  0  0
    6.5868    2.7096   -0.3527 C   0  0  0  0  0  0  0  0  0  0  0  0
    5.5005    3.4310    0.1256 C   0  0  0  0  0  0  0  0  0  0  0  0
    4.3668    2.7564    0.5699 C   0  0  0  0  0  0  0  0  0  0  0  0
    4.2831    1.3583    0.4747 C   0  0  0  0  0  0  0  0  0  0  0  0
    3.0327    0.8108    0.8241 N   0  0  0  0  0  0  0  0  0  0  0  0
    3.3026   -0.2399   -1.7087 H   0  0  0  0  0  0  0  0  0  0  0  0
    2.3935   -1.6893   -1.3359 H   0  0  0  0  0  0  0  0  0  0  0  0
    3.6774   -3.6532   -0.6948 H   0  0  0  0  0  0  0  0  0  0  0  0
    7.5423   -4.4534    1.1258 H   0  0  0  0  0  0  0  0  0  0  0  0
    9.5077   -4.1904    2.8145 H   0  0  0  0  0  0  0  0  0  0  0  0
   11.7774   -3.2558    3.0718 H   0  0  0  0  0  0  0  0  0  0  0  0
   11.1355   -0.7378   -0.3605 H   0  0  0  0  0  0  0  0  0  0  0  0
    8.8813   -1.6604   -0.6159 H   0  0  0  0  0  0  0  0  0  0  0  0
    7.4237    0.7684   -0.7116 H   0  0  0  0  0  0  0  0  0  0  0  0
    7.4728    3.2310   -0.7067 H   0  0  0  0  0  0  0  0  0  0  0  0
    5.5275    4.5178    0.1397 H   0  0  0  0  0  0  0  0  0  0  0  0
    3.5209    3.3398    0.9273 H   0  0  0  0  0  0  0  0  0  0  0  0
    2.4179    1.3546    1.4193 H   0  0  0  0  0  0  0  0  0  0  0  0
  1  2  2  0  0  0  0
  2  3  1  0  0  0  0
  2 24  1  0  0  0  0
  3  4  1  0  0  0  0
  3 25  1  0  0  0  0
  3 26  1  0  0  0  0
  4  5  1  0  0  0  0
  4 17  2  0  0  0  0
  5  6  2  0  0  0  0
  5 27  1  0  0  0  0
  6  7  1  0  0  0  0
  7  8  1  0  0  0  0
  7 16  2  0  0  0  0
  8  9  1  0  0  0  0
  8 28  1  0  0  0  0
  9 10  1  0  0  0  0
  9 15  2  0  0  0  0
 10 11  2  0  0  0  0
 10 29  1  0  0  0  0
 11 12  1  0  0  0  0
 11 30  1  0  0  0  0
 12 13  1  0  0  0  0
 12 14  2  0  0  0  0
 14 15  1  0  0  0  0
 14 31  1  0  0  0  0
 15 32  1  0  0  0  0
 16 17  1  0  0  0  0
 17 18  1  0  0  0  0
 18 19  1  0  0  0  0
 18 23  2  0  0  0  0
 19 20  2  0  0  0  0
 19 33  1  0  0  0  0
 20 21  1  0  0  0  0
 20 34  1  0  0  0  0
 21 22  2  0  0  0  0
 21 35  1  0  0  0  0
 22 23  1  0  0  0  0
 22 36  1  0  0  0  0
 23 24  1  0  0  0  0
 24 37  1  0  0  0  0
M  END
$$$$
