CHEMBL3967011
 OpenBabel04072215373D

 64 68  0  0  0  0  0  0  0  0999 V2000
    0.8476   -3.6495    2.2660 C   0  0  0  0  0  0  0  0  0  0  0  0
    2.2224   -3.5804    2.6489 O   0  0  0  0  0  0  0  0  0  0  0  0
    3.0543   -2.8125    1.8716 C   0  0  0  0  0  0  0  0  0  0  0  0
    2.6530   -2.1543    0.7053 C   0  0  0  0  0  0  0  0  0  0  0  0
    3.5506   -1.3319    0.0320 C   0  0  0  0  0  0  0  0  0  0  0  0
    3.2676   -0.5904   -1.0850 O   0  0  0  0  0  0  0  0  0  0  0  0
    1.9833   -0.7665   -1.6717 C   0  0  0  0  0  0  0  0  0  0  0  0
    4.8630   -1.1868    0.5194 C   0  0  0  0  0  0  0  0  0  0  0  0
    5.3204   -1.8473    1.6757 C   0  0  0  0  0  0  0  0  0  0  0  0
    6.5807   -1.5484    2.2580 N   0  0  0  0  0  0  0  0  0  0  0  0
    7.0319   -0.0971    2.1897 C   0  0  0  0  0  0  0  0  0  0  0  0
    6.0496    1.0552    2.5467 C   0  0  0  0  0  0  0  0  0  0  0  0
    5.7228    1.3609    4.0288 C   0  0  0  0  0  0  0  0  0  0  0  0
    5.0043    2.6577    4.1047 N   0  0  0  0  0  0  0  0  0  0  0  0
    4.5771    3.0173    5.4845 C   0  0  0  0  0  0  0  0  0  0  0  0
    3.1966    3.4568    4.9170 C   0  0  0  0  0  0  0  0  0  0  0  0
    2.1182    3.1164    5.6342 F   0  0  0  0  0  0  0  0  0  0  0  0
    3.0721    4.7753    4.6061 F   0  0  0  0  0  0  0  0  0  0  0  0
    3.5678    2.5137    3.7374 C   0  0  0  0  0  0  0  0  0  0  0  0
    7.7032   -2.4189    2.6040 C   0  0  0  0  0  0  0  0  0  0  0  0
    8.2904   -2.0730    3.8163 C   0  0  0  0  0  0  0  0  0  0  0  0
    9.6182   -2.3874    4.0533 C   0  0  0  0  0  0  0  0  0  0  0  0
   10.3542   -3.1577    3.2154 C   0  0  0  0  0  0  0  0  0  0  0  0
   11.6258   -3.1399    3.5996 N   0  0  0  0  0  0  0  0  0  0  0  0
   12.4674   -3.9742    3.0026 C   0  0  0  0  0  0  0  0  0  0  0  0
   12.0750   -4.8966    2.0750 C   0  0  0  0  0  0  0  0  0  0  0  0
   13.1356   -5.8999    1.8041 C   0  0  0  0  0  0  0  0  0  0  0  0
   13.4423   -7.0981    2.5392 C   0  0  0  0  0  0  0  0  0  0  0  0
   14.7196   -7.5060    2.4191 N   0  0  0  0  0  0  0  0  0  0  0  0
   15.2837   -6.5632    1.6483 N   0  0  0  0  0  0  0  0  0  0  0  0
   16.6816   -6.6598    1.2727 C   0  0  0  0  0  0  0  0  0  0  0  0
   14.4133   -5.5410    1.3532 C   0  0  0  0  0  0  0  0  0  0  0  0
   10.7546   -4.8486    1.5811 N   0  0  0  0  0  0  0  0  0  0  0  0
    9.8300   -3.8785    2.1314 C   0  0  0  0  0  0  0  0  0  0  0  0
    8.4209   -3.3931    1.8151 C   0  0  0  0  0  0  0  0  0  0  0  0
    4.3862   -2.6740    2.3282 C   0  0  0  0  0  0  0  0  0  0  0  0
    0.3015   -4.1935    3.0420 H   0  0  0  0  0  0  0  0  0  0  0  0
    0.7332   -4.2035    1.3271 H   0  0  0  0  0  0  0  0  0  0  0  0
    0.3929   -2.6549    2.1897 H   0  0  0  0  0  0  0  0  0  0  0  0
    1.6470   -2.2592    0.3410 H   0  0  0  0  0  0  0  0  0  0  0  0
    1.9300   -0.1386   -2.5665 H   0  0  0  0  0  0  0  0  0  0  0  0
    1.1863   -0.4406   -0.9931 H   0  0  0  0  0  0  0  0  0  0  0  0
    1.8315   -1.8054   -1.9853 H   0  0  0  0  0  0  0  0  0  0  0  0
    5.5168   -0.5036   -0.0157 H   0  0  0  0  0  0  0  0  0  0  0  0
    7.3812    0.0724    1.1628 H   0  0  0  0  0  0  0  0  0  0  0  0
    7.9188    0.0799    2.8089 H   0  0  0  0  0  0  0  0  0  0  0  0
    5.1176    0.9769    1.9826 H   0  0  0  0  0  0  0  0  0  0  0  0
    6.5448    1.9620    2.1667 H   0  0  0  0  0  0  0  0  0  0  0  0
    6.6599    1.4700    4.5892 H   0  0  0  0  0  0  0  0  0  0  0  0
    5.1590    0.5411    4.4871 H   0  0  0  0  0  0  0  0  0  0  0  0
    5.1429    3.8345    5.9452 H   0  0  0  0  0  0  0  0  0  0  0  0
    4.4976    2.1923    6.2032 H   0  0  0  0  0  0  0  0  0  0  0  0
    3.3148    2.9033    2.7506 H   0  0  0  0  0  0  0  0  0  0  0  0
    3.1402    1.5131    3.8534 H   0  0  0  0  0  0  0  0  0  0  0  0
    7.7815   -1.4228    4.5174 H   0  0  0  0  0  0  0  0  0  0  0  0
   10.0911   -1.9458    4.9232 H   0  0  0  0  0  0  0  0  0  0  0  0
   13.4929   -3.9064    3.3622 H   0  0  0  0  0  0  0  0  0  0  0  0
   12.8222   -7.6480    3.2336 H   0  0  0  0  0  0  0  0  0  0  0  0
   17.1182   -7.5895    1.6535 H   0  0  0  0  0  0  0  0  0  0  0  0
   17.2350   -5.8067    1.6769 H   0  0  0  0  0  0  0  0  0  0  0  0
   16.7349   -6.6576    0.1807 H   0  0  0  0  0  0  0  0  0  0  0  0
   14.7917   -4.6257    0.9239 H   0  0  0  0  0  0  0  0  0  0  0  0
    7.9550   -3.7864    0.9004 H   0  0  0  0  0  0  0  0  0  0  0  0
    4.6635   -3.1591    3.2647 H   0  0  0  0  0  0  0  0  0  0  0  0
  1  2  1  0  0  0  0
  1 37  1  0  0  0  0
  1 38  1  0  0  0  0
  1 39  1  0  0  0  0
  2  3  1  0  0  0  0
  3  4  1  0  0  0  0
  3 36  2  0  0  0  0
  4  5  2  0  0  0  0
  4 40  1  0  0  0  0
  5  6  1  0  0  0  0
  5  8  1  0  0  0  0
  6  7  1  0  0  0  0
  7 41  1  0  0  0  0
  7 42  1  0  0  0  0
  7 43  1  0  0  0  0
  8  9  2  0  0  0  0
  8 44  1  0  0  0  0
  9 10  1  0  0  0  0
  9 36  1  0  0  0  0
 10 11  1  0  0  0  0
 10 20  1  0  0  0  0
 11 12  1  0  0  0  0
 11 45  1  0  0  0  0
 11 46  1  0  0  0  0
 12 13  1  0  0  0  0
 12 47  1  0  0  0  0
 12 48  1  0  0  0  0
 13 14  1  0  0  0  0
 13 49  1  0  0  0  0
 13 50  1  0  0  0  0
 14 15  1  0  0  0  0
 14 19  1  0  0  0  0
 15 16  1  0  0  0  0
 15 51  1  0  0  0  0
 15 52  1  0  0  0  0
 16 17  1  0  0  0  0
 16 18  1  0  0  0  0
 16 19  1  0  0  0  0
 19 53  1  0  0  0  0
 19 54  1  0  0  0  0
 20 21  1  0  0  0  0
 20 35  2  0  0  0  0
 21 22  2  0  0  0  0
 21 55  1  0  0  0  0
 22 23  1  0  0  0  0
 22 56  1  0  0  0  0
 23 24  1  0  0  0  0
 23 34  2  0  0  0  0
 24 25  2  0  0  0  0
 25 26  1  0  0  0  0
 25 57  1  0  0  0  0
 26 27  1  0  0  0  0
 26 33  2  0  0  0  0
 27 28  1  0  0  0  0
 27 32  2  0  0  0  0
 28 29  2  0  0  0  0
 28 58  1  0  0  0  0
 29 30  1  0  0  0  0
 30 31  1  0  0  0  0
 30 32  1  0  0  0  0
 31 59  1  0  0  0  0
 31 60  1  0  0  0  0
 31 61  1  0  0  0  0
 32 62  1  0  0  0  0
 33 34  1  0  0  0  0
 34 35  1  0  0  0  0
 35 63  1  0  0  0  0
 36 64  1  0  0  0  0
M  END
$$$$
