CHEMBL231569
 OpenBabel04072215363D

 58 61  0  0  0  0  0  0  0  0999 V2000
    2.0478    2.8445    3.5944 C   0  0  0  0  0  0  0  0  0  0  0  0
    3.3907    2.5870    3.1537 N   0  0  0  0  0  0  0  0  0  0  0  0
    3.6689    2.2236    1.8556 C   0  0  0  0  0  0  0  0  0  0  0  0
    2.8167    2.1175    0.9801 O   0  0  0  0  0  0  0  0  0  0  0  0
    5.1171    1.9854    1.5628 C   0  0  0  0  0  0  0  0  0  0  0  0
    5.5028    1.6613    0.2723 C   0  0  0  0  0  0  0  0  0  0  0  0
    6.8614    1.5977   -0.0048 C   0  0  0  0  0  0  0  0  0  0  0  0
    7.3848    1.3716   -1.2608 O   0  0  0  0  0  0  0  0  0  0  0  0
    6.7137    1.8424   -2.3705 C   0  0  0  0  0  0  0  0  0  0  0  0
    6.0078    3.0580   -2.4008 C   0  0  0  0  0  0  0  0  0  0  0  0
    5.3020    3.4703   -3.5394 C   0  0  0  0  0  0  0  0  0  0  0  0
    5.3956    2.6282   -4.6374 C   0  0  0  0  0  0  0  0  0  0  0  0
    4.8193    2.7925   -5.8636 O   0  0  0  0  0  0  0  0  0  0  0  0
    5.1965    1.6721   -6.5552 C   0  0  0  0  0  0  0  0  0  0  0  0
    4.7103    1.5666   -7.8056 N   0  0  0  0  0  0  0  0  0  0  0  0
    4.5195    0.3512   -8.4881 C   0  0  0  0  0  0  0  0  0  0  0  0
    4.3574   -0.8609   -7.8110 C   0  0  0  0  0  0  0  0  0  0  0  0
    4.2595   -2.0632   -8.5055 C   0  0  0  0  0  0  0  0  0  0  0  0
    4.3424   -2.0884   -9.8999 C   0  0  0  0  0  0  0  0  0  0  0  0
    4.3531   -3.6752  -10.5890 Cl  0  0  0  0  0  0  0  0  0  0  0  0
    4.4660   -0.8838  -10.6133 C   0  0  0  0  0  0  0  0  0  0  0  0
    4.5449   -0.6903  -11.9738 O   0  0  0  0  0  0  0  0  0  0  0  0
    3.9025   -1.6674  -12.7941 C   0  0  0  0  0  0  0  0  0  0  0  0
    3.4797   -1.0611  -14.1436 C   0  0  0  0  0  0  0  0  0  0  0  0
    2.8309   -2.0433  -15.0396 N   0  0  0  0  0  0  0  0  0  0  0  0
    1.6061   -2.6017  -14.4607 C   0  0  0  0  0  0  0  0  0  0  0  0
    2.5304   -1.4344  -16.3355 C   0  0  0  0  0  0  0  0  0  0  0  0
    4.5673    0.3211   -9.8893 C   0  0  0  0  0  0  0  0  0  0  0  0
    5.9809    0.8530   -5.8837 N   0  0  0  0  0  0  0  0  0  0  0  0
    6.1162    1.4470   -4.6609 C   0  0  0  0  0  0  0  0  0  0  0  0
    6.8128    1.0413   -3.5165 C   0  0  0  0  0  0  0  0  0  0  0  0
    7.7794    1.7305    1.0316 C   0  0  0  0  0  0  0  0  0  0  0  0
    7.3013    2.0070    2.3026 C   0  0  0  0  0  0  0  0  0  0  0  0
    5.9940    2.1585    2.5943 N   0  0  0  0  0  0  0  0  0  0  0  0
    2.0647    3.0993    4.6560 H   0  0  0  0  0  0  0  0  0  0  0  0
    1.4407    1.9499    3.4318 H   0  0  0  0  0  0  0  0  0  0  0  0
    1.6291    3.6724    3.0152 H   0  0  0  0  0  0  0  0  0  0  0  0
    4.1806    2.6681    3.7891 H   0  0  0  0  0  0  0  0  0  0  0  0
    4.7466    1.5102   -0.4917 H   0  0  0  0  0  0  0  0  0  0  0  0
    5.9768    3.6999   -1.5227 H   0  0  0  0  0  0  0  0  0  0  0  0
    4.7132    4.3786   -3.5597 H   0  0  0  0  0  0  0  0  0  0  0  0
    4.2059    2.3549   -8.1871 H   0  0  0  0  0  0  0  0  0  0  0  0
    4.3046   -0.8891   -6.7247 H   0  0  0  0  0  0  0  0  0  0  0  0
    4.1450   -2.9854   -7.9408 H   0  0  0  0  0  0  0  0  0  0  0  0
    3.0045   -2.0320  -12.2884 H   0  0  0  0  0  0  0  0  0  0  0  0
    4.6098   -2.4802  -12.9921 H   0  0  0  0  0  0  0  0  0  0  0  0
    4.3823   -0.6649  -14.6292 H   0  0  0  0  0  0  0  0  0  0  0  0
    2.8293   -0.1946  -13.9662 H   0  0  0  0  0  0  0  0  0  0  0  0
    1.8260   -3.2151  -13.5809 H   0  0  0  0  0  0  0  0  0  0  0  0
    1.1142   -3.2779  -15.1684 H   0  0  0  0  0  0  0  0  0  0  0  0
    0.8926   -1.8208  -14.1751 H   0  0  0  0  0  0  0  0  0  0  0  0
    3.4454   -1.0723  -16.8161 H   0  0  0  0  0  0  0  0  0  0  0  0
    1.8271   -0.5988  -16.2462 H   0  0  0  0  0  0  0  0  0  0  0  0
    2.0960   -2.1775  -17.0146 H   0  0  0  0  0  0  0  0  0  0  0  0
    4.7147    1.2491  -10.4404 H   0  0  0  0  0  0  0  0  0  0  0  0
    7.3899    0.1234   -3.5214 H   0  0  0  0  0  0  0  0  0  0  0  0
    8.8449    1.6322    0.8499 H   0  0  0  0  0  0  0  0  0  0  0  0
    7.9832    2.1208    3.1390 H   0  0  0  0  0  0  0  0  0  0  0  0
  1  2  1  0  0  0  0
  1 35  1  0  0  0  0
  1 36  1  0  0  0  0
  1 37  1  0  0  0  0
  2  3  1  0  0  0  0
  2 38  1  0  0  0  0
  3  4  2  0  0  0  0
  3  5  1  0  0  0  0
  5  6  1  0  0  0  0
  5 34  2  0  0  0  0
  6  7  2  0  0  0  0
  6 39  1  0  0  0  0
  7  8  1  0  0  0  0
  7 32  1  0  0  0  0
  8  9  1  0  0  0  0
  9 10  1  0  0  0  0
  9 31  2  0  0  0  0
 10 11  2  0  0  0  0
 10 40  1  0  0  0  0
 11 12  1  0  0  0  0
 11 41  1  0  0  0  0
 12 13  1  0  0  0  0
 12 30  2  0  0  0  0
 13 14  1  0  0  0  0
 14 15  1  0  0  0  0
 14 29  2  0  0  0  0
 15 16  1  0  0  0  0
 15 42  1  0  0  0  0
 16 17  1  0  0  0  0
 16 28  2  0  0  0  0
 17 18  2  0  0  0  0
 17 43  1  0  0  0  0
 18 19  1  0  0  0  0
 18 44  1  0  0  0  0
 19 20  1  0  0  0  0
 19 21  2  0  0  0  0
 21 22  1  0  0  0  0
 21 28  1  0  0  0  0
 22 23  1  0  0  0  0
 23 24  1  0  0  0  0
 23 45  1  0  0  0  0
 23 46  1  0  0  0  0
 24 25  1  0  0  0  0
 24 47  1  0  0  0  0
 24 48  1  0  0  0  0
 25 26  1  0  0  0  0
 25 27  1  0  0  0  0
 26 49  1  0  0  0  0
 26 50  1  0  0  0  0
 26 51  1  0  0  0  0
 27 52  1  0  0  0  0
 27 53  1  0  0  0  0
 27 54  1  0  0  0  0
 28 55  1  0  0  0  0
 29 30  1  0  0  0  0
 30 31  1  0  0  0  0
 31 56  1  0  0  0  0
 32 33  2  0  0  0  0
 32 57  1  0  0  0  0
 33 34  1  0  0  0  0
 33 58  1  0  0  0  0
M  END
$$$$
