CHEMBL4582195
 OpenBabel04072215383D

 50 52  0  0  0  0  0  0  0  0999 V2000
    2.6111    1.1129    0.4326 O   0  0  0  0  0  0  0  0  0  0  0  0
    2.2318    0.0424   -0.0480 C   0  0  0  0  0  0  0  0  0  0  0  0
    0.7375   -0.1374   -0.3212 C   0  0  0  0  0  0  0  0  0  0  0  0
    0.1951   -1.8726   -0.3819 S   0  0  0  0  0  0  0  0  0  0  0  0
   -1.5524   -1.6074   -0.5183 C   0  0  0  0  0  0  0  0  0  0  0  0
   -2.2371   -1.4532   -2.0456 S   0  0  0  0  0  0  0  0  0  0  0  0
   -2.2692   -1.5692    0.6821 N   0  0  0  0  0  0  0  0  0  0  0  0
   -1.8211   -2.2359    1.9117 C   0  0  0  0  0  0  0  0  0  0  0  0
   -2.9639   -3.0008    2.5808 C   0  0  0  0  0  0  0  0  0  0  0  0
   -4.1779   -2.1100    2.8194 C   0  0  0  0  0  0  0  0  0  0  0  0
   -4.6145   -1.4397    1.5214 C   0  0  0  0  0  0  0  0  0  0  0  0
   -3.4522   -0.7079    0.8547 C   0  0  0  0  0  0  0  0  0  0  0  0
    3.0576   -1.0142   -0.4201 N   0  0  0  0  0  0  0  0  0  0  0  0
    4.4679   -1.1015   -0.2667 C   0  0  0  0  0  0  0  0  0  0  0  0
    5.2251   -0.0688    0.2887 C   0  0  0  0  0  0  0  0  0  0  0  0
    6.6104   -0.1649    0.3716 C   0  0  0  0  0  0  0  0  0  0  0  0
    7.2566   -1.3205   -0.0472 C   0  0  0  0  0  0  0  0  0  0  0  0
    6.5321   -2.4168   -0.5160 C   0  0  0  0  0  0  0  0  0  0  0  0
    7.1689   -3.6544   -0.8001 N   0  0  0  0  0  0  0  0  0  0  0  0
    8.4393   -4.0259   -0.3646 C   0  0  0  0  0  0  0  0  0  0  0  0
    9.2160   -3.3354    0.2959 O   0  0  0  0  0  0  0  0  0  0  0  0
    8.8628   -5.4223   -0.7004 C   0  0  0  0  0  0  0  0  0  0  0  0
   10.1047   -5.8757   -0.2701 C   0  0  0  0  0  0  0  0  0  0  0  0
   10.4699   -7.1882   -0.5535 C   0  0  0  0  0  0  0  0  0  0  0  0
    9.5855   -7.9934   -1.2577 C   0  0  0  0  0  0  0  0  0  0  0  0
    8.3683   -7.4555   -1.6556 C   0  0  0  0  0  0  0  0  0  0  0  0
    7.9716   -6.1843   -1.3942 N   0  0  0  0  0  0  0  0  0  0  0  0
    5.1360   -2.2822   -0.6728 C   0  0  0  0  0  0  0  0  0  0  0  0
    0.5023    0.3730   -1.2606 H   0  0  0  0  0  0  0  0  0  0  0  0
    0.1995    0.3651    0.4920 H   0  0  0  0  0  0  0  0  0  0  0  0
   -1.4218   -1.4659    2.5810 H   0  0  0  0  0  0  0  0  0  0  0  0
   -1.0241   -2.9543    1.7010 H   0  0  0  0  0  0  0  0  0  0  0  0
   -2.6197   -3.4232    3.5315 H   0  0  0  0  0  0  0  0  0  0  0  0
   -3.2604   -3.8428    1.9428 H   0  0  0  0  0  0  0  0  0  0  0  0
   -3.9326   -1.3470    3.5672 H   0  0  0  0  0  0  0  0  0  0  0  0
   -5.0029   -2.7056    3.2265 H   0  0  0  0  0  0  0  0  0  0  0  0
   -5.4278   -0.7345    1.7280 H   0  0  0  0  0  0  0  0  0  0  0  0
   -5.0112   -2.1982    0.8356 H   0  0  0  0  0  0  0  0  0  0  0  0
   -3.1349    0.1306    1.4882 H   0  0  0  0  0  0  0  0  0  0  0  0
   -3.7848   -0.2683   -0.0888 H   0  0  0  0  0  0  0  0  0  0  0  0
    2.5902   -1.8153   -0.8276 H   0  0  0  0  0  0  0  0  0  0  0  0
    4.7749    0.8413    0.6691 H   0  0  0  0  0  0  0  0  0  0  0  0
    7.1914    0.6600    0.7764 H   0  0  0  0  0  0  0  0  0  0  0  0
    8.3400   -1.3327    0.0115 H   0  0  0  0  0  0  0  0  0  0  0  0
    6.6293   -4.3999   -1.2325 H   0  0  0  0  0  0  0  0  0  0  0  0
   10.7783   -5.2252    0.2863 H   0  0  0  0  0  0  0  0  0  0  0  0
   11.4330   -7.5731   -0.2265 H   0  0  0  0  0  0  0  0  0  0  0  0
    9.8378   -9.0228   -1.4912 H   0  0  0  0  0  0  0  0  0  0  0  0
    7.6543   -8.0566   -2.2105 H   0  0  0  0  0  0  0  0  0  0  0  0
    4.5626   -3.1137   -1.0734 H   0  0  0  0  0  0  0  0  0  0  0  0
  1  2  2  0  0  0  0
  2  3  1  0  0  0  0
  2 13  1  0  0  0  0
  3  4  1  0  0  0  0
  3 29  1  0  0  0  0
  3 30  1  0  0  0  0
  4  5  1  0  0  0  0
  5  6  2  0  0  0  0
  5  7  1  0  0  0  0
  7  8  1  0  0  0  0
  7 12  1  0  0  0  0
  8  9  1  0  0  0  0
  8 31  1  0  0  0  0
  8 32  1  0  0  0  0
  9 10  1  0  0  0  0
  9 33  1  0  0  0  0
  9 34  1  0  0  0  0
 10 11  1  0  0  0  0
 10 35  1  0  0  0  0
 10 36  1  0  0  0  0
 11 12  1  0  0  0  0
 11 37  1  0  0  0  0
 11 38  1  0  0  0  0
 12 39  1  0  0  0  0
 12 40  1  0  0  0  0
 13 14  1  0  0  0  0
 13 41  1  0  0  0  0
 14 15  1  0  0  0  0
 14 28  2  0  0  0  0
 15 16  2  0  0  0  0
 15 42  1  0  0  0  0
 16 17  1  0  0  0  0
 16 43  1  0  0  0  0
 17 18  2  0  0  0  0
 17 44  1  0  0  0  0
 18 19  1  0  0  0  0
 18 28  1  0  0  0  0
 19 20  1  0  0  0  0
 19 45  1  0  0  0  0
 20 21  2  0  0  0  0
 20 22  1  0  0  0  0
 22 23  1  0  0  0  0
 22 27  2  0  0  0  0
 23 24  2  0  0  0  0
 23 46  1  0  0  0  0
 24 25  1  0  0  0  0
 24 47  1  0  0  0  0
 25 26  2  0  0  0  0
 25 48  1  0  0  0  0
 26 27  1  0  0  0  0
 26 49  1  0  0  0  0
 28 50  1  0  0  0  0
M  END
$$$$
