CHEMBL3916200
 OpenBabel04072215373D

 70 72  0  0  1  0  0  0  0  0999 V2000
    1.1453    2.2947    2.7596 C   0  0  0  0  0  0  0  0  0  0  0  0
    2.5147    2.6499    2.6414 O   0  0  0  0  0  0  0  0  0  0  0  0
    2.9622    2.3489    1.3302 C   0  0  0  0  0  0  0  0  0  0  0  0
    4.5071    2.5061    1.1931 C   0  0  2  0  0  0  0  0  0  0  0  0
    4.9361    2.3067   -0.1292 O   0  0  0  0  0  0  0  0  0  0  0  0
    5.2727    1.5497    2.2061 C   0  0  0  0  0  0  0  0  0  0  0  0
    6.7711    1.6990    2.3087 N   0  0  0  0  0  0  0  0  0  0  0  0
    7.5699    0.9330    1.3293 C   0  0  0  0  0  0  0  0  0  0  0  0
    6.9046    0.0666    0.3983 C   0  0  0  0  0  0  0  0  0  0  0  0
    7.5854   -0.7272   -0.5402 C   0  0  0  0  0  0  0  0  0  0  0  0
    6.9351   -1.5572   -1.3901 O   0  0  0  0  0  0  0  0  0  0  0  0
    5.5575   -1.7532   -1.4850 C   0  0  0  0  0  0  0  0  0  0  0  0
    8.9513   -0.6394   -0.6165 C   0  0  0  0  0  0  0  0  0  0  0  0
    9.6703    0.2366    0.2244 C   0  0  0  0  0  0  0  0  0  0  0  0
   11.0302    0.3626    0.0901 O   0  0  0  0  0  0  0  0  0  0  0  0
   11.7951   -0.3507   -0.8303 C   0  0  0  0  0  0  0  0  0  0  0  0
    8.9840    1.0114    1.2026 C   0  0  0  0  0  0  0  0  0  0  0  0
    7.2248    2.5927    3.4168 C   0  0  0  0  0  0  0  0  0  0  0  0
    6.3269    3.6379    3.6445 C   0  0  0  0  0  0  0  0  0  0  0  0
    6.4602    4.5900    4.5523 C   0  0  0  0  0  0  0  0  0  0  0  0
    7.4840    4.5867    5.3986 C   0  0  0  0  0  0  0  0  0  0  0  0
    7.4798    5.6240    6.2126 N   0  0  0  0  0  0  0  0  0  0  0  0
    8.3015    5.7309    7.2162 C   0  0  0  0  0  0  0  0  0  0  0  0
    9.1639    4.6871    7.5402 C   0  0  0  0  0  0  0  0  0  0  0  0
    9.5867    4.8013    9.0228 C   0  0  0  0  0  0  0  0  0  0  0  0
   10.3825    4.0423    9.8657 C   0  0  0  0  0  0  0  0  0  0  0  0
   10.2147    4.4643   11.1673 N   0  0  0  0  0  0  0  0  0  0  0  0
    9.3602    5.4736   11.1666 N   0  0  0  0  0  0  0  0  0  0  0  0
    8.7817    6.1530   12.3556 C   0  0  0  0  0  0  0  0  0  0  0  0
    7.2233    6.1506   12.3585 C   0  0  0  0  0  0  0  0  0  0  0  0
    6.6133    4.7503   12.1988 C   0  0  0  0  0  0  0  0  0  0  0  0
    5.1506    4.8237   12.1837 N   0  0  0  0  0  0  0  0  0  0  0  0
    8.9973    5.7354    9.9169 C   0  0  0  0  0  0  0  0  0  0  0  0
    9.2958    3.6232    6.6038 N   0  0  0  0  0  0  0  0  0  0  0  0
    8.4523    3.5694    5.4613 C   0  0  0  0  0  0  0  0  0  0  0  0
    8.3758    2.5451    4.3672 C   0  0  0  0  0  0  0  0  0  0  0  0
    0.6559   -0.2321   -0.1043 Cl  0  0  0  0  0  0  0  0  0  0  0  0
    0.7252    2.7468    3.6833 H   0  0  0  0  0  0  0  0  0  0  0  0
    1.0280    1.1918    2.8464 H   0  0  0  0  0  0  0  0  0  0  0  0
    0.5287    2.6883    1.9188 H   0  0  0  0  0  0  0  0  0  0  0  0
    2.4767    3.0520    0.6152 H   0  0  0  0  0  0  0  0  0  0  0  0
    2.7149    1.3010    1.0713 H   0  0  0  0  0  0  0  0  0  0  0  0
    4.6671    3.5853    1.3584 H   0  0  0  0  0  0  0  0  0  0  0  0
    4.3452    1.6379   -0.5576 H   0  0  0  0  0  0  0  0  0  0  0  0
    4.9688    0.4935    2.0827 H   0  0  0  0  0  0  0  0  0  0  0  0
    4.8326    1.6850    3.2134 H   0  0  0  0  0  0  0  0  0  0  0  0
    5.8473   -0.0352    0.3627 H   0  0  0  0  0  0  0  0  0  0  0  0
    5.3522   -2.5230   -2.2522 H   0  0  0  0  0  0  0  0  0  0  0  0
    5.0758   -0.8025   -1.7955 H   0  0  0  0  0  0  0  0  0  0  0  0
    5.1517   -2.0986   -0.5324 H   0  0  0  0  0  0  0  0  0  0  0  0
    9.4442   -1.2582   -1.3523 H   0  0  0  0  0  0  0  0  0  0  0  0
   12.8381    0.0235   -0.8170 H   0  0  0  0  0  0  0  0  0  0  0  0
   11.4074   -0.2172   -1.8655 H   0  0  0  0  0  0  0  0  0  0  0  0
   11.7969   -1.4331   -0.5769 H   0  0  0  0  0  0  0  0  0  0  0  0
    9.5512    1.6764    1.8346 H   0  0  0  0  0  0  0  0  0  0  0  0
    5.4404    3.7955    3.1251 H   0  0  0  0  0  0  0  0  0  0  0  0
    5.7004    5.3568    4.6270 H   0  0  0  0  0  0  0  0  0  0  0  0
    8.1326    6.6095    7.7870 H   0  0  0  0  0  0  0  0  0  0  0  0
   11.0108    3.1975    9.6106 H   0  0  0  0  0  0  0  0  0  0  0  0
    9.0951    7.2227   12.3763 H   0  0  0  0  0  0  0  0  0  0  0  0
    9.1553    5.6702   13.2821 H   0  0  0  0  0  0  0  0  0  0  0  0
    6.8409    6.7872   11.5307 H   0  0  0  0  0  0  0  0  0  0  0  0
    6.8562    6.6033   13.3062 H   0  0  0  0  0  0  0  0  0  0  0  0
    6.9498    4.0882   13.0249 H   0  0  0  0  0  0  0  0  0  0  0  0
    6.9458    4.3211   11.2315 H   0  0  0  0  0  0  0  0  0  0  0  0
    4.8031    5.1553   13.1115 H   0  0  0  0  0  0  0  0  0  0  0  0
    4.7697    3.8670   12.0196 H   0  0  0  0  0  0  0  0  0  0  0  0
    8.2710    6.5130    9.7401 H   0  0  0  0  0  0  0  0  0  0  0  0
    9.1030    1.7384    4.3102 H   0  0  0  0  0  0  0  0  0  0  0  0
    1.9921   -0.4476   -0.3575 H   0  0  0  0  0  0  0  0  0  0  0  0
  1  2  1  0  0  0  0
  1 38  1  0  0  0  0
  1 39  1  0  0  0  0
  1 40  1  0  0  0  0
  2  3  1  0  0  0  0
  3 41  1  0  0  0  0
  3 42  1  0  0  0  0
  4  6  1  0  0  0  0
  4  5  1  0  0  0  0
  4  3  1  0  0  0  0
  4 43  1  1  0  0  0
  5 44  1  0  0  0  0
  6  7  1  0  0  0  0
  6 45  1  0  0  0  0
  6 46  1  0  0  0  0
  7  8  1  0  0  0  0
  7 18  1  0  0  0  0
  8  9  1  0  0  0  0
  8 17  2  0  0  0  0
  9 10  2  0  0  0  0
  9 47  1  0  0  0  0
 10 11  1  0  0  0  0
 10 13  1  0  0  0  0
 11 12  1  0  0  0  0
 12 48  1  0  0  0  0
 12 49  1  0  0  0  0
 12 50  1  0  0  0  0
 13 14  2  0  0  0  0
 13 51  1  0  0  0  0
 14 15  1  0  0  0  0
 14 17  1  0  0  0  0
 15 16  1  0  0  0  0
 16 52  1  0  0  0  0
 16 53  1  0  0  0  0
 16 54  1  0  0  0  0
 17 55  1  0  0  0  0
 18 19  1  0  0  0  0
 18 36  2  0  0  0  0
 19 20  2  0  0  0  0
 19 56  1  0  0  0  0
 20 21  1  0  0  0  0
 20 57  1  0  0  0  0
 21 22  1  0  0  0  0
 21 35  2  0  0  0  0
 22 23  2  0  0  0  0
 23 24  1  0  0  0  0
 23 58  1  0  0  0  0
 24 25  1  0  0  0  0
 24 34  2  0  0  0  0
 25 26  1  0  0  0  0
 25 33  2  0  0  0  0
 26 27  2  0  0  0  0
 26 59  1  0  0  0  0
 27 28  1  0  0  0  0
 28 29  1  0  0  0  0
 28 33  1  0  0  0  0
 29 30  1  0  0  0  0
 29 60  1  0  0  0  0
 29 61  1  0  0  0  0
 30 31  1  0  0  0  0
 30 62  1  0  0  0  0
 30 63  1  0  0  0  0
 31 32  1  0  0  0  0
 31 64  1  0  0  0  0
 31 65  1  0  0  0  0
 32 66  1  0  0  0  0
 32 67  1  0  0  0  0
 33 68  1  0  0  0  0
 34 35  1  0  0  0  0
 35 36  1  0  0  0  0
 36 69  1  0  0  0  0
 37 70  1  0  0  0  0
M  END
$$$$
