CHEMBL3694684
 OpenBabel04072215373D

 50 53  0  0  0  0  0  0  0  0999 V2000
    2.2054    1.6089   -0.4658 C   0  0  0  0  0  0  0  0  0  0  0  0
    2.4576    0.1752   -0.0802 C   0  0  0  0  0  0  0  0  0  0  0  0
    2.0311   -0.2971    0.9701 O   0  0  0  0  0  0  0  0  0  0  0  0
    3.2264   -0.6850   -1.0007 C   0  0  0  0  0  0  0  0  0  0  0  0
    3.7379   -0.2640   -2.2069 C   0  0  0  0  0  0  0  0  0  0  0  0
    4.4318   -1.0617   -3.0474 N   0  0  0  0  0  0  0  0  0  0  0  0
    4.6176   -2.3407   -2.6595 C   0  0  0  0  0  0  0  0  0  0  0  0
    5.3551   -3.2614   -3.5680 C   0  0  0  0  0  0  0  0  0  0  0  0
    5.6234   -4.6607   -3.2057 C   0  0  0  0  0  0  0  0  0  0  0  0
    6.2676   -5.4724   -4.0596 C   0  0  0  0  0  0  0  0  0  0  0  0
    6.6596   -4.9981   -5.3144 N   0  0  0  0  0  0  0  0  0  0  0  0
    7.2415   -5.6450   -6.4085 C   0  0  0  0  0  0  0  0  0  0  0  0
    7.4804   -7.0920   -6.5602 C   0  0  0  0  0  0  0  0  0  0  0  0
    6.5998   -8.0145   -5.9826 C   0  0  0  0  0  0  0  0  0  0  0  0
    6.8187   -9.3813   -6.0905 C   0  0  0  0  0  0  0  0  0  0  0  0
    7.8783   -9.8548   -6.8531 C   0  0  0  0  0  0  0  0  0  0  0  0
    8.7283   -8.9774   -7.5283 C   0  0  0  0  0  0  0  0  0  0  0  0
    9.7547   -9.4353   -8.3967 N   0  0  0  0  0  0  0  0  0  0  0  0
    9.9776  -10.7500   -8.7598 C   0  0  0  0  0  0  0  0  0  0  0  0
    9.3441  -11.7337   -8.4051 O   0  0  0  0  0  0  0  0  0  0  0  0
   11.0746  -10.9014   -9.5801 N   0  0  0  0  0  0  0  0  0  0  0  0
   11.4033  -12.2606  -10.0415 C   0  0  0  0  0  0  0  0  0  0  0  0
   10.5472  -12.8196  -11.1900 C   0  0  0  0  0  0  0  0  0  0  0  0
    9.7313  -11.8815  -11.7228 F   0  0  0  0  0  0  0  0  0  0  0  0
   11.3537  -13.2497  -12.1943 F   0  0  0  0  0  0  0  0  0  0  0  0
    9.7924  -13.8708  -10.8094 F   0  0  0  0  0  0  0  0  0  0  0  0
    8.5431   -7.5914   -7.3473 C   0  0  0  0  0  0  0  0  0  0  0  0
    7.4576   -4.6182   -7.3159 C   0  0  0  0  0  0  0  0  0  0  0  0
    6.9900   -3.4135   -6.8638 N   0  0  0  0  0  0  0  0  0  0  0  0
    6.4801   -3.6652   -5.6793 C   0  0  0  0  0  0  0  0  0  0  0  0
    5.7996   -2.8065   -4.7654 C   0  0  0  0  0  0  0  0  0  0  0  0
    4.1608   -2.8476   -1.4971 N   0  0  0  0  0  0  0  0  0  0  0  0
    3.4728   -2.0052   -0.6912 C   0  0  0  0  0  0  0  0  0  0  0  0
    1.6898    2.1182    0.3538 H   0  0  0  0  0  0  0  0  0  0  0  0
    1.5684    1.6506   -1.3533 H   0  0  0  0  0  0  0  0  0  0  0  0
    3.1510    2.1283   -0.6425 H   0  0  0  0  0  0  0  0  0  0  0  0
    3.6153    0.7521   -2.5705 H   0  0  0  0  0  0  0  0  0  0  0  0
    5.2911   -5.0213   -2.2361 H   0  0  0  0  0  0  0  0  0  0  0  0
    6.4931   -6.4964   -3.7993 H   0  0  0  0  0  0  0  0  0  0  0  0
    5.7093   -7.6933   -5.4514 H   0  0  0  0  0  0  0  0  0  0  0  0
    6.1503  -10.0844   -5.6017 H   0  0  0  0  0  0  0  0  0  0  0  0
    7.9948  -10.9312   -6.9074 H   0  0  0  0  0  0  0  0  0  0  0  0
   10.3437   -8.7347   -8.8183 H   0  0  0  0  0  0  0  0  0  0  0  0
   11.2949  -10.1380  -10.2029 H   0  0  0  0  0  0  0  0  0  0  0  0
   11.3313  -12.9431   -9.1855 H   0  0  0  0  0  0  0  0  0  0  0  0
   12.4549  -12.2373  -10.3424 H   0  0  0  0  0  0  0  0  0  0  0  0
    9.2172   -6.8926   -7.8371 H   0  0  0  0  0  0  0  0  0  0  0  0
    7.8920   -4.6967   -8.3044 H   0  0  0  0  0  0  0  0  0  0  0  0
    5.6424   -1.7821   -5.0884 H   0  0  0  0  0  0  0  0  0  0  0  0
    3.1150   -2.4478    0.2357 H   0  0  0  0  0  0  0  0  0  0  0  0
  1  2  1  0  0  0  0
  1 34  1  0  0  0  0
  1 35  1  0  0  0  0
  1 36  1  0  0  0  0
  2  3  2  0  0  0  0
  2  4  1  0  0  0  0
  4  5  1  0  0  0  0
  4 33  2  0  0  0  0
  5  6  2  0  0  0  0
  5 37  1  0  0  0  0
  6  7  1  0  0  0  0
  7  8  1  0  0  0  0
  7 32  2  0  0  0  0
  8  9  1  0  0  0  0
  8 31  2  0  0  0  0
  9 10  2  0  0  0  0
  9 38  1  0  0  0  0
 10 11  1  0  0  0  0
 10 39  1  0  0  0  0
 11 12  1  0  0  0  0
 11 30  1  0  0  0  0
 12 13  1  0  0  0  0
 12 28  2  0  0  0  0
 13 14  1  0  0  0  0
 13 27  2  0  0  0  0
 14 15  2  0  0  0  0
 14 40  1  0  0  0  0
 15 16  1  0  0  0  0
 15 41  1  0  0  0  0
 16 17  2  0  0  0  0
 16 42  1  0  0  0  0
 17 18  1  0  0  0  0
 17 27  1  0  0  0  0
 18 19  1  0  0  0  0
 18 43  1  0  0  0  0
 19 20  2  0  0  0  0
 19 21  1  0  0  0  0
 21 22  1  0  0  0  0
 21 44  1  0  0  0  0
 22 23  1  0  0  0  0
 22 45  1  0  0  0  0
 22 46  1  0  0  0  0
 23 24  1  0  0  0  0
 23 25  1  0  0  0  0
 23 26  1  0  0  0  0
 27 47  1  0  0  0  0
 28 29  1  0  0  0  0
 28 48  1  0  0  0  0
 29 30  2  0  0  0  0
 30 31  1  0  0  0  0
 31 49  1  0  0  0  0
 32 33  1  0  0  0  0
 33 50  1  0  0  0  0
M  END
$$$$
