CHEMBL3403514
 OpenBabel04072215363D

 37 40  0  0  0  0  0  0  0  0999 V2000
    1.6938    0.1959    1.4787 C   0  0  0  0  0  0  0  0  0  0  0  0
    2.9866    0.0768    0.7304 C   0  0  0  0  0  0  0  0  0  0  0  0
    3.5521   -1.1462    0.6735 N   0  0  0  0  0  0  0  0  0  0  0  0
    4.7302   -1.3609    0.0118 C   0  0  0  0  0  0  0  0  0  0  0  0
    5.2482   -2.6751   -0.0212 N   0  0  0  0  0  0  0  0  0  0  0  0
    6.6986   -2.8511    0.0102 C   0  0  0  0  0  0  0  0  0  0  0  0
    4.4665   -3.8584    0.0775 C   0  0  0  0  0  0  0  0  0  0  0  0
    4.9354   -5.0300    0.7097 C   0  0  0  0  0  0  0  0  0  0  0  0
    4.1722   -6.2073    0.7970 C   0  0  0  0  0  0  0  0  0  0  0  0
    2.9148   -6.1690    0.2146 C   0  0  0  0  0  0  0  0  0  0  0  0
    2.0226   -7.2000    0.1801 O   0  0  0  0  0  0  0  0  0  0  0  0
    0.9261   -6.7473   -0.4802 C   0  0  0  0  0  0  0  0  0  0  0  0
    1.0990   -5.4410   -0.8760 C   0  0  0  0  0  0  0  0  0  0  0  0
    2.3889   -5.0568   -0.4248 C   0  0  0  0  0  0  0  0  0  0  0  0
    3.1726   -3.8912   -0.4903 C   0  0  0  0  0  0  0  0  0  0  0  0
    5.2962   -0.2324   -0.6163 C   0  0  0  0  0  0  0  0  0  0  0  0
    6.4177    0.0642   -1.4453 C   0  0  0  0  0  0  0  0  0  0  0  0
    6.3736    1.4132   -1.7131 C   0  0  0  0  0  0  0  0  0  0  0  0
    7.2462    2.3219   -2.4810 C   0  0  0  0  0  0  0  0  0  0  0  0
    5.2757    1.9671   -1.1346 O   0  0  0  0  0  0  0  0  0  0  0  0
    4.6129    0.9706   -0.4799 C   0  0  0  0  0  0  0  0  0  0  0  0
    3.4687    1.1920    0.1750 N   0  0  0  0  0  0  0  0  0  0  0  0
    1.3928   -0.7664    1.9034 H   0  0  0  0  0  0  0  0  0  0  0  0
    0.9012    0.5378    0.8043 H   0  0  0  0  0  0  0  0  0  0  0  0
    1.7990    0.9166    2.2948 H   0  0  0  0  0  0  0  0  0  0  0  0
    7.2691   -1.9248   -0.0673 H   0  0  0  0  0  0  0  0  0  0  0  0
    7.0152   -3.4961   -0.8187 H   0  0  0  0  0  0  0  0  0  0  0  0
    7.0330   -3.2947    0.9537 H   0  0  0  0  0  0  0  0  0  0  0  0
    5.9085   -5.0541    1.1908 H   0  0  0  0  0  0  0  0  0  0  0  0
    4.5401   -7.0937    1.2950 H   0  0  0  0  0  0  0  0  0  0  0  0
    0.1212   -7.4611   -0.5881 H   0  0  0  0  0  0  0  0  0  0  0  0
    0.3866   -4.8381   -1.4200 H   0  0  0  0  0  0  0  0  0  0  0  0
    2.7730   -3.0183   -0.9987 H   0  0  0  0  0  0  0  0  0  0  0  0
    7.1750   -0.6146   -1.8083 H   0  0  0  0  0  0  0  0  0  0  0  0
    8.1114    1.7826   -2.8799 H   0  0  0  0  0  0  0  0  0  0  0  0
    7.6156    3.1302   -1.8430 H   0  0  0  0  0  0  0  0  0  0  0  0
    6.7006    2.7604   -3.3214 H   0  0  0  0  0  0  0  0  0  0  0  0
  1  2  1  0  0  0  0
  1 23  1  0  0  0  0
  1 24  1  0  0  0  0
  1 25  1  0  0  0  0
  2  3  1  0  0  0  0
  2 22  2  0  0  0  0
  3  4  2  0  0  0  0
  4  5  1  0  0  0  0
  4 16  1  0  0  0  0
  5  6  1  0  0  0  0
  5  7  1  0  0  0  0
  6 26  1  0  0  0  0
  6 27  1  0  0  0  0
  6 28  1  0  0  0  0
  7  8  1  0  0  0  0
  7 15  2  0  0  0  0
  8  9  2  0  0  0  0
  8 29  1  0  0  0  0
  9 10  1  0  0  0  0
  9 30  1  0  0  0  0
 10 11  1  0  0  0  0
 10 14  2  0  0  0  0
 11 12  1  0  0  0  0
 12 13  2  0  0  0  0
 12 31  1  0  0  0  0
 13 14  1  0  0  0  0
 13 32  1  0  0  0  0
 14 15  1  0  0  0  0
 15 33  1  0  0  0  0
 16 17  1  0  0  0  0
 16 21  2  0  0  0  0
 17 18  2  0  0  0  0
 17 34  1  0  0  0  0
 18 19  1  0  0  0  0
 18 20  1  0  0  0  0
 19 35  1  0  0  0  0
 19 36  1  0  0  0  0
 19 37  1  0  0  0  0
 20 21  1  0  0  0  0
 21 22  1  0  0  0  0
M  END
$$$$
