CHEMBL3967722
 OpenBabel04072215373D

 42 45  0  0  0  0  0  0  0  0999 V2000
    1.4430   -0.7572   -0.3483 O   0  0  0  0  0  0  0  0  0  0  0  0
    2.3920   -0.0613    0.0105 C   0  0  0  0  0  0  0  0  0  0  0  0
    2.7631    1.0735   -0.8736 C   0  0  0  0  0  0  0  0  0  0  0  0
    3.2622    2.3012   -0.4336 C   0  0  0  0  0  0  0  0  0  0  0  0
    3.6908    3.2481   -1.3627 C   0  0  0  0  0  0  0  0  0  0  0  0
    3.5203    2.9730   -2.7087 C   0  0  0  0  0  0  0  0  0  0  0  0
    2.9596    1.8366   -3.1713 N   0  0  0  0  0  0  0  0  0  0  0  0
    2.5914    0.9139   -2.2448 C   0  0  0  0  0  0  0  0  0  0  0  0
    3.1252   -0.3532    1.1661 N   0  0  0  0  0  0  0  0  0  0  0  0
    2.7547   -1.5313    1.9596 C   0  0  0  0  0  0  0  0  0  0  0  0
    3.8478   -2.5991    1.8804 C   0  0  0  0  0  0  0  0  0  0  0  0
    5.2141   -2.0063    2.1082 C   0  0  0  0  0  0  0  0  0  0  0  0
    6.2141   -2.8544    2.3962 N   0  0  0  0  0  0  0  0  0  0  0  0
    7.4590   -2.3596    2.5416 C   0  0  0  0  0  0  0  0  0  0  0  0
    8.5088   -3.2259    2.8070 N   0  0  0  0  0  0  0  0  0  0  0  0
    8.4511   -4.4535    3.4828 C   0  0  0  0  0  0  0  0  0  0  0  0
    9.4127   -5.4358    3.2153 C   0  0  0  0  0  0  0  0  0  0  0  0
    9.3235   -6.7015    3.8054 C   0  0  0  0  0  0  0  0  0  0  0  0
    8.2799   -6.9909    4.6813 C   0  0  0  0  0  0  0  0  0  0  0  0
    7.3388   -6.0154    4.9609 C   0  0  0  0  0  0  0  0  0  0  0  0
    6.3343   -6.2810    5.8085 F   0  0  0  0  0  0  0  0  0  0  0  0
    7.4118   -4.7611    4.3688 C   0  0  0  0  0  0  0  0  0  0  0  0
    7.7627   -1.0605    2.4136 N   0  0  0  0  0  0  0  0  0  0  0  0
    6.7389   -0.2354    2.1430 C   0  0  0  0  0  0  0  0  0  0  0  0
    5.4387   -0.6573    1.9563 C   0  0  0  0  0  0  0  0  0  0  0  0
    4.3565    0.3009    1.6018 C   0  0  0  0  0  0  0  0  0  0  0  0
    3.3407    2.5335    0.6230 H   0  0  0  0  0  0  0  0  0  0  0  0
    4.1475    4.1784   -1.0429 H   0  0  0  0  0  0  0  0  0  0  0  0
    3.8314    3.6823   -3.4707 H   0  0  0  0  0  0  0  0  0  0  0  0
    2.1477    0.0102   -2.6575 H   0  0  0  0  0  0  0  0  0  0  0  0
    1.8010   -1.9575    1.6316 H   0  0  0  0  0  0  0  0  0  0  0  0
    2.6194   -1.1969    2.9958 H   0  0  0  0  0  0  0  0  0  0  0  0
    3.8434   -3.0601    0.8852 H   0  0  0  0  0  0  0  0  0  0  0  0
    3.6526   -3.3867    2.6172 H   0  0  0  0  0  0  0  0  0  0  0  0
    9.3943   -2.7421    2.8195 H   0  0  0  0  0  0  0  0  0  0  0  0
   10.2125   -5.2348    2.5073 H   0  0  0  0  0  0  0  0  0  0  0  0
   10.0565   -7.4658    3.5617 H   0  0  0  0  0  0  0  0  0  0  0  0
    8.1871   -7.9694    5.1393 H   0  0  0  0  0  0  0  0  0  0  0  0
    6.6493   -4.0304    4.6158 H   0  0  0  0  0  0  0  0  0  0  0  0
    7.0101    0.8134    2.0640 H   0  0  0  0  0  0  0  0  0  0  0  0
    4.7648    0.9342    0.8183 H   0  0  0  0  0  0  0  0  0  0  0  0
    4.1034    0.9115    2.4762 H   0  0  0  0  0  0  0  0  0  0  0  0
  1  2  2  0  0  0  0
  2  3  1  0  0  0  0
  2  9  1  0  0  0  0
  3  4  1  0  0  0  0
  3  8  2  0  0  0  0
  4  5  2  0  0  0  0
  4 27  1  0  0  0  0
  5  6  1  0  0  0  0
  5 28  1  0  0  0  0
  6  7  2  0  0  0  0
  6 29  1  0  0  0  0
  7  8  1  0  0  0  0
  8 30  1  0  0  0  0
  9 10  1  0  0  0  0
  9 26  1  0  0  0  0
 10 11  1  0  0  0  0
 10 31  1  0  0  0  0
 10 32  1  0  0  0  0
 11 12  1  0  0  0  0
 11 33  1  0  0  0  0
 11 34  1  0  0  0  0
 12 13  1  0  0  0  0
 12 25  2  0  0  0  0
 13 14  2  0  0  0  0
 14 15  1  0  0  0  0
 14 23  1  0  0  0  0
 15 16  1  0  0  0  0
 15 35  1  0  0  0  0
 16 17  1  0  0  0  0
 16 22  2  0  0  0  0
 17 18  2  0  0  0  0
 17 36  1  0  0  0  0
 18 19  1  0  0  0  0
 18 37  1  0  0  0  0
 19 20  2  0  0  0  0
 19 38  1  0  0  0  0
 20 21  1  0  0  0  0
 20 22  1  0  0  0  0
 22 39  1  0  0  0  0
 23 24  2  0  0  0  0
 24 25  1  0  0  0  0
 24 40  1  0  0  0  0
 25 26  1  0  0  0  0
 26 41  1  0  0  0  0
 26 42  1  0  0  0  0
M  END
$$$$
