CHEMBL3660299
 OpenBabel04072215373D

 56 59  0  0  0  0  0  0  0  0999 V2000
    3.1532   -0.3750  -10.2965 C   0  0  0  0  0  0  0  0  0  0  0  0
    3.9865   -0.0870   -9.1618 N   0  0  0  0  0  0  0  0  0  0  0  0
    3.4521    0.3488   -7.9744 C   0  0  0  0  0  0  0  0  0  0  0  0
    2.2446    0.4994   -7.8079 O   0  0  0  0  0  0  0  0  0  0  0  0
    4.4126    0.6264   -6.9284 C   0  0  0  0  0  0  0  0  0  0  0  0
    5.7978    0.5777   -6.8858 C   0  0  0  0  0  0  0  0  0  0  0  0
    6.2303    1.0048   -5.5958 C   0  0  0  0  0  0  0  0  0  0  0  0
    7.5912    1.1966   -5.1089 C   0  0  0  0  0  0  0  0  0  0  0  0
    7.8651    2.0965   -4.0892 C   0  0  0  0  0  0  0  0  0  0  0  0
    9.1952    2.3858   -3.7957 C   0  0  0  0  0  0  0  0  0  0  0  0
    9.5847    3.3518   -2.8942 O   0  0  0  0  0  0  0  0  0  0  0  0
    8.8168    4.4910   -2.7759 C   0  0  0  0  0  0  0  0  0  0  0  0
    8.7009    5.0250   -1.4983 C   0  0  0  0  0  0  0  0  0  0  0  0
    7.8951    6.1432   -1.2802 C   0  0  0  0  0  0  0  0  0  0  0  0
    7.1898    6.7482   -2.3339 C   0  0  0  0  0  0  0  0  0  0  0  0
    6.2915    7.8220   -2.1621 N   0  0  0  0  0  0  0  0  0  0  0  0
    6.0849    8.5273   -0.9949 C   0  0  0  0  0  0  0  0  0  0  0  0
    6.7436    8.4014    0.0297 O   0  0  0  0  0  0  0  0  0  0  0  0
    5.0049    9.3955   -1.0980 N   0  0  0  0  0  0  0  0  0  0  0  0
    4.6438   10.2068    0.0079 C   0  0  0  0  0  0  0  0  0  0  0  0
    5.6009   10.9166    0.7420 C   0  0  0  0  0  0  0  0  0  0  0  0
    5.2317   11.6438    1.8822 C   0  0  0  0  0  0  0  0  0  0  0  0
    6.2584   12.4077    2.6666 C   0  0  0  0  0  0  0  0  0  0  0  0
    3.8902   11.6438    2.2876 C   0  0  0  0  0  0  0  0  0  0  0  0
    2.9276   10.9580    1.5434 C   0  0  0  0  0  0  0  0  0  0  0  0
    3.3065   10.2665    0.3972 C   0  0  0  0  0  0  0  0  0  0  0  0
    2.3792    9.5914   -0.3000 F   0  0  0  0  0  0  0  0  0  0  0  0
    7.3598    6.2358   -3.6248 C   0  0  0  0  0  0  0  0  0  0  0  0
    8.1906    5.1309   -3.8494 C   0  0  0  0  0  0  0  0  0  0  0  0
   10.2068    1.6719   -4.4215 C   0  0  0  0  0  0  0  0  0  0  0  0
    9.8428    0.7590   -5.3942 C   0  0  0  0  0  0  0  0  0  0  0  0
    8.5653    0.5301   -5.7750 N   0  0  0  0  0  0  0  0  0  0  0  0
    5.0836    1.2723   -4.8728 C   0  0  0  0  0  0  0  0  0  0  0  0
    4.0028    1.0412   -5.6800 N   0  0  0  0  0  0  0  0  0  0  0  0
    3.7765   -0.7871  -11.0932 H   0  0  0  0  0  0  0  0  0  0  0  0
    2.6760    0.5484  -10.6356 H   0  0  0  0  0  0  0  0  0  0  0  0
    2.3837   -1.0976  -10.0113 H   0  0  0  0  0  0  0  0  0  0  0  0
    4.9877   -0.1827   -9.2486 H   0  0  0  0  0  0  0  0  0  0  0  0
    6.4590    0.3010   -7.6967 H   0  0  0  0  0  0  0  0  0  0  0  0
    7.0624    2.6137   -3.5783 H   0  0  0  0  0  0  0  0  0  0  0  0
    9.2200    4.5682   -0.6607 H   0  0  0  0  0  0  0  0  0  0  0  0
    7.8191    6.5059   -0.2598 H   0  0  0  0  0  0  0  0  0  0  0  0
    5.8376    8.1826   -2.9873 H   0  0  0  0  0  0  0  0  0  0  0  0
    4.2239    9.0316   -1.6295 H   0  0  0  0  0  0  0  0  0  0  0  0
    6.6446   10.8950    0.4334 H   0  0  0  0  0  0  0  0  0  0  0  0
    7.2613   12.2856    2.2437 H   0  0  0  0  0  0  0  0  0  0  0  0
    6.2868   12.0547    3.7022 H   0  0  0  0  0  0  0  0  0  0  0  0
    6.0188   13.4758    2.6550 H   0  0  0  0  0  0  0  0  0  0  0  0
    3.5925   12.1753    3.1890 H   0  0  0  0  0  0  0  0  0  0  0  0
    1.8907   10.9432    1.8624 H   0  0  0  0  0  0  0  0  0  0  0  0
    6.8416    6.6752   -4.4713 H   0  0  0  0  0  0  0  0  0  0  0  0
    8.3131    4.7637   -4.8644 H   0  0  0  0  0  0  0  0  0  0  0  0
   11.2483    1.8386   -4.1726 H   0  0  0  0  0  0  0  0  0  0  0  0
   10.5947    0.1811   -5.9244 H   0  0  0  0  0  0  0  0  0  0  0  0
    4.9337    1.6122   -3.8568 H   0  0  0  0  0  0  0  0  0  0  0  0
    3.0300    1.1660   -5.4257 H   0  0  0  0  0  0  0  0  0  0  0  0
  1  2  1  0  0  0  0
  1 35  1  0  0  0  0
  1 36  1  0  0  0  0
  1 37  1  0  0  0  0
  2  3  1  0  0  0  0
  2 38  1  0  0  0  0
  3  4  2  0  0  0  0
  3  5  1  0  0  0  0
  5  6  2  0  0  0  0
  5 34  1  0  0  0  0
  6  7  1  0  0  0  0
  6 39  1  0  0  0  0
  7  8  1  0  0  0  0
  7 33  2  0  0  0  0
  8  9  1  0  0  0  0
  8 32  2  0  0  0  0
  9 10  2  0  0  0  0
  9 40  1  0  0  0  0
 10 11  1  0  0  0  0
 10 30  1  0  0  0  0
 11 12  1  0  0  0  0
 12 13  1  0  0  0  0
 12 29  2  0  0  0  0
 13 14  2  0  0  0  0
 13 41  1  0  0  0  0
 14 15  1  0  0  0  0
 14 42  1  0  0  0  0
 15 16  1  0  0  0  0
 15 28  2  0  0  0  0
 16 17  1  0  0  0  0
 16 43  1  0  0  0  0
 17 18  2  0  0  0  0
 17 19  1  0  0  0  0
 19 20  1  0  0  0  0
 19 44  1  0  0  0  0
 20 21  1  0  0  0  0
 20 26  2  0  0  0  0
 21 22  2  0  0  0  0
 21 45  1  0  0  0  0
 22 23  1  0  0  0  0
 22 24  1  0  0  0  0
 23 46  1  0  0  0  0
 23 47  1  0  0  0  0
 23 48  1  0  0  0  0
 24 25  2  0  0  0  0
 24 49  1  0  0  0  0
 25 26  1  0  0  0  0
 25 50  1  0  0  0  0
 26 27  1  0  0  0  0
 28 29  1  0  0  0  0
 28 51  1  0  0  0  0
 29 52  1  0  0  0  0
 30 31  2  0  0  0  0
 30 53  1  0  0  0  0
 31 32  1  0  0  0  0
 31 54  1  0  0  0  0
 33 34  1  0  0  0  0
 33 55  1  0  0  0  0
 34 56  1  0  0  0  0
M  END
$$$$
