CHEMBL247798
 OpenBabel04072215363D

 51 54  0  0  0  0  0  0  0  0999 V2000
    3.2391   -6.2986    4.4152 C   0  0  0  0  0  0  0  0  0  0  0  0
    3.0745   -5.0595    3.5516 C   0  0  0  0  0  0  0  0  0  0  0  0
    3.6262   -5.2169    2.2202 N   0  0  0  0  0  0  0  0  0  0  0  0
    4.9792   -5.0936    2.0040 C   0  0  0  0  0  0  0  0  0  0  0  0
    5.7775   -4.8941    2.9149 O   0  0  0  0  0  0  0  0  0  0  0  0
    5.2963   -5.1619    0.6674 N   0  0  0  0  0  0  0  0  0  0  0  0
    6.6185   -4.9822    0.2383 C   0  0  0  0  0  0  0  0  0  0  0  0
    7.6709   -5.6463    0.8548 C   0  0  0  0  0  0  0  0  0  0  0  0
    8.9698   -5.3615    0.4498 C   0  0  0  0  0  0  0  0  0  0  0  0
    9.1924   -4.4014   -0.5400 C   0  0  0  0  0  0  0  0  0  0  0  0
   10.5926   -4.0225   -0.9415 C   0  0  0  0  0  0  0  0  0  0  0  0
   11.2882   -3.4961    0.2280 N   0  0  0  0  0  0  0  0  0  0  0  0
   12.6363   -3.5666    0.3186 C   0  0  0  0  0  0  0  0  0  0  0  0
   13.3468   -4.2152   -0.6639 N   0  0  0  0  0  0  0  0  0  0  0  0
   14.6318   -4.1239   -0.4054 C   0  0  0  0  0  0  0  0  0  0  0  0
   15.0571   -3.2873    1.0234 S   0  0  0  0  0  0  0  0  0  0  0  0
   13.3854   -3.0253    1.3462 C   0  0  0  0  0  0  0  0  0  0  0  0
   13.0013   -2.3266    2.5572 C   0  0  0  0  0  0  0  0  0  0  0  0
   13.7309   -1.4845    3.0787 O   0  0  0  0  0  0  0  0  0  0  0  0
   11.7847   -2.7332    3.0930 N   0  0  0  0  0  0  0  0  0  0  0  0
   11.1783   -2.2352    4.2710 C   0  0  0  0  0  0  0  0  0  0  0  0
   11.5450   -1.0040    4.8532 C   0  0  0  0  0  0  0  0  0  0  0  0
   10.9646   -0.5585    6.0459 C   0  0  0  0  0  0  0  0  0  0  0  0
   10.0260   -1.3668    6.6396 C   0  0  0  0  0  0  0  0  0  0  0  0
    9.6396   -2.5590    6.0709 C   0  0  0  0  0  0  0  0  0  0  0  0
   10.1787   -3.0097    4.8786 C   0  0  0  0  0  0  0  0  0  0  0  0
    8.7114   -3.2104    6.8234 O   0  0  0  0  0  0  0  0  0  0  0  0
    8.6074   -2.3055    7.9337 C   0  0  0  0  0  0  0  0  0  0  0  0
    7.3075   -1.9538    8.0897 F   0  0  0  0  0  0  0  0  0  0  0  0
    8.9915   -2.9569    9.0603 F   0  0  0  0  0  0  0  0  0  0  0  0
    9.3904   -1.1116    7.8128 O   0  0  0  0  0  0  0  0  0  0  0  0
    8.0708   -3.8292   -1.1302 C   0  0  0  0  0  0  0  0  0  0  0  0
    6.7918   -4.1240   -0.7879 N   0  0  0  0  0  0  0  0  0  0  0  0
    2.8354   -6.1148    5.4165 H   0  0  0  0  0  0  0  0  0  0  0  0
    4.2915   -6.5807    4.5210 H   0  0  0  0  0  0  0  0  0  0  0  0
    2.7050   -7.1510    3.9838 H   0  0  0  0  0  0  0  0  0  0  0  0
    3.5648   -4.2070    4.0349 H   0  0  0  0  0  0  0  0  0  0  0  0
    2.0139   -4.8197    3.4355 H   0  0  0  0  0  0  0  0  0  0  0  0
    3.1017   -5.7491    1.5400 H   0  0  0  0  0  0  0  0  0  0  0  0
    4.6313   -4.7133    0.0560 H   0  0  0  0  0  0  0  0  0  0  0  0
    7.4920   -6.3684    1.6442 H   0  0  0  0  0  0  0  0  0  0  0  0
    9.8070   -5.8684    0.9236 H   0  0  0  0  0  0  0  0  0  0  0  0
   10.5817   -3.2620   -1.7307 H   0  0  0  0  0  0  0  0  0  0  0  0
   11.0769   -4.9185   -1.3490 H   0  0  0  0  0  0  0  0  0  0  0  0
   10.8214   -2.6795    0.6184 H   0  0  0  0  0  0  0  0  0  0  0  0
   15.3857   -4.5484   -1.0551 H   0  0  0  0  0  0  0  0  0  0  0  0
   11.3667   -3.5648    2.6802 H   0  0  0  0  0  0  0  0  0  0  0  0
   12.2830   -0.3561    4.3874 H   0  0  0  0  0  0  0  0  0  0  0  0
   11.2589    0.3871    6.4888 H   0  0  0  0  0  0  0  0  0  0  0  0
    9.8516   -3.9582    4.4644 H   0  0  0  0  0  0  0  0  0  0  0  0
    8.1635   -3.0775   -1.9105 H   0  0  0  0  0  0  0  0  0  0  0  0
  1  2  1  0  0  0  0
  1 34  1  0  0  0  0
  1 35  1  0  0  0  0
  1 36  1  0  0  0  0
  2  3  1  0  0  0  0
  2 37  1  0  0  0  0
  2 38  1  0  0  0  0
  3  4  1  0  0  0  0
  3 39  1  0  0  0  0
  4  5  2  0  0  0  0
  4  6  1  0  0  0  0
  6  7  1  0  0  0  0
  6 40  1  0  0  0  0
  7  8  1  0  0  0  0
  7 33  2  0  0  0  0
  8  9  2  0  0  0  0
  8 41  1  0  0  0  0
  9 10  1  0  0  0  0
  9 42  1  0  0  0  0
 10 11  1  0  0  0  0
 10 32  2  0  0  0  0
 11 12  1  0  0  0  0
 11 43  1  0  0  0  0
 11 44  1  0  0  0  0
 12 13  1  0  0  0  0
 12 45  1  0  0  0  0
 13 14  1  0  0  0  0
 13 17  2  0  0  0  0
 14 15  2  0  0  0  0
 15 16  1  0  0  0  0
 15 46  1  0  0  0  0
 16 17  1  0  0  0  0
 17 18  1  0  0  0  0
 18 19  2  0  0  0  0
 18 20  1  0  0  0  0
 20 21  1  0  0  0  0
 20 47  1  0  0  0  0
 21 22  1  0  0  0  0
 21 26  2  0  0  0  0
 22 23  2  0  0  0  0
 22 48  1  0  0  0  0
 23 24  1  0  0  0  0
 23 49  1  0  0  0  0
 24 25  2  0  0  0  0
 24 31  1  0  0  0  0
 25 26  1  0  0  0  0
 25 27  1  0  0  0  0
 26 50  1  0  0  0  0
 27 28  1  0  0  0  0
 28 29  1  0  0  0  0
 28 30  1  0  0  0  0
 28 31  1  0  0  0  0
 32 33  1  0  0  0  0
 32 51  1  0  0  0  0
M  END
$$$$
