CHEMBL1290071
 OpenBabel04072215363D

 41 45  0  0  0  0  0  0  0  0999 V2000
   -0.4324   -2.2182    1.1634 C   0  0  0  0  0  0  0  0  0  0  0  0
   -0.2759   -1.4675    0.0063 C   0  0  0  0  0  0  0  0  0  0  0  0
   -0.5196   -0.0887    0.0252 C   0  0  0  0  0  0  0  0  0  0  0  0
   -0.9323    0.5807    1.2050 C   0  0  0  0  0  0  0  0  0  0  0  0
   -1.2527    1.9711    1.2845 C   0  0  0  0  0  0  0  0  0  0  0  0
   -1.2834    2.8985    0.0863 C   0  0  0  0  0  0  0  0  0  0  0  0
    0.0317    3.4727   -0.1274 N   0  0  0  0  0  0  0  0  0  0  0  0
    0.3043    4.8311   -0.1731 C   0  0  0  0  0  0  0  0  0  0  0  0
   -0.3850    5.7832    0.5982 C   0  0  0  0  0  0  0  0  0  0  0  0
   -0.0203    7.1239    0.5518 C   0  0  0  0  0  0  0  0  0  0  0  0
    0.9658    7.6460   -0.1998 N   0  0  0  0  0  0  0  0  0  0  0  0
    1.6198    6.7169   -0.9182 C   0  0  0  0  0  0  0  0  0  0  0  0
    2.6614    7.0337   -1.7350 O   0  0  0  0  0  0  0  0  0  0  0  0
    3.1012    5.8774   -2.2905 C   0  0  0  0  0  0  0  0  0  0  0  0
    4.1600    5.7744   -3.1928 C   0  0  0  0  0  0  0  0  0  0  0  0
    4.4685    4.4920   -3.6572 C   0  0  0  0  0  0  0  0  0  0  0  0
    3.7457    3.3785   -3.2310 C   0  0  0  0  0  0  0  0  0  0  0  0
    2.6851    3.5153   -2.3264 C   0  0  0  0  0  0  0  0  0  0  0  0
    2.3479    4.7970   -1.8448 C   0  0  0  0  0  0  0  0  0  0  0  0
    1.3700    5.3439   -0.9539 C   0  0  0  0  0  0  0  0  0  0  0  0
   -1.5766    2.5388    2.5321 C   0  0  0  0  0  0  0  0  0  0  0  0
   -1.6361    1.7628    3.6815 C   0  0  0  0  0  0  0  0  0  0  0  0
   -1.3818    0.3995    3.6043 C   0  0  0  0  0  0  0  0  0  0  0  0
   -1.0362   -0.2027    2.3865 C   0  0  0  0  0  0  0  0  0  0  0  0
   -0.7980   -1.5858    2.3481 C   0  0  0  0  0  0  0  0  0  0  0  0
   -0.2671   -3.2925    1.1500 H   0  0  0  0  0  0  0  0  0  0  0  0
    0.0306   -1.9553   -0.9155 H   0  0  0  0  0  0  0  0  0  0  0  0
   -0.3720    0.4588   -0.9012 H   0  0  0  0  0  0  0  0  0  0  0  0
   -2.0638    3.6577    0.2196 H   0  0  0  0  0  0  0  0  0  0  0  0
   -1.5915    2.3481   -0.8107 H   0  0  0  0  0  0  0  0  0  0  0  0
    0.6008    2.9124   -0.7456 H   0  0  0  0  0  0  0  0  0  0  0  0
   -1.1849    5.4894    1.2641 H   0  0  0  0  0  0  0  0  0  0  0  0
   -0.5453    7.8499    1.1687 H   0  0  0  0  0  0  0  0  0  0  0  0
    4.7159    6.6480   -3.5111 H   0  0  0  0  0  0  0  0  0  0  0  0
    5.2892    4.3584   -4.3588 H   0  0  0  0  0  0  0  0  0  0  0  0
    4.0066    2.3882   -3.5989 H   0  0  0  0  0  0  0  0  0  0  0  0
    2.1504    2.6273   -2.0095 H   0  0  0  0  0  0  0  0  0  0  0  0
   -1.7932    3.6012    2.6088 H   0  0  0  0  0  0  0  0  0  0  0  0
   -1.8905    2.2178    4.6342 H   0  0  0  0  0  0  0  0  0  0  0  0
   -1.4491   -0.1951    4.5132 H   0  0  0  0  0  0  0  0  0  0  0  0
   -0.9038   -2.1871    3.2488 H   0  0  0  0  0  0  0  0  0  0  0  0
  1  2  1  0  0  0  0
  1 25  2  0  0  0  0
  1 26  1  0  0  0  0
  2  3  2  0  0  0  0
  2 27  1  0  0  0  0
  3  4  1  0  0  0  0
  3 28  1  0  0  0  0
  4  5  1  0  0  0  0
  4 24  2  0  0  0  0
  5  6  1  0  0  0  0
  5 21  2  0  0  0  0
  6  7  1  0  0  0  0
  6 29  1  0  0  0  0
  6 30  1  0  0  0  0
  7  8  1  0  0  0  0
  7 31  1  0  0  0  0
  8  9  1  0  0  0  0
  8 20  2  0  0  0  0
  9 10  2  0  0  0  0
  9 32  1  0  0  0  0
 10 11  1  0  0  0  0
 10 33  1  0  0  0  0
 11 12  2  0  0  0  0
 12 13  1  0  0  0  0
 12 20  1  0  0  0  0
 13 14  1  0  0  0  0
 14 15  1  0  0  0  0
 14 19  2  0  0  0  0
 15 16  2  0  0  0  0
 15 34  1  0  0  0  0
 16 17  1  0  0  0  0
 16 35  1  0  0  0  0
 17 18  2  0  0  0  0
 17 36  1  0  0  0  0
 18 19  1  0  0  0  0
 18 37  1  0  0  0  0
 19 20  1  0  0  0  0
 21 22  1  0  0  0  0
 21 38  1  0  0  0  0
 22 23  2  0  0  0  0
 22 39  1  0  0  0  0
 23 24  1  0  0  0  0
 23 40  1  0  0  0  0
 24 25  1  0  0  0  0
 25 41  1  0  0  0  0
M  END
$$$$
