CHEMBL3287303
 OpenBabel04072215363D

 67 71  0  0  0  0  0  0  0  0999 V2000
   19.4290   -6.4344   -3.0518 C   0  0  0  0  0  0  0  0  0  0  0  0
   17.7227   -6.7686   -2.7038 S   0  0  0  0  0  0  0  0  0  0  0  0
   17.0800   -7.0943   -3.9577 O   0  0  0  0  0  0  0  0  0  0  0  0
   17.7081   -7.7186   -1.6041 O   0  0  0  0  0  0  0  0  0  0  0  0
   17.1314   -5.1682   -2.1523 C   0  0  0  0  0  0  0  0  0  0  0  0
   15.7248   -5.2494   -1.6085 C   0  0  0  0  0  0  0  0  0  0  0  0
   15.4180   -6.0234   -0.4776 C   0  0  0  0  0  0  0  0  0  0  0  0
   14.1400   -6.0257    0.0661 C   0  0  0  0  0  0  0  0  0  0  0  0
   13.1506   -5.2406   -0.5081 C   0  0  0  0  0  0  0  0  0  0  0  0
   13.4223   -4.4258   -1.6163 C   0  0  0  0  0  0  0  0  0  0  0  0
   12.4336   -3.5834   -2.1641 N   0  0  0  0  0  0  0  0  0  0  0  0
   11.4170   -2.9811   -1.4161 C   0  0  0  0  0  0  0  0  0  0  0  0
   10.2576   -2.6740   -2.0068 N   0  0  0  0  0  0  0  0  0  0  0  0
    9.3249   -2.0786   -1.2280 C   0  0  0  0  0  0  0  0  0  0  0  0
    9.5150   -1.7459    0.0945 C   0  0  0  0  0  0  0  0  0  0  0  0
   10.7506   -2.0592    0.5873 C   0  0  0  0  0  0  0  0  0  0  0  0
   11.0874   -1.6637    1.8792 O   0  0  0  0  0  0  0  0  0  0  0  0
   12.4379   -1.4828    2.1263 C   0  0  0  0  0  0  0  0  0  0  0  0
   13.2888   -0.8646    1.2065 C   0  0  0  0  0  0  0  0  0  0  0  0
   14.6593   -0.7860    1.4457 C   0  0  0  0  0  0  0  0  0  0  0  0
   15.1990   -1.2591    2.6397 C   0  0  0  0  0  0  0  0  0  0  0  0
   16.5811   -1.2169    2.9254 N   0  0  0  0  0  0  0  0  0  0  0  0
   17.5529   -0.5970    2.1611 C   0  0  0  0  0  0  0  0  0  0  0  0
   17.3868    0.0680    1.1491 O   0  0  0  0  0  0  0  0  0  0  0  0
   18.9490   -0.8014    2.6683 C   0  0  0  0  0  0  0  0  0  0  0  0
   19.6091   -2.1568    2.5334 C   0  0  0  0  0  0  0  0  0  0  0  0
   20.7945   -2.2430    2.8360 O   0  0  0  0  0  0  0  0  0  0  0  0
   18.8310   -3.2209    2.0966 N   0  0  0  0  0  0  0  0  0  0  0  0
   19.2842   -4.5618    2.0990 C   0  0  0  0  0  0  0  0  0  0  0  0
   20.3590   -4.9973    2.8776 C   0  0  0  0  0  0  0  0  0  0  0  0
   20.8428   -6.3023    2.7763 C   0  0  0  0  0  0  0  0  0  0  0  0
   20.2371   -7.2002    1.9102 C   0  0  0  0  0  0  0  0  0  0  0  0
   19.1139   -6.8030    1.1938 C   0  0  0  0  0  0  0  0  0  0  0  0
   18.6311   -5.4931    1.2989 C   0  0  0  0  0  0  0  0  0  0  0  0
   19.3825    0.0253    3.8841 C   0  0  0  0  0  0  0  0  0  0  0  0
   19.8872    0.4128    2.5301 C   0  0  0  0  0  0  0  0  0  0  0  0
   14.3361   -1.8178    3.5939 C   0  0  0  0  0  0  0  0  0  0  0  0
   12.9582   -1.9252    3.3413 C   0  0  0  0  0  0  0  0  0  0  0  0
   11.6707   -2.7092   -0.1343 N   0  0  0  0  0  0  0  0  0  0  0  0
   14.7058   -4.4612   -2.1769 C   0  0  0  0  0  0  0  0  0  0  0  0
   19.9043   -7.3691   -3.3544 H   0  0  0  0  0  0  0  0  0  0  0  0
   19.9128   -6.0518   -2.1490 H   0  0  0  0  0  0  0  0  0  0  0  0
   19.4852   -5.7035   -3.8576 H   0  0  0  0  0  0  0  0  0  0  0  0
   17.1849   -4.5032   -3.0201 H   0  0  0  0  0  0  0  0  0  0  0  0
   17.8139   -4.7783   -1.3934 H   0  0  0  0  0  0  0  0  0  0  0  0
   16.1650   -6.6477    0.0054 H   0  0  0  0  0  0  0  0  0  0  0  0
   13.9139   -6.6279    0.9416 H   0  0  0  0  0  0  0  0  0  0  0  0
   12.1593   -5.2532   -0.0619 H   0  0  0  0  0  0  0  0  0  0  0  0
   12.0817   -3.8650   -3.0680 H   0  0  0  0  0  0  0  0  0  0  0  0
    8.3868   -1.8554   -1.7291 H   0  0  0  0  0  0  0  0  0  0  0  0
    8.7614   -1.2491    0.6860 H   0  0  0  0  0  0  0  0  0  0  0  0
   12.9113   -0.4912    0.2583 H   0  0  0  0  0  0  0  0  0  0  0  0
   15.2708   -0.3719    0.6516 H   0  0  0  0  0  0  0  0  0  0  0  0
   16.8795   -1.6625    3.7852 H   0  0  0  0  0  0  0  0  0  0  0  0
   17.9586   -3.0243    1.6142 H   0  0  0  0  0  0  0  0  0  0  0  0
   20.8435   -4.3396    3.5915 H   0  0  0  0  0  0  0  0  0  0  0  0
   21.6953   -6.6056    3.3767 H   0  0  0  0  0  0  0  0  0  0  0  0
   20.6237   -8.2102    1.8076 H   0  0  0  0  0  0  0  0  0  0  0  0
   18.6198   -7.5292    0.5557 H   0  0  0  0  0  0  0  0  0  0  0  0
   17.7560   -5.2028    0.7356 H   0  0  0  0  0  0  0  0  0  0  0  0
   20.0990   -0.4161    4.5715 H   0  0  0  0  0  0  0  0  0  0  0  0
   18.6658    0.6823    4.3601 H   0  0  0  0  0  0  0  0  0  0  0  0
   20.9285    0.2231    2.2864 H   0  0  0  0  0  0  0  0  0  0  0  0
   19.5033    1.3225    2.0817 H   0  0  0  0  0  0  0  0  0  0  0  0
   14.7190   -2.1806    4.5444 H   0  0  0  0  0  0  0  0  0  0  0  0
   12.3050   -2.3743    4.0842 H   0  0  0  0  0  0  0  0  0  0  0  0
   14.9232   -3.8237   -3.0314 H   0  0  0  0  0  0  0  0  0  0  0  0
  1  2  1  0  0  0  0
  1 41  1  0  0  0  0
  1 42  1  0  0  0  0
  1 43  1  0  0  0  0
  2  3  2  0  0  0  0
  2  4  2  0  0  0  0
  2  5  1  0  0  0  0
  5  6  1  0  0  0  0
  5 44  1  0  0  0  0
  5 45  1  0  0  0  0
  6  7  1  0  0  0  0
  6 40  2  0  0  0  0
  7  8  2  0  0  0  0
  7 46  1  0  0  0  0
  8  9  1  0  0  0  0
  8 47  1  0  0  0  0
  9 10  2  0  0  0  0
  9 48  1  0  0  0  0
 10 11  1  0  0  0  0
 10 40  1  0  0  0  0
 11 12  1  0  0  0  0
 11 49  1  0  0  0  0
 12 13  1  0  0  0  0
 12 39  2  0  0  0  0
 13 14  2  0  0  0  0
 14 15  1  0  0  0  0
 14 50  1  0  0  0  0
 15 16  2  0  0  0  0
 15 51  1  0  0  0  0
 16 17  1  0  0  0  0
 16 39  1  0  0  0  0
 17 18  1  0  0  0  0
 18 19  1  0  0  0  0
 18 38  2  0  0  0  0
 19 20  2  0  0  0  0
 19 52  1  0  0  0  0
 20 21  1  0  0  0  0
 20 53  1  0  0  0  0
 21 22  1  0  0  0  0
 21 37  2  0  0  0  0
 22 23  1  0  0  0  0
 22 54  1  0  0  0  0
 23 24  2  0  0  0  0
 23 25  1  0  0  0  0
 25 26  1  0  0  0  0
 25 35  1  0  0  0  0
 25 36  1  0  0  0  0
 26 27  2  0  0  0  0
 26 28  1  0  0  0  0
 28 29  1  0  0  0  0
 28 55  1  0  0  0  0
 29 30  1  0  0  0  0
 29 34  2  0  0  0  0
 30 31  2  0  0  0  0
 30 56  1  0  0  0  0
 31 32  1  0  0  0  0
 31 57  1  0  0  0  0
 32 33  2  0  0  0  0
 32 58  1  0  0  0  0
 33 34  1  0  0  0  0
 33 59  1  0  0  0  0
 34 60  1  0  0  0  0
 35 36  1  0  0  0  0
 35 61  1  0  0  0  0
 35 62  1  0  0  0  0
 36 63  1  0  0  0  0
 36 64  1  0  0  0  0
 37 38  1  0  0  0  0
 37 65  1  0  0  0  0
 38 66  1  0  0  0  0
 40 67  1  0  0  0  0
M  END
$$$$
