CHEMBL1940852
 OpenBabel04072215363D

 36 38  0  0  0  0  0  0  0  0999 V2000
    2.2959    6.2628    3.2652 C   0  0  0  0  0  0  0  0  0  0  0  0
    0.8648    5.9586    2.9804 C   0  0  0  0  0  0  0  0  0  0  0  0
   -0.1967    6.2729    3.8038 C   0  0  0  0  0  0  0  0  0  0  0  0
   -1.6960    5.7664    3.1634 S   0  0  0  0  0  0  0  0  0  0  0  0
   -0.9682    5.1173    1.7584 C   0  0  0  0  0  0  0  0  0  0  0  0
   -1.7122    4.4581    0.6843 C   0  0  0  0  0  0  0  0  0  0  0  0
   -1.1499    3.9961   -0.3067 O   0  0  0  0  0  0  0  0  0  0  0  0
   -3.2045    4.3528    0.7694 C   0  0  0  0  0  0  0  0  0  0  0  0
   -3.8692    3.4380    0.0432 C   0  0  0  0  0  0  0  0  0  0  0  0
   -5.3332    3.3449    0.0713 C   0  0  0  0  0  0  0  0  0  0  0  0
   -6.0713    4.1036   -0.8403 C   0  0  0  0  0  0  0  0  0  0  0  0
   -7.4684    3.9858   -0.8933 C   0  0  0  0  0  0  0  0  0  0  0  0
   -8.2348    4.6809   -1.8435 C   0  0  0  0  0  0  0  0  0  0  0  0
   -9.6168    4.5046   -1.9004 C   0  0  0  0  0  0  0  0  0  0  0  0
  -10.2518    3.6585   -0.9910 C   0  0  0  0  0  0  0  0  0  0  0  0
  -11.7392    3.4705   -1.0095 C   0  0  0  0  0  0  0  0  0  0  0  0
   -9.4783    2.9879   -0.0312 C   0  0  0  0  0  0  0  0  0  0  0  0
   -8.0986    3.1216    0.0254 C   0  0  0  0  0  0  0  0  0  0  0  0
   -7.4128    2.4204    0.9382 N   0  0  0  0  0  0  0  0  0  0  0  0
   -6.0651    2.5334    0.9392 C   0  0  0  0  0  0  0  0  0  0  0  0
   -5.3300    1.5572    2.1522 Cl  0  0  0  0  0  0  0  0  0  0  0  0
    0.4054    5.2930    1.7985 C   0  0  0  0  0  0  0  0  0  0  0  0
    2.4154    6.7617    4.2322 H   0  0  0  0  0  0  0  0  0  0  0  0
    2.7048    6.9184    2.4898 H   0  0  0  0  0  0  0  0  0  0  0  0
    2.8819    5.3386    3.2840 H   0  0  0  0  0  0  0  0  0  0  0  0
   -0.1640    6.7780    4.7604 H   0  0  0  0  0  0  0  0  0  0  0  0
   -3.7295    5.0343    1.4240 H   0  0  0  0  0  0  0  0  0  0  0  0
   -3.3492    2.7393   -0.6068 H   0  0  0  0  0  0  0  0  0  0  0  0
   -5.5582    4.7726   -1.5295 H   0  0  0  0  0  0  0  0  0  0  0  0
   -7.7582    5.3494   -2.5571 H   0  0  0  0  0  0  0  0  0  0  0  0
  -10.1911    5.0286   -2.6615 H   0  0  0  0  0  0  0  0  0  0  0  0
  -12.1938    3.9555   -1.8793 H   0  0  0  0  0  0  0  0  0  0  0  0
  -12.1811    3.9044   -0.1071 H   0  0  0  0  0  0  0  0  0  0  0  0
  -11.9863    2.4048   -1.0565 H   0  0  0  0  0  0  0  0  0  0  0  0
   -9.9621    2.3296    0.6879 H   0  0  0  0  0  0  0  0  0  0  0  0
    1.0566    4.9501    1.0016 H   0  0  0  0  0  0  0  0  0  0  0  0
  1  2  1  0  0  0  0
  1 23  1  0  0  0  0
  1 24  1  0  0  0  0
  1 25  1  0  0  0  0
  2  3  2  0  0  0  0
  2 22  1  0  0  0  0
  3  4  1  0  0  0  0
  3 26  1  0  0  0  0
  4  5  1  0  0  0  0
  5  6  1  0  0  0  0
  5 22  2  0  0  0  0
  6  7  2  0  0  0  0
  6  8  1  0  0  0  0
  8  9  2  0  0  0  0
  8 27  1  0  0  0  0
  9 10  1  0  0  0  0
  9 28  1  0  0  0  0
 10 11  1  0  0  0  0
 10 20  2  0  0  0  0
 11 12  2  0  0  0  0
 11 29  1  0  0  0  0
 12 13  1  0  0  0  0
 12 18  1  0  0  0  0
 13 14  2  0  0  0  0
 13 30  1  0  0  0  0
 14 15  1  0  0  0  0
 14 31  1  0  0  0  0
 15 16  1  0  0  0  0
 15 17  2  0  0  0  0
 16 32  1  0  0  0  0
 16 33  1  0  0  0  0
 16 34  1  0  0  0  0
 17 18  1  0  0  0  0
 17 35  1  0  0  0  0
 18 19  2  0  0  0  0
 19 20  1  0  0  0  0
 20 21  1  0  0  0  0
 22 36  1  0  0  0  0
M  END
$$$$
