CHEMBL3955359
 OpenBabel04072215373D

 53 57  0  0  1  0  0  0  0  0999 V2000
   -2.3348    3.1728    5.0728 C   0  0  0  0  0  0  0  0  0  0  0  0
   -1.6254    2.1072    4.4434 O   0  0  0  0  0  0  0  0  0  0  0  0
   -0.3182    1.9687    4.8370 C   0  0  0  0  0  0  0  0  0  0  0  0
    0.1161    2.2554    6.1327 C   0  0  0  0  0  0  0  0  0  0  0  0
    1.4730    2.1018    6.4901 C   0  0  0  0  0  0  0  0  0  0  0  0
    1.9827    2.2626    7.7882 C   0  0  0  0  0  0  0  0  0  0  0  0
    1.0969    2.5002    8.8718 N   0  0  0  0  0  0  0  0  0  0  0  0
    1.4409    2.2797   10.2247 C   0  0  0  0  0  0  0  0  0  0  0  0
    2.1177    1.1091   10.6094 C   0  0  0  0  0  0  0  0  0  0  0  0
    2.5529    0.9258   11.9197 C   0  0  0  0  0  0  0  0  0  0  0  0
    2.3017    1.9088   12.8773 C   0  0  0  0  0  0  0  0  0  0  0  0
    1.5877    3.0553   12.5209 C   0  0  0  0  0  0  0  0  0  0  0  0
    1.2828    4.2590   13.7159 Cl  0  0  0  0  0  0  0  0  0  0  0  0
    1.1492    3.2312   11.2101 C   0  0  0  0  0  0  0  0  0  0  0  0
    0.4650    4.3344   10.8583 F   0  0  0  0  0  0  0  0  0  0  0  0
    3.2953    2.1223    8.0547 N   0  0  0  0  0  0  0  0  0  0  0  0
    4.0936    1.7996    7.0396 C   0  0  0  0  0  0  0  0  0  0  0  0
    3.7068    1.5723    5.7814 N   0  0  0  0  0  0  0  0  0  0  0  0
    2.4023    1.7097    5.5216 C   0  0  0  0  0  0  0  0  0  0  0  0
    1.9522    1.3972    4.2472 C   0  0  0  0  0  0  0  0  0  0  0  0
    0.5993    1.4783    3.8991 C   0  0  0  0  0  0  0  0  0  0  0  0
    0.0885    1.0278    2.7086 O   0  0  0  0  0  0  0  0  0  0  0  0
    0.9241    1.0847    1.5424 C   0  0  1  0  0  0  0  0  0  0  0  0
    1.7306   -0.1969    1.3532 C   0  0  0  0  0  0  0  0  0  0  0  0
    0.8803   -1.1416    0.6876 O   0  0  0  0  0  0  0  0  0  0  0  0
   -0.0121   -0.3852   -0.1438 C   0  0  2  0  0  0  0  0  0  0  0  0
    0.5298   -0.3249   -1.5705 C   0  0  1  0  0  0  0  0  0  0  0  0
   -0.0850   -1.2453   -2.4685 O   0  0  0  0  0  0  0  0  0  0  0  0
    0.2023   -2.5997   -2.1245 C   0  0  0  0  0  0  0  0  0  0  0  0
    0.2318    1.1119   -1.9500 C   0  0  0  0  0  0  0  0  0  0  0  0
    0.4981    1.8640   -0.7558 O   0  0  0  0  0  0  0  0  0  0  0  0
   -0.0012    1.0632    0.3335 C   0  0  2  0  0  0  0  0  0  0  0  0
   -3.2651    3.3355    4.5223 H   0  0  0  0  0  0  0  0  0  0  0  0
   -1.7611    4.1079    5.0466 H   0  0  0  0  0  0  0  0  0  0  0  0
   -2.6030    2.9116    6.1018 H   0  0  0  0  0  0  0  0  0  0  0  0
   -0.5967    2.5622    6.8898 H   0  0  0  0  0  0  0  0  0  0  0  0
    0.5774    3.3633    8.7409 H   0  0  0  0  0  0  0  0  0  0  0  0
    2.3287    0.3399    9.8698 H   0  0  0  0  0  0  0  0  0  0  0  0
    3.1055    0.0279   12.1861 H   0  0  0  0  0  0  0  0  0  0  0  0
    2.6681    1.7786   13.8895 H   0  0  0  0  0  0  0  0  0  0  0  0
    5.1503    1.6980    7.2594 H   0  0  0  0  0  0  0  0  0  0  0  0
    2.6953    1.0401    3.5448 H   0  0  0  0  0  0  0  0  0  0  0  0
    1.5556    1.9812    1.5630 H   0  0  0  0  0  0  0  0  0  0  0  0
    2.0752   -0.6596    2.2794 H   0  0  0  0  0  0  0  0  0  0  0  0
    2.5959   -0.0144    0.7047 H   0  0  0  0  0  0  0  0  0  0  0  0
   -1.0059   -0.8394   -0.0821 H   0  0  0  0  0  0  0  0  0  0  0  0
    1.6163   -0.4824   -1.5873 H   0  0  0  0  0  0  0  0  0  0  0  0
   -0.1870   -3.2426   -2.9190 H   0  0  0  0  0  0  0  0  0  0  0  0
   -0.2955   -2.8748   -1.1919 H   0  0  0  0  0  0  0  0  0  0  0  0
    1.2804   -2.7625   -2.0407 H   0  0  0  0  0  0  0  0  0  0  0  0
   -0.8138    1.2546   -2.2481 H   0  0  0  0  0  0  0  0  0  0  0  0
    0.8691    1.4719   -2.7628 H   0  0  0  0  0  0  0  0  0  0  0  0
   -1.0147    1.4106    0.5637 H   0  0  0  0  0  0  0  0  0  0  0  0
  1  2  1  0  0  0  0
  1 33  1  0  0  0  0
  1 34  1  0  0  0  0
  1 35  1  0  0  0  0
  2  3  1  0  0  0  0
  3  4  1  0  0  0  0
  3 21  2  0  0  0  0
  4  5  2  0  0  0  0
  4 36  1  0  0  0  0
  5  6  1  0  0  0  0
  5 19  1  0  0  0  0
  6  7  1  0  0  0  0
  6 16  2  0  0  0  0
  7  8  1  0  0  0  0
  7 37  1  0  0  0  0
  8  9  1  0  0  0  0
  8 14  2  0  0  0  0
  9 10  2  0  0  0  0
  9 38  1  0  0  0  0
 10 11  1  0  0  0  0
 10 39  1  0  0  0  0
 11 12  2  0  0  0  0
 11 40  1  0  0  0  0
 12 13  1  0  0  0  0
 12 14  1  0  0  0  0
 14 15  1  0  0  0  0
 16 17  1  0  0  0  0
 17 18  2  0  0  0  0
 17 41  1  0  0  0  0
 18 19  1  0  0  0  0
 19 20  2  0  0  0  0
 20 21  1  0  0  0  0
 20 42  1  0  0  0  0
 21 22  1  0  0  0  0
 23 24  1  0  0  0  0
 23 32  1  0  0  0  0
 23 22  1  0  0  0  0
 23 43  1  1  0  0  0
 24 25  1  0  0  0  0
 24 44  1  0  0  0  0
 24 45  1  0  0  0  0
 25 26  1  0  0  0  0
 26 27  1  0  0  0  0
 26 32  1  0  0  0  0
 26 46  1  1  0  0  0
 27 28  1  0  0  0  0
 27 30  1  0  0  0  0
 27 47  1  1  0  0  0
 28 29  1  0  0  0  0
 29 48  1  0  0  0  0
 29 49  1  0  0  0  0
 29 50  1  0  0  0  0
 30 31  1  0  0  0  0
 30 51  1  0  0  0  0
 30 52  1  0  0  0  0
 31 32  1  0  0  0  0
 32 53  1  1  0  0  0
M  END
$$$$
