CHEMBL84332
 OpenBabel04072215383D

 59 63  0  0  0  0  0  0  0  0999 V2000
    0.9567    0.1971    0.3456 O   0  0  0  0  0  0  0  0  0  0  0  0
    2.1705    0.1877    0.1872 C   0  0  0  0  0  0  0  0  0  0  0  0
    2.9012    1.4817    0.0864 C   0  0  0  0  0  0  0  0  0  0  0  0
    4.2201    1.4938   -0.1440 C   0  0  0  0  0  0  0  0  0  0  0  0
    4.9578    0.2576   -0.2735 C   0  0  0  0  0  0  0  0  0  0  0  0
    6.3807    0.2138   -0.5973 C   0  0  0  0  0  0  0  0  0  0  0  0
    7.3272    0.1913    0.4329 C   0  0  0  0  0  0  0  0  0  0  0  0
    8.6920    0.2623    0.1554 C   0  0  0  0  0  0  0  0  0  0  0  0
    9.0539    0.4265   -1.1886 C   0  0  0  0  0  0  0  0  0  0  0  0
    8.1219    0.4689   -2.2243 C   0  0  0  0  0  0  0  0  0  0  0  0
    6.7657    0.2930   -1.9422 C   0  0  0  0  0  0  0  0  0  0  0  0
    8.7086    0.7685   -3.4242 N   0  0  0  0  0  0  0  0  0  0  0  0
    9.9695    0.9796   -3.1275 C   0  0  0  0  0  0  0  0  0  0  0  0
   10.2542    0.6882   -1.8131 N   0  0  0  0  0  0  0  0  0  0  0  0
   11.5464    0.6609   -1.2576 C   0  0  0  0  0  0  0  0  0  0  0  0
   12.4433    1.6828   -1.5822 C   0  0  0  0  0  0  0  0  0  0  0  0
   13.7719    1.5764   -1.1863 C   0  0  0  0  0  0  0  0  0  0  0  0
   14.2033    0.4449   -0.4941 C   0  0  0  0  0  0  0  0  0  0  0  0
   13.2948   -0.5563   -0.1406 C   0  0  0  0  0  0  0  0  0  0  0  0
   11.9527   -0.4430   -0.5005 C   0  0  0  0  0  0  0  0  0  0  0  0
    4.3131   -0.9136   -0.1488 C   0  0  0  0  0  0  0  0  0  0  0  0
    2.9488   -0.9636    0.0657 N   0  0  0  0  0  0  0  0  0  0  0  0
    2.2938   -2.2662    0.0293 C   0  0  0  0  0  0  0  0  0  0  0  0
    1.7694   -2.6277   -1.3657 C   0  0  0  0  0  0  0  0  0  0  0  0
    2.8511   -2.7915   -2.4483 C   0  0  0  0  0  0  0  0  0  0  0  0
    3.9155   -3.7647   -2.1337 N   0  0  0  0  0  0  0  0  0  0  0  0
    3.3895   -5.1303   -1.9886 C   0  0  0  0  0  0  0  0  0  0  0  0
    4.4982   -6.1217   -1.6330 C   0  0  0  0  0  0  0  0  0  0  0  0
    5.6174   -6.0959   -2.6644 C   0  0  0  0  0  0  0  0  0  0  0  0
    6.1148   -4.6700   -2.8636 C   0  0  0  0  0  0  0  0  0  0  0  0
    4.9591   -3.7175   -3.1773 C   0  0  0  0  0  0  0  0  0  0  0  0
    2.3147    2.3865    0.1817 H   0  0  0  0  0  0  0  0  0  0  0  0
    4.7592    2.4292   -0.2469 H   0  0  0  0  0  0  0  0  0  0  0  0
    6.9955    0.1540    1.4692 H   0  0  0  0  0  0  0  0  0  0  0  0
    9.4210    0.2905    0.9585 H   0  0  0  0  0  0  0  0  0  0  0  0
    6.0394    0.3126   -2.7479 H   0  0  0  0  0  0  0  0  0  0  0  0
   10.7334    1.2824   -3.8321 H   0  0  0  0  0  0  0  0  0  0  0  0
   12.1140    2.5707   -2.1169 H   0  0  0  0  0  0  0  0  0  0  0  0
   14.4744    2.3672   -1.4358 H   0  0  0  0  0  0  0  0  0  0  0  0
   15.2538    0.3399   -0.2363 H   0  0  0  0  0  0  0  0  0  0  0  0
   13.6439   -1.4400    0.3889 H   0  0  0  0  0  0  0  0  0  0  0  0
   11.2697   -1.2557   -0.2620 H   0  0  0  0  0  0  0  0  0  0  0  0
    4.8279   -1.8643   -0.2618 H   0  0  0  0  0  0  0  0  0  0  0  0
    1.4446   -2.2382    0.7238 H   0  0  0  0  0  0  0  0  0  0  0  0
    2.9780   -3.0324    0.4112 H   0  0  0  0  0  0  0  0  0  0  0  0
    1.0718   -1.8501   -1.7016 H   0  0  0  0  0  0  0  0  0  0  0  0
    1.1783   -3.5471   -1.2906 H   0  0  0  0  0  0  0  0  0  0  0  0
    3.3054   -1.8071   -2.6198 H   0  0  0  0  0  0  0  0  0  0  0  0
    2.3598   -3.0617   -3.3923 H   0  0  0  0  0  0  0  0  0  0  0  0
    2.8834   -5.4519   -2.9079 H   0  0  0  0  0  0  0  0  0  0  0  0
    2.6547   -5.1714   -1.1780 H   0  0  0  0  0  0  0  0  0  0  0  0
    4.0805   -7.1322   -1.5638 H   0  0  0  0  0  0  0  0  0  0  0  0
    4.9062   -5.8759   -0.6440 H   0  0  0  0  0  0  0  0  0  0  0  0
    5.2472   -6.4936   -3.6173 H   0  0  0  0  0  0  0  0  0  0  0  0
    6.4410   -6.7427   -2.3428 H   0  0  0  0  0  0  0  0  0  0  0  0
    6.8475   -4.6464   -3.6785 H   0  0  0  0  0  0  0  0  0  0  0  0
    6.6336   -4.3325   -1.9574 H   0  0  0  0  0  0  0  0  0  0  0  0
    4.5364   -3.9677   -4.1595 H   0  0  0  0  0  0  0  0  0  0  0  0
    5.3695   -2.7027   -3.2491 H   0  0  0  0  0  0  0  0  0  0  0  0
  1  2  2  0  0  0  0
  2  3  1  0  0  0  0
  2 22  1  0  0  0  0
  3  4  2  0  0  0  0
  3 32  1  0  0  0  0
  4  5  1  0  0  0  0
  4 33  1  0  0  0  0
  5  6  1  0  0  0  0
  5 21  2  0  0  0  0
  6  7  1  0  0  0  0
  6 11  2  0  0  0  0
  7  8  2  0  0  0  0
  7 34  1  0  0  0  0
  8  9  1  0  0  0  0
  8 35  1  0  0  0  0
  9 10  2  0  0  0  0
  9 14  1  0  0  0  0
 10 11  1  0  0  0  0
 10 12  1  0  0  0  0
 11 36  1  0  0  0  0
 12 13  2  0  0  0  0
 13 14  1  0  0  0  0
 13 37  1  0  0  0  0
 14 15  1  0  0  0  0
 15 16  1  0  0  0  0
 15 20  2  0  0  0  0
 16 17  2  0  0  0  0
 16 38  1  0  0  0  0
 17 18  1  0  0  0  0
 17 39  1  0  0  0  0
 18 19  2  0  0  0  0
 18 40  1  0  0  0  0
 19 20  1  0  0  0  0
 19 41  1  0  0  0  0
 20 42  1  0  0  0  0
 21 22  1  0  0  0  0
 21 43  1  0  0  0  0
 22 23  1  0  0  0  0
 23 24  1  0  0  0  0
 23 44  1  0  0  0  0
 23 45  1  0  0  0  0
 24 25  1  0  0  0  0
 24 46  1  0  0  0  0
 24 47  1  0  0  0  0
 25 26  1  0  0  0  0
 25 48  1  0  0  0  0
 25 49  1  0  0  0  0
 26 27  1  0  0  0  0
 26 31  1  0  0  0  0
 27 28  1  0  0  0  0
 27 50  1  0  0  0  0
 27 51  1  0  0  0  0
 28 29  1  0  0  0  0
 28 52  1  0  0  0  0
 28 53  1  0  0  0  0
 29 30  1  0  0  0  0
 29 54  1  0  0  0  0
 29 55  1  0  0  0  0
 30 31  1  0  0  0  0
 30 56  1  0  0  0  0
 30 57  1  0  0  0  0
 31 58  1  0  0  0  0
 31 59  1  0  0  0  0
M  END
$$$$
