CHEMBL2000879
 OpenBabel04072215363D

 29 31  0  0  1  0  0  0  0  0999 V2000
    1.4633   -0.2674    0.0305 C   0  0  0  0  0  0  0  0  0  0  0  0
    0.5759   -1.3428   -0.0038 C   0  0  0  0  0  0  0  0  0  0  0  0
   -0.8025   -1.1180   -0.0587 C   0  0  0  0  0  0  0  0  0  0  0  0
   -1.3060    0.1881   -0.0813 C   0  0  0  0  0  0  0  0  0  0  0  0
   -2.7865    0.4891   -0.1654 C   0  0  3  0  0  0  0  0  0  0  0  0
   -3.6148   -0.0952    1.0135 C   0  0  0  0  0  0  0  0  0  0  0  0
   -5.0411    0.5057    1.0354 C   0  0  0  0  0  0  0  0  0  0  0  0
   -5.5664    0.5874   -0.3529 C   0  0  0  0  0  0  0  0  0  0  0  0
   -6.8225    0.9581   -0.7265 N   0  0  0  0  0  0  0  0  0  0  0  0
   -6.9817    0.9859   -2.0639 N   0  0  0  0  0  0  0  0  0  0  0  0
   -5.7797    0.6441   -2.5424 C   0  0  0  0  0  0  0  0  0  0  0  0
   -4.8537    0.3971   -1.5162 C   0  0  0  0  0  0  0  0  0  0  0  0
   -3.4067    0.0520   -1.5238 C   0  0  0  0  0  0  0  0  0  0  0  0
   -0.3983    1.2610   -0.0419 C   0  0  0  0  0  0  0  0  0  0  0  0
    0.9765    1.0347    0.0145 C   0  0  0  0  0  0  0  0  0  0  0  0
    2.5347   -0.4443    0.0696 H   0  0  0  0  0  0  0  0  0  0  0  0
    0.9602   -2.3598    0.0087 H   0  0  0  0  0  0  0  0  0  0  0  0
   -1.4744   -1.9725   -0.0885 H   0  0  0  0  0  0  0  0  0  0  0  0
   -2.8950    1.5830   -0.0991 H   0  0  0  0  0  0  0  0  0  0  0  0
   -3.1250    0.0998    1.9755 H   0  0  0  0  0  0  0  0  0  0  0  0
   -3.6841   -1.1863    0.9115 H   0  0  0  0  0  0  0  0  0  0  0  0
   -4.9977    1.5151    1.4619 H   0  0  0  0  0  0  0  0  0  0  0  0
   -5.6951   -0.0992    1.6717 H   0  0  0  0  0  0  0  0  0  0  0  0
   -7.6075    1.2240   -0.1412 H   0  0  0  0  0  0  0  0  0  0  0  0
   -5.6322    0.6068   -3.6141 H   0  0  0  0  0  0  0  0  0  0  0  0
   -2.8965    0.5542   -2.3542 H   0  0  0  0  0  0  0  0  0  0  0  0
   -3.2942   -1.0266   -1.6765 H   0  0  0  0  0  0  0  0  0  0  0  0
   -0.7600    2.2873   -0.0571 H   0  0  0  0  0  0  0  0  0  0  0  0
    1.6616    1.8774    0.0413 H   0  0  0  0  0  0  0  0  0  0  0  0
  1  2  1  0  0  0  0
  1 15  2  0  0  0  0
  1 16  1  0  0  0  0
  2  3  2  0  0  0  0
  2 17  1  0  0  0  0
  3  4  1  0  0  0  0
  3 18  1  0  0  0  0
  4  5  1  0  0  0  0
  4 14  2  0  0  0  0
  5  6  1  0  0  0  0
  5 13  1  0  0  0  0
  5 19  1  0  0  0  0
  6  7  1  0  0  0  0
  6 20  1  0  0  0  0
  6 21  1  0  0  0  0
  7  8  1  0  0  0  0
  7 22  1  0  0  0  0
  7 23  1  0  0  0  0
  8  9  1  0  0  0  0
  8 12  2  0  0  0  0
  9 10  1  0  0  0  0
  9 24  1  0  0  0  0
 10 11  2  0  0  0  0
 11 12  1  0  0  0  0
 11 25  1  0  0  0  0
 12 13  1  0  0  0  0
 13 26  1  0  0  0  0
 13 27  1  0  0  0  0
 14 15  1  0  0  0  0
 14 28  1  0  0  0  0
 15 29  1  0  0  0  0
M  END
$$$$
