CHEMBL211515
 OpenBabel04072215363D

 67 72  0  0  0  0  0  0  0  0999 V2000
   -3.6037    1.3205    9.5466 C   0  0  0  0  0  0  0  0  0  0  0  0
   -4.2335    1.2392    8.1899 C   0  0  0  0  0  0  0  0  0  0  0  0
   -4.9179    2.3130    7.6275 C   0  0  0  0  0  0  0  0  0  0  0  0
   -5.4812    2.2115    6.3543 C   0  0  0  0  0  0  0  0  0  0  0  0
   -5.4003    1.0162    5.6230 C   0  0  0  0  0  0  0  0  0  0  0  0
   -4.7194   -0.0693    6.1789 C   0  0  0  0  0  0  0  0  0  0  0  0
   -4.5565   -1.3419    5.4388 C   0  0  0  0  0  0  0  0  0  0  0  0
   -3.6096   -2.0685    5.6758 O   0  0  0  0  0  0  0  0  0  0  0  0
   -5.5534   -1.6820    4.5360 N   0  0  0  0  0  0  0  0  0  0  0  0
   -5.5374   -2.9441    3.8569 C   0  0  0  0  0  0  0  0  0  0  0  0
   -6.2154   -2.7458    2.5472 C   0  0  0  0  0  0  0  0  0  0  0  0
   -5.5794   -2.4556    1.3704 C   0  0  0  0  0  0  0  0  0  0  0  0
   -6.5196   -2.3394    0.3309 C   0  0  0  0  0  0  0  0  0  0  0  0
   -7.8370   -2.2035    0.7607 C   0  0  0  0  0  0  0  0  0  0  0  0
   -8.9748   -1.6447   -0.1146 C   0  0  0  0  0  0  0  0  0  0  0  0
  -10.2758   -1.9588   -0.0673 N   0  0  0  0  0  0  0  0  0  0  0  0
  -10.7497   -1.6615   -1.3294 N   0  0  0  0  0  0  0  0  0  0  0  0
   -9.8073   -1.0883   -2.1691 C   0  0  0  0  0  0  0  0  0  0  0  0
   -8.7345   -0.8887   -1.2939 C   0  0  0  0  0  0  0  0  0  0  0  0
   -7.4871   -0.7712   -2.0691 C   0  0  0  0  0  0  0  0  0  0  0  0
   -7.9152   -1.9467   -2.9614 C   0  0  0  0  0  0  0  0  0  0  0  0
   -7.8959   -3.3400   -2.6760 C   0  0  0  0  0  0  0  0  0  0  0  0
   -8.6404   -4.2141   -3.4821 C   0  0  0  0  0  0  0  0  0  0  0  0
   -9.1138   -5.5923   -3.0400 C   0  0  0  0  0  0  0  0  0  0  0  0
   -9.0207   -6.6289   -4.0795 N   0  0  0  0  0  0  0  0  0  0  0  0
   -7.6171   -6.9439   -4.3763 C   0  0  0  0  0  0  0  0  0  0  0  0
   -7.4899   -8.0394   -5.4553 C   0  0  0  0  0  0  0  0  0  0  0  0
   -8.1846   -9.3018   -5.1388 N   0  0  0  0  0  0  0  0  0  0  0  0
   -7.4748  -10.0588   -4.1112 C   0  0  0  0  0  0  0  0  0  0  0  0
   -9.5752   -8.9999   -4.7398 C   0  0  0  0  0  0  0  0  0  0  0  0
   -9.7343   -7.8662   -3.6881 C   0  0  0  0  0  0  0  0  0  0  0  0
   -9.1970   -3.6453   -4.6177 C   0  0  0  0  0  0  0  0  0  0  0  0
   -9.5857   -2.3065   -4.5449 C   0  0  0  0  0  0  0  0  0  0  0  0
   -9.1571   -1.5537   -3.4759 C   0  0  0  0  0  0  0  0  0  0  0  0
   -7.9351   -2.8320    2.3517 S   0  0  0  0  0  0  0  0  0  0  0  0
   -4.1207    0.0368    7.4548 C   0  0  0  0  0  0  0  0  0  0  0  0
   -3.7803    2.3001   10.0002 H   0  0  0  0  0  0  0  0  0  0  0  0
   -2.5216    1.1727    9.4746 H   0  0  0  0  0  0  0  0  0  0  0  0
   -4.0266    0.5623   10.2153 H   0  0  0  0  0  0  0  0  0  0  0  0
   -5.0066    3.2428    8.1862 H   0  0  0  0  0  0  0  0  0  0  0  0
   -5.9984    3.0766    5.9194 H   0  0  0  0  0  0  0  0  0  0  0  0
   -5.8043    0.9922    4.6155 H   0  0  0  0  0  0  0  0  0  0  0  0
   -6.3988   -1.1291    4.4930 H   0  0  0  0  0  0  0  0  0  0  0  0
   -6.0249   -3.6933    4.4779 H   0  0  0  0  0  0  0  0  0  0  0  0
   -4.4989   -3.2634    3.6898 H   0  0  0  0  0  0  0  0  0  0  0  0
   -4.5080   -2.3550    1.2494 H   0  0  0  0  0  0  0  0  0  0  0  0
   -6.1612   -2.2805   -0.6806 H   0  0  0  0  0  0  0  0  0  0  0  0
  -11.7306   -1.8029   -1.5157 H   0  0  0  0  0  0  0  0  0  0  0  0
   -6.5304   -0.7751   -1.5758 H   0  0  0  0  0  0  0  0  0  0  0  0
   -7.5020    0.1622   -2.6512 H   0  0  0  0  0  0  0  0  0  0  0  0
   -7.5856   -3.7070   -1.6985 H   0  0  0  0  0  0  0  0  0  0  0  0
  -10.1793   -5.4581   -2.7861 H   0  0  0  0  0  0  0  0  0  0  0  0
   -8.6243   -5.9066   -2.1115 H   0  0  0  0  0  0  0  0  0  0  0  0
   -7.0923   -7.2549   -3.4630 H   0  0  0  0  0  0  0  0  0  0  0  0
   -7.1052   -6.0505   -4.7524 H   0  0  0  0  0  0  0  0  0  0  0  0
   -6.4286   -8.2310   -5.6552 H   0  0  0  0  0  0  0  0  0  0  0  0
   -7.9013   -7.6524   -6.3972 H   0  0  0  0  0  0  0  0  0  0  0  0
   -6.4453  -10.2592   -4.4299 H   0  0  0  0  0  0  0  0  0  0  0  0
   -7.9482  -11.0356   -3.9638 H   0  0  0  0  0  0  0  0  0  0  0  0
   -7.4361   -9.5490   -3.1435 H   0  0  0  0  0  0  0  0  0  0  0  0
  -10.0698   -9.9117   -4.3809 H   0  0  0  0  0  0  0  0  0  0  0  0
  -10.1247   -8.7090   -5.6454 H   0  0  0  0  0  0  0  0  0  0  0  0
   -9.3779   -8.2280   -2.7153 H   0  0  0  0  0  0  0  0  0  0  0  0
  -10.8059   -7.6587   -3.5812 H   0  0  0  0  0  0  0  0  0  0  0  0
   -9.3457   -4.2430   -5.5111 H   0  0  0  0  0  0  0  0  0  0  0  0
   -9.7753   -1.7984   -5.4917 H   0  0  0  0  0  0  0  0  0  0  0  0
   -3.6013   -0.8139    7.8653 H   0  0  0  0  0  0  0  0  0  0  0  0
  1  2  1  0  0  0  0
  1 37  1  0  0  0  0
  1 38  1  0  0  0  0
  1 39  1  0  0  0  0
  2  3  1  0  0  0  0
  2 36  2  0  0  0  0
  3  4  2  0  0  0  0
  3 40  1  0  0  0  0
  4  5  1  0  0  0  0
  4 41  1  0  0  0  0
  5  6  2  0  0  0  0
  5 42  1  0  0  0  0
  6  7  1  0  0  0  0
  6 36  1  0  0  0  0
  7  8  2  0  0  0  0
  7  9  1  0  0  0  0
  9 10  1  0  0  0  0
  9 43  1  0  0  0  0
 10 11  1  0  0  0  0
 10 44  1  0  0  0  0
 10 45  1  0  0  0  0
 11 12  2  0  0  0  0
 11 35  1  0  0  0  0
 12 13  1  0  0  0  0
 12 46  1  0  0  0  0
 13 14  2  0  0  0  0
 13 47  1  0  0  0  0
 14 15  1  0  0  0  0
 14 35  1  0  0  0  0
 15 16  2  0  0  0  0
 15 19  1  0  0  0  0
 16 17  1  0  0  0  0
 17 18  1  0  0  0  0
 17 48  1  0  0  0  0
 18 19  2  0  0  0  0
 18 34  1  0  0  0  0
 19 20  1  0  0  0  0
 20 21  1  0  0  0  0
 20 49  1  0  0  0  0
 20 50  1  0  0  0  0
 21 22  1  0  0  0  0
 21 34  2  0  0  0  0
 22 23  2  0  0  0  0
 22 51  1  0  0  0  0
 23 24  1  0  0  0  0
 23 32  1  0  0  0  0
 24 25  1  0  0  0  0
 24 52  1  0  0  0  0
 24 53  1  0  0  0  0
 25 26  1  0  0  0  0
 25 31  1  0  0  0  0
 26 27  1  0  0  0  0
 26 54  1  0  0  0  0
 26 55  1  0  0  0  0
 27 28  1  0  0  0  0
 27 56  1  0  0  0  0
 27 57  1  0  0  0  0
 28 29  1  0  0  0  0
 28 30  1  0  0  0  0
 29 58  1  0  0  0  0
 29 59  1  0  0  0  0
 29 60  1  0  0  0  0
 30 31  1  0  0  0  0
 30 61  1  0  0  0  0
 30 62  1  0  0  0  0
 31 63  1  0  0  0  0
 31 64  1  0  0  0  0
 32 33  2  0  0  0  0
 32 65  1  0  0  0  0
 33 34  1  0  0  0  0
 33 66  1  0  0  0  0
 36 67  1  0  0  0  0
M  END
$$$$
