CHEMBL3109339
 OpenBabel04072215363D

 59 62  0  0  0  0  0  0  0  0999 V2000
    1.3838   -0.5714   -5.9359 C   0  0  0  0  0  0  0  0  0  0  0  0
    2.7702   -0.5743   -5.6171 O   0  0  0  0  0  0  0  0  0  0  0  0
    3.1547    0.6397   -4.9748 C   0  0  0  0  0  0  0  0  0  0  0  0
    4.6391    0.6007   -4.6500 C   0  0  0  0  0  0  0  0  0  0  0  0
    5.0041    1.8207   -3.9949 O   0  0  0  0  0  0  0  0  0  0  0  0
    6.3371    1.9656   -3.6578 C   0  0  0  0  0  0  0  0  0  0  0  0
    7.2711    0.8740   -3.9169 C   0  0  0  0  0  0  0  0  0  0  0  0
    8.5658    1.0357   -3.6578 C   0  0  0  0  0  0  0  0  0  0  0  0
    9.0271    2.2442   -3.1260 N   0  0  0  0  0  0  0  0  0  0  0  0
   10.2906    2.6418   -2.7395 C   0  0  0  0  0  0  0  0  0  0  0  0
   11.5007    1.8318   -2.7516 C   0  0  0  0  0  0  0  0  0  0  0  0
   12.5070    2.0644   -1.8296 C   0  0  0  0  0  0  0  0  0  0  0  0
   13.6643    1.3087   -1.9132 C   0  0  0  0  0  0  0  0  0  0  0  0
   13.8004    0.3499   -2.9179 C   0  0  0  0  0  0  0  0  0  0  0  0
   14.9821   -0.3988   -3.0183 C   0  0  0  0  0  0  0  0  0  0  0  0
   15.1378   -1.3432   -4.0237 C   0  0  0  0  0  0  0  0  0  0  0  0
   14.1112   -1.5441   -4.9392 C   0  0  0  0  0  0  0  0  0  0  0  0
   12.9215   -0.8047   -4.8484 C   0  0  0  0  0  0  0  0  0  0  0  0
   11.8748   -0.9554   -5.7304 O   0  0  0  0  0  0  0  0  0  0  0  0
   12.0046   -1.9078   -6.7900 C   0  0  0  0  0  0  0  0  0  0  0  0
   10.7167   -1.9056   -7.6551 C   0  0  0  0  0  0  0  0  0  0  0  0
   10.8780   -2.9384   -8.7886 C   0  0  0  0  0  0  0  0  0  0  0  0
    9.5167   -2.3010   -6.7718 C   0  0  0  0  0  0  0  0  0  0  0  0
   10.5121   -0.4792   -8.2328 C   0  0  0  0  0  0  0  0  0  0  0  0
    9.3226   -0.3477   -9.0741 N   0  0  0  0  0  0  0  0  0  0  0  0
   12.7351    0.1599   -3.8314 C   0  0  0  0  0  0  0  0  0  0  0  0
   11.5997    0.8983   -3.7242 N   0  0  0  0  0  0  0  0  0  0  0  0
   10.1166    3.9435   -2.2978 C   0  0  0  0  0  0  0  0  0  0  0  0
    8.8105    4.3438   -2.3625 N   0  0  0  0  0  0  0  0  0  0  0  0
    8.1649    3.3104   -2.8572 C   0  0  0  0  0  0  0  0  0  0  0  0
    6.7820    3.1322   -3.1475 C   0  0  0  0  0  0  0  0  0  0  0  0
    1.1394   -1.5151   -6.4305 H   0  0  0  0  0  0  0  0  0  0  0  0
    1.1478    0.2511   -6.6187 H   0  0  0  0  0  0  0  0  0  0  0  0
    0.7824   -0.4885   -5.0254 H   0  0  0  0  0  0  0  0  0  0  0  0
    2.5770    0.7773   -4.0513 H   0  0  0  0  0  0  0  0  0  0  0  0
    2.9494    1.4918   -5.6302 H   0  0  0  0  0  0  0  0  0  0  0  0
    5.2038    0.4766   -5.5826 H   0  0  0  0  0  0  0  0  0  0  0  0
    4.8502   -0.2560   -3.9988 H   0  0  0  0  0  0  0  0  0  0  0  0
    6.9283   -0.0535   -4.3561 H   0  0  0  0  0  0  0  0  0  0  0  0
    9.3010    0.2621   -3.8597 H   0  0  0  0  0  0  0  0  0  0  0  0
   12.4031    2.8207   -1.0598 H   0  0  0  0  0  0  0  0  0  0  0  0
   14.4633    1.4836   -1.1962 H   0  0  0  0  0  0  0  0  0  0  0  0
   15.7953   -0.2449   -2.3116 H   0  0  0  0  0  0  0  0  0  0  0  0
   16.0575   -1.9181   -4.0970 H   0  0  0  0  0  0  0  0  0  0  0  0
   14.2694   -2.2846   -5.7159 H   0  0  0  0  0  0  0  0  0  0  0  0
   12.1550   -2.9094   -6.3661 H   0  0  0  0  0  0  0  0  0  0  0  0
   12.8662   -1.6480   -7.4189 H   0  0  0  0  0  0  0  0  0  0  0  0
   11.0664   -3.9427   -8.3925 H   0  0  0  0  0  0  0  0  0  0  0  0
   11.7191   -2.6746   -9.4404 H   0  0  0  0  0  0  0  0  0  0  0  0
    9.9800   -3.0054   -9.4114 H   0  0  0  0  0  0  0  0  0  0  0  0
    9.6539   -3.2970   -6.3361 H   0  0  0  0  0  0  0  0  0  0  0  0
    8.5825   -2.3224   -7.3432 H   0  0  0  0  0  0  0  0  0  0  0  0
    9.3841   -1.5937   -5.9462 H   0  0  0  0  0  0  0  0  0  0  0  0
   11.3902   -0.1883   -8.8229 H   0  0  0  0  0  0  0  0  0  0  0  0
   10.4263    0.2450   -7.4141 H   0  0  0  0  0  0  0  0  0  0  0  0
    9.3848   -0.9745   -9.8732 H   0  0  0  0  0  0  0  0  0  0  0  0
    9.2783    0.5970   -9.4544 H   0  0  0  0  0  0  0  0  0  0  0  0
   10.8796    4.6108   -1.9174 H   0  0  0  0  0  0  0  0  0  0  0  0
    6.1106    3.9683   -2.9778 H   0  0  0  0  0  0  0  0  0  0  0  0
  1  2  1  0  0  0  0
  1 32  1  0  0  0  0
  1 33  1  0  0  0  0
  1 34  1  0  0  0  0
  2  3  1  0  0  0  0
  3  4  1  0  0  0  0
  3 35  1  0  0  0  0
  3 36  1  0  0  0  0
  4  5  1  0  0  0  0
  4 37  1  0  0  0  0
  4 38  1  0  0  0  0
  5  6  1  0  0  0  0
  6  7  1  0  0  0  0
  6 31  2  0  0  0  0
  7  8  2  0  0  0  0
  7 39  1  0  0  0  0
  8  9  1  0  0  0  0
  8 40  1  0  0  0  0
  9 10  1  0  0  0  0
  9 30  1  0  0  0  0
 10 11  1  0  0  0  0
 10 28  2  0  0  0  0
 11 12  1  0  0  0  0
 11 27  2  0  0  0  0
 12 13  2  0  0  0  0
 12 41  1  0  0  0  0
 13 14  1  0  0  0  0
 13 42  1  0  0  0  0
 14 15  1  0  0  0  0
 14 26  2  0  0  0  0
 15 16  2  0  0  0  0
 15 43  1  0  0  0  0
 16 17  1  0  0  0  0
 16 44  1  0  0  0  0
 17 18  2  0  0  0  0
 17 45  1  0  0  0  0
 18 19  1  0  0  0  0
 18 26  1  0  0  0  0
 19 20  1  0  0  0  0
 20 21  1  0  0  0  0
 20 46  1  0  0  0  0
 20 47  1  0  0  0  0
 21 22  1  0  0  0  0
 21 23  1  0  0  0  0
 21 24  1  0  0  0  0
 22 48  1  0  0  0  0
 22 49  1  0  0  0  0
 22 50  1  0  0  0  0
 23 51  1  0  0  0  0
 23 52  1  0  0  0  0
 23 53  1  0  0  0  0
 24 25  1  0  0  0  0
 24 54  1  0  0  0  0
 24 55  1  0  0  0  0
 25 56  1  0  0  0  0
 25 57  1  0  0  0  0
 26 27  1  0  0  0  0
 28 29  1  0  0  0  0
 28 58  1  0  0  0  0
 29 30  2  0  0  0  0
 30 31  1  0  0  0  0
 31 59  1  0  0  0  0
M  END
$$$$
