CHEMBL2088257
 OpenBabel04072215363D

 50 53  0  0  0  0  0  0  0  0999 V2000
   15.6812   -2.0133   -2.9142 C   0  0  0  0  0  0  0  0  0  0  0  0
   15.2833   -1.2343   -4.0331 O   0  0  0  0  0  0  0  0  0  0  0  0
   15.2306    0.1572   -3.7201 C   0  0  0  0  0  0  0  0  0  0  0  0
   14.7623    0.9254   -4.9540 C   0  0  0  0  0  0  0  0  0  0  0  0
   13.4426    0.4071   -5.5368 C   0  0  0  0  0  0  0  0  0  0  0  0
   12.3098    0.5796   -4.5919 C   0  0  0  0  0  0  0  0  0  0  0  0
   11.4826    1.6502   -4.3521 C   0  0  0  0  0  0  0  0  0  0  0  0
   10.6682    1.2685   -3.2631 C   0  0  0  0  0  0  0  0  0  0  0  0
    9.7725    2.0453   -2.6192 N   0  0  0  0  0  0  0  0  0  0  0  0
    9.6114    3.4444   -2.6506 C   0  0  0  0  0  0  0  0  0  0  0  0
    8.8719    4.0513   -1.6569 C   0  0  0  0  0  0  0  0  0  0  0  0
    8.7978    5.4225   -1.7020 C   0  0  0  0  0  0  0  0  0  0  0  0
    9.3861    6.1688   -2.6512 N   0  0  0  0  0  0  0  0  0  0  0  0
   10.0941    5.5098   -3.5716 C   0  0  0  0  0  0  0  0  0  0  0  0
   10.8043    6.1860   -4.5451 N   0  0  0  0  0  0  0  0  0  0  0  0
   10.2033    7.3931   -5.0780 C   0  0  0  0  0  0  0  0  0  0  0  0
    9.2172    7.1847   -6.1717 C   0  0  0  0  0  0  0  0  0  0  0  0
    8.0220    6.5128   -6.2766 C   0  0  0  0  0  0  0  0  0  0  0  0
    7.6169    6.7426   -7.6049 C   0  0  0  0  0  0  0  0  0  0  0  0
    6.3289    6.1936   -8.1969 C   0  0  0  0  0  0  0  0  0  0  0  0
    6.2967    5.8354   -9.6698 C   0  0  0  0  0  0  0  0  0  0  0  0
    5.5631    7.0414   -9.1939 C   0  0  0  0  0  0  0  0  0  0  0  0
    8.4944    7.4971   -8.2727 N   0  0  0  0  0  0  0  0  0  0  0  0
    9.5057    7.7717   -7.3672 O   0  0  0  0  0  0  0  0  0  0  0  0
   10.2081    4.1808   -3.6058 N   0  0  0  0  0  0  0  0  0  0  0  0
   10.9168    0.0064   -2.8968 N   0  0  0  0  0  0  0  0  0  0  0  0
   11.9163   -0.3836   -3.7079 N   0  0  0  0  0  0  0  0  0  0  0  0
   15.7539   -3.0561   -3.2342 H   0  0  0  0  0  0  0  0  0  0  0  0
   14.9314   -1.9430   -2.1206 H   0  0  0  0  0  0  0  0  0  0  0  0
   16.6584   -1.6899   -2.5443 H   0  0  0  0  0  0  0  0  0  0  0  0
   16.2271    0.5075   -3.4266 H   0  0  0  0  0  0  0  0  0  0  0  0
   14.5501    0.3224   -2.8772 H   0  0  0  0  0  0  0  0  0  0  0  0
   15.5278    0.8342   -5.7344 H   0  0  0  0  0  0  0  0  0  0  0  0
   14.6798    1.9909   -4.7056 H   0  0  0  0  0  0  0  0  0  0  0  0
   13.5354   -0.6433   -5.8357 H   0  0  0  0  0  0  0  0  0  0  0  0
   13.2237    0.9682   -6.4542 H   0  0  0  0  0  0  0  0  0  0  0  0
   11.5075    2.5952   -4.8716 H   0  0  0  0  0  0  0  0  0  0  0  0
    9.2852    1.5840   -1.8644 H   0  0  0  0  0  0  0  0  0  0  0  0
    8.3990    3.4937   -0.8605 H   0  0  0  0  0  0  0  0  0  0  0  0
    8.2623    5.9803   -0.9398 H   0  0  0  0  0  0  0  0  0  0  0  0
   11.0718    5.5026   -5.2454 H   0  0  0  0  0  0  0  0  0  0  0  0
   11.0266    8.0008   -5.4741 H   0  0  0  0  0  0  0  0  0  0  0  0
    9.7518    8.0127   -4.2915 H   0  0  0  0  0  0  0  0  0  0  0  0
    7.5239    5.9477   -5.5035 H   0  0  0  0  0  0  0  0  0  0  0  0
    5.7388    5.5785   -7.5261 H   0  0  0  0  0  0  0  0  0  0  0  0
    5.7187    4.9677   -9.9647 H   0  0  0  0  0  0  0  0  0  0  0  0
    7.1896    5.9888  -10.2662 H   0  0  0  0  0  0  0  0  0  0  0  0
    4.4804    7.0004   -9.1627 H   0  0  0  0  0  0  0  0  0  0  0  0
    5.9578    8.0151   -9.4635 H   0  0  0  0  0  0  0  0  0  0  0  0
   12.3181   -1.3071   -3.5770 H   0  0  0  0  0  0  0  0  0  0  0  0
  1  2  1  0  0  0  0
  1 28  1  0  0  0  0
  1 29  1  0  0  0  0
  1 30  1  0  0  0  0
  2  3  1  0  0  0  0
  3  4  1  0  0  0  0
  3 31  1  0  0  0  0
  3 32  1  0  0  0  0
  4  5  1  0  0  0  0
  4 33  1  0  0  0  0
  4 34  1  0  0  0  0
  5  6  1  0  0  0  0
  5 35  1  0  0  0  0
  5 36  1  0  0  0  0
  6  7  2  0  0  0  0
  6 27  1  0  0  0  0
  7  8  1  0  0  0  0
  7 37  1  0  0  0  0
  8  9  1  0  0  0  0
  8 26  2  0  0  0  0
  9 10  1  0  0  0  0
  9 38  1  0  0  0  0
 10 11  1  0  0  0  0
 10 25  2  0  0  0  0
 11 12  2  0  0  0  0
 11 39  1  0  0  0  0
 12 13  1  0  0  0  0
 12 40  1  0  0  0  0
 13 14  2  0  0  0  0
 14 15  1  0  0  0  0
 14 25  1  0  0  0  0
 15 16  1  0  0  0  0
 15 41  1  0  0  0  0
 16 17  1  0  0  0  0
 16 42  1  0  0  0  0
 16 43  1  0  0  0  0
 17 18  2  0  0  0  0
 17 24  1  0  0  0  0
 18 19  1  0  0  0  0
 18 44  1  0  0  0  0
 19 20  1  0  0  0  0
 19 23  2  0  0  0  0
 20 21  1  0  0  0  0
 20 22  1  0  0  0  0
 20 45  1  0  0  0  0
 21 22  1  0  0  0  0
 21 46  1  0  0  0  0
 21 47  1  0  0  0  0
 22 48  1  0  0  0  0
 22 49  1  0  0  0  0
 23 24  1  0  0  0  0
 26 27  1  0  0  0  0
 27 50  1  0  0  0  0
M  END
$$$$
