CHEMBL225336
 OpenBabel04072215363D

 68 73  0  0  0  0  0  0  0  0999 V2000
    1.7620    0.0596   -1.2878 C   0  0  0  0  0  0  0  0  0  0  0  0
    0.3204    0.2381   -1.1860 N   0  0  0  0  0  0  0  0  0  0  0  0
   -0.3490   -0.9979   -0.7528 C   0  0  0  0  0  0  0  0  0  0  0  0
   -1.8782   -0.7771   -0.7431 C   0  0  0  0  0  0  0  0  0  0  0  0
   -2.3180    0.2588    0.2214 N   0  0  0  0  0  0  0  0  0  0  0  0
   -2.0884   -0.1037    1.6370 C   0  0  0  0  0  0  0  0  0  0  0  0
   -2.7894   -1.3754    2.0918 C   0  0  0  0  0  0  0  0  0  0  0  0
   -2.1350   -2.6295    1.9494 C   0  0  0  0  0  0  0  0  0  0  0  0
   -2.7738   -3.8391    2.2236 C   0  0  0  0  0  0  0  0  0  0  0  0
   -4.0379   -3.7621    2.7471 C   0  0  0  0  0  0  0  0  0  0  0  0
   -4.6959   -2.5247    2.9869 C   0  0  0  0  0  0  0  0  0  0  0  0
   -4.0854   -1.3280    2.6347 C   0  0  0  0  0  0  0  0  0  0  0  0
   -6.0671   -2.6986    3.6636 C   0  0  0  0  0  0  0  0  0  0  0  0
   -6.0599   -4.1894    3.7312 C   0  0  0  0  0  0  0  0  0  0  0  0
   -6.8325   -5.2679    4.1639 C   0  0  0  0  0  0  0  0  0  0  0  0
   -8.1413   -5.1444    4.8031 C   0  0  0  0  0  0  0  0  0  0  0  0
   -8.5654   -4.0506    5.5260 C   0  0  0  0  0  0  0  0  0  0  0  0
  -10.1589   -4.2381    6.1111 S   0  0  0  0  0  0  0  0  0  0  0  0
  -10.2858   -5.7882    5.4073 C   0  0  0  0  0  0  0  0  0  0  0  0
  -11.4673   -6.5722    5.5338 C   0  0  0  0  0  0  0  0  0  0  0  0
  -12.5624   -7.2672    5.6674 C   0  0  0  0  0  0  0  0  0  0  0  0
  -13.8391   -8.0773    5.8232 C   0  0  0  0  0  0  0  0  0  0  0  0
  -14.9871   -7.2213    6.1533 N   0  0  0  0  0  0  0  0  0  0  0  0
  -16.2124   -7.8207    6.3288 C   0  0  0  0  0  0  0  0  0  0  0  0
  -16.2957   -9.0338    6.1874 O   0  0  0  0  0  0  0  0  0  0  0  0
  -17.2670   -6.9640    6.6227 N   0  0  0  0  0  0  0  0  0  0  0  0
  -18.6133   -7.4205    6.8143 C   0  0  0  0  0  0  0  0  0  0  0  0
  -18.9021   -8.7547    7.1177 C   0  0  0  0  0  0  0  0  0  0  0  0
  -20.2061   -9.2494    7.1307 C   0  0  0  0  0  0  0  0  0  0  0  0
  -21.2739   -8.3924    6.9114 C   0  0  0  0  0  0  0  0  0  0  0  0
  -21.0269   -7.0344    6.7190 C   0  0  0  0  0  0  0  0  0  0  0  0
  -19.7044   -6.5429    6.6679 C   0  0  0  0  0  0  0  0  0  0  0  0
   -9.1439   -6.1558    4.7340 C   0  0  0  0  0  0  0  0  0  0  0  0
   -6.2133   -6.4446    3.9260 N   0  0  0  0  0  0  0  0  0  0  0  0
   -5.0406   -6.0914    3.3348 N   0  0  0  0  0  0  0  0  0  0  0  0
   -4.9352   -4.7563    3.2096 C   0  0  0  0  0  0  0  0  0  0  0  0
   -1.5787    1.5029   -0.1256 C   0  0  0  0  0  0  0  0  0  0  0  0
   -0.0377    1.3366   -0.2673 C   0  0  0  0  0  0  0  0  0  0  0  0
    1.9973   -0.7504   -1.9880 H   0  0  0  0  0  0  0  0  0  0  0  0
    2.2242   -0.1736   -0.3229 H   0  0  0  0  0  0  0  0  0  0  0  0
    2.2279    0.9652   -1.6903 H   0  0  0  0  0  0  0  0  0  0  0  0
    0.0127   -1.2932    0.2396 H   0  0  0  0  0  0  0  0  0  0  0  0
   -0.1142   -1.8257   -1.4308 H   0  0  0  0  0  0  0  0  0  0  0  0
   -2.4124   -1.7197   -0.5912 H   0  0  0  0  0  0  0  0  0  0  0  0
   -2.1837   -0.4581   -1.7515 H   0  0  0  0  0  0  0  0  0  0  0  0
   -2.4566    0.7200    2.2638 H   0  0  0  0  0  0  0  0  0  0  0  0
   -1.0237   -0.1939    1.8802 H   0  0  0  0  0  0  0  0  0  0  0  0
   -1.1056   -2.6670    1.6050 H   0  0  0  0  0  0  0  0  0  0  0  0
   -2.2822   -4.7863    2.0444 H   0  0  0  0  0  0  0  0  0  0  0  0
   -4.5934   -0.3802    2.7877 H   0  0  0  0  0  0  0  0  0  0  0  0
   -6.8744   -2.3125    3.0378 H   0  0  0  0  0  0  0  0  0  0  0  0
   -6.0574   -2.2460    4.6586 H   0  0  0  0  0  0  0  0  0  0  0  0
   -8.0201   -3.1464    5.7504 H   0  0  0  0  0  0  0  0  0  0  0  0
  -13.7127   -8.8260    6.6125 H   0  0  0  0  0  0  0  0  0  0  0  0
  -14.0653   -8.5927    4.8832 H   0  0  0  0  0  0  0  0  0  0  0  0
  -14.8471   -6.2485    6.3683 H   0  0  0  0  0  0  0  0  0  0  0  0
  -17.1395   -5.9904    6.4408 H   0  0  0  0  0  0  0  0  0  0  0  0
  -18.1071   -9.4592    7.3421 H   0  0  0  0  0  0  0  0  0  0  0  0
  -20.3701  -10.3109    7.2990 H   0  0  0  0  0  0  0  0  0  0  0  0
  -22.2866   -8.7849    6.8976 H   0  0  0  0  0  0  0  0  0  0  0  0
  -21.8722   -6.3616    6.5858 H   0  0  0  0  0  0  0  0  0  0  0  0
  -19.5638   -5.4819    6.4750 H   0  0  0  0  0  0  0  0  0  0  0  0
   -9.0273   -7.0969    4.2040 H   0  0  0  0  0  0  0  0  0  0  0  0
   -4.3894   -6.8190    3.0560 H   0  0  0  0  0  0  0  0  0  0  0  0
   -1.8024    2.2944    0.5994 H   0  0  0  0  0  0  0  0  0  0  0  0
   -1.9702    1.8678   -1.0860 H   0  0  0  0  0  0  0  0  0  0  0  0
    0.3993    1.1621    0.7245 H   0  0  0  0  0  0  0  0  0  0  0  0
    0.3802    2.2783   -0.6416 H   0  0  0  0  0  0  0  0  0  0  0  0
  1  2  1  0  0  0  0
  1 39  1  0  0  0  0
  1 40  1  0  0  0  0
  1 41  1  0  0  0  0
  2  3  1  0  0  0  0
  2 38  1  0  0  0  0
  3  4  1  0  0  0  0
  3 42  1  0  0  0  0
  3 43  1  0  0  0  0
  4  5  1  0  0  0  0
  4 44  1  0  0  0  0
  4 45  1  0  0  0  0
  5  6  1  0  0  0  0
  5 37  1  0  0  0  0
  6  7  1  0  0  0  0
  6 46  1  0  0  0  0
  6 47  1  0  0  0  0
  7  8  1  0  0  0  0
  7 12  2  0  0  0  0
  8  9  2  0  0  0  0
  8 48  1  0  0  0  0
  9 10  1  0  0  0  0
  9 49  1  0  0  0  0
 10 11  2  0  0  0  0
 10 36  1  0  0  0  0
 11 12  1  0  0  0  0
 11 13  1  0  0  0  0
 12 50  1  0  0  0  0
 13 14  1  0  0  0  0
 13 51  1  0  0  0  0
 13 52  1  0  0  0  0
 14 15  1  0  0  0  0
 14 36  2  0  0  0  0
 15 16  1  0  0  0  0
 15 34  2  0  0  0  0
 16 17  2  0  0  0  0
 16 33  1  0  0  0  0
 17 18  1  0  0  0  0
 17 53  1  0  0  0  0
 18 19  1  0  0  0  0
 19 20  1  0  0  0  0
 19 33  2  0  0  0  0
 20 21  3  0  0  0  0
 21 22  1  0  0  0  0
 22 23  1  0  0  0  0
 22 54  1  0  0  0  0
 22 55  1  0  0  0  0
 23 24  1  0  0  0  0
 23 56  1  0  0  0  0
 24 25  2  0  0  0  0
 24 26  1  0  0  0  0
 26 27  1  0  0  0  0
 26 57  1  0  0  0  0
 27 28  1  0  0  0  0
 27 32  2  0  0  0  0
 28 29  2  0  0  0  0
 28 58  1  0  0  0  0
 29 30  1  0  0  0  0
 29 59  1  0  0  0  0
 30 31  2  0  0  0  0
 30 60  1  0  0  0  0
 31 32  1  0  0  0  0
 31 61  1  0  0  0  0
 32 62  1  0  0  0  0
 33 63  1  0  0  0  0
 34 35  1  0  0  0  0
 35 36  1  0  0  0  0
 35 64  1  0  0  0  0
 37 38  1  0  0  0  0
 37 65  1  0  0  0  0
 37 66  1  0  0  0  0
 38 67  1  0  0  0  0
 38 68  1  0  0  0  0
M  END
$$$$
