CHEMBL250471
 OpenBabel04072215363D

 39 41  0  0  0  0  0  0  0  0999 V2000
    1.5909    0.8988    0.9570 O   0  0  0  0  0  0  0  0  0  0  0  0
    2.1476    0.1736    0.1395 C   0  0  0  0  0  0  0  0  0  0  0  0
    1.9782   -1.1915    0.0025 N   0  0  0  0  0  0  0  0  0  0  0  0
    1.1521   -2.0219    0.7904 C   0  0  0  0  0  0  0  0  0  0  0  0
    0.3102   -1.5471    1.8008 C   0  0  0  0  0  0  0  0  0  0  0  0
   -0.4619   -2.4279    2.5619 C   0  0  0  0  0  0  0  0  0  0  0  0
   -0.3995   -3.7987    2.3128 C   0  0  0  0  0  0  0  0  0  0  0  0
   -1.3383   -4.8834    3.2596 Cl  0  0  0  0  0  0  0  0  0  0  0  0
    0.4235   -4.2865    1.3004 C   0  0  0  0  0  0  0  0  0  0  0  0
    1.1937   -3.3994    0.5406 C   0  0  0  0  0  0  0  0  0  0  0  0
    3.0941    0.8216   -0.8028 C   0  0  0  0  0  0  0  0  0  0  0  0
    2.7876    2.1376   -1.1855 C   0  0  0  0  0  0  0  0  0  0  0  0
    3.6390    2.8159   -2.0396 C   0  0  0  0  0  0  0  0  0  0  0  0
    3.2627    4.5821   -2.5728 Br  0  0  0  0  0  0  0  0  0  0  0  0
    4.7698    2.1596   -2.4826 C   0  0  0  0  0  0  0  0  0  0  0  0
    5.1010    0.8964   -2.1132 N   0  0  0  0  0  0  0  0  0  0  0  0
    4.2847    0.2317   -1.2577 C   0  0  0  0  0  0  0  0  0  0  0  0
    4.6341   -1.0877   -0.8968 N   0  0  0  0  0  0  0  0  0  0  0  0
    6.0478   -1.3976   -1.1333 C   0  0  0  0  0  0  0  0  0  0  0  0
    6.2916   -2.8392   -0.7604 C   0  0  0  0  0  0  0  0  0  0  0  0
    5.8470   -3.8651   -1.6007 C   0  0  0  0  0  0  0  0  0  0  0  0
    6.0593   -5.1786   -1.2172 C   0  0  0  0  0  0  0  0  0  0  0  0
    6.6747   -5.5341   -0.0700 N   0  0  0  0  0  0  0  0  0  0  0  0
    7.1013   -4.5312    0.7267 C   0  0  0  0  0  0  0  0  0  0  0  0
    6.9350   -3.1864    0.4311 C   0  0  0  0  0  0  0  0  0  0  0  0
    2.5166   -1.6484   -0.7316 H   0  0  0  0  0  0  0  0  0  0  0  0
    0.2234   -0.4894    2.0277 H   0  0  0  0  0  0  0  0  0  0  0  0
   -1.1079   -2.0372    3.3428 H   0  0  0  0  0  0  0  0  0  0  0  0
    0.4742   -5.3520    1.1006 H   0  0  0  0  0  0  0  0  0  0  0  0
    1.8336   -3.8054   -0.2390 H   0  0  0  0  0  0  0  0  0  0  0  0
    1.8880    2.6181   -0.8064 H   0  0  0  0  0  0  0  0  0  0  0  0
    5.4704    2.6348   -3.1636 H   0  0  0  0  0  0  0  0  0  0  0  0
    4.4258   -1.2356    0.0906 H   0  0  0  0  0  0  0  0  0  0  0  0
    6.6829   -0.7456   -0.5179 H   0  0  0  0  0  0  0  0  0  0  0  0
    6.3406   -1.2586   -2.1816 H   0  0  0  0  0  0  0  0  0  0  0  0
    5.3429   -3.6423   -2.5357 H   0  0  0  0  0  0  0  0  0  0  0  0
    5.7283   -6.0041   -1.8408 H   0  0  0  0  0  0  0  0  0  0  0  0
    7.5958   -4.8473    1.6411 H   0  0  0  0  0  0  0  0  0  0  0  0
    7.3054   -2.4341    1.1197 H   0  0  0  0  0  0  0  0  0  0  0  0
  1  2  2  0  0  0  0
  2  3  1  0  0  0  0
  2 11  1  0  0  0  0
  3  4  1  0  0  0  0
  3 26  1  0  0  0  0
  4  5  1  0  0  0  0
  4 10  2  0  0  0  0
  5  6  2  0  0  0  0
  5 27  1  0  0  0  0
  6  7  1  0  0  0  0
  6 28  1  0  0  0  0
  7  8  1  0  0  0  0
  7  9  2  0  0  0  0
  9 10  1  0  0  0  0
  9 29  1  0  0  0  0
 10 30  1  0  0  0  0
 11 12  1  0  0  0  0
 11 17  2  0  0  0  0
 12 13  2  0  0  0  0
 12 31  1  0  0  0  0
 13 14  1  0  0  0  0
 13 15  1  0  0  0  0
 15 16  2  0  0  0  0
 15 32  1  0  0  0  0
 16 17  1  0  0  0  0
 17 18  1  0  0  0  0
 18 19  1  0  0  0  0
 18 33  1  0  0  0  0
 19 20  1  0  0  0  0
 19 34  1  0  0  0  0
 19 35  1  0  0  0  0
 20 21  1  0  0  0  0
 20 25  2  0  0  0  0
 21 22  2  0  0  0  0
 21 36  1  0  0  0  0
 22 23  1  0  0  0  0
 22 37  1  0  0  0  0
 23 24  2  0  0  0  0
 24 25  1  0  0  0  0
 24 38  1  0  0  0  0
 25 39  1  0  0  0  0
M  END
$$$$
