CHEMBL1981725
 OpenBabel04072215363D

 79 85  0  0  0  0  0  0  0  0999 V2000
   -4.3660  -10.4169   -8.9258 C   0  0  0  0  0  0  0  0  0  0  0  0
   -4.1334  -11.1622   -7.6172 C   0  0  0  0  0  0  0  0  0  0  0  0
   -2.7384  -11.5645   -7.3803 N   0  0  0  0  0  0  0  0  0  0  0  0
   -2.6252  -12.3025   -6.0952 C   0  0  0  0  0  0  0  0  0  0  0  0
   -2.8381  -11.4344   -4.8340 C   0  0  0  0  0  0  0  0  0  0  0  0
   -1.9595  -10.2573   -4.8400 N   0  0  0  0  0  0  0  0  0  0  0  0
   -1.0281  -10.0280   -3.8458 C   0  0  0  0  0  0  0  0  0  0  0  0
   -0.3855  -11.0690   -3.1672 C   0  0  0  0  0  0  0  0  0  0  0  0
    0.5984  -10.8189   -2.2008 C   0  0  0  0  0  0  0  0  0  0  0  0
    0.9812   -9.5125   -1.8865 C   0  0  0  0  0  0  0  0  0  0  0  0
    1.9908   -9.2184   -0.9519 N   0  0  0  0  0  0  0  0  0  0  0  0
    3.1600   -9.9607   -0.7589 C   0  0  0  0  0  0  0  0  0  0  0  0
    3.6499  -10.7048   -1.7641 N   0  0  0  0  0  0  0  0  0  0  0  0
    4.6890  -11.5027   -1.4952 C   0  0  0  0  0  0  0  0  0  0  0  0
    5.2616  -11.5960   -0.2546 C   0  0  0  0  0  0  0  0  0  0  0  0
    4.7460  -10.7600    0.7085 C   0  0  0  0  0  0  0  0  0  0  0  0
    5.1744  -10.7924    2.1111 C   0  0  0  0  0  0  0  0  0  0  0  0
    4.4379  -10.7119    3.2951 C   0  0  0  0  0  0  0  0  0  0  0  0
    2.9889  -10.5958    3.4534 C   0  0  0  0  0  0  0  0  0  0  0  0
    2.0883  -11.2218    2.5786 C   0  0  0  0  0  0  0  0  0  0  0  0
    0.7096  -11.0705    2.7307 C   0  0  0  0  0  0  0  0  0  0  0  0
    0.2117  -10.3409    3.8044 C   0  0  0  0  0  0  0  0  0  0  0  0
    1.0913   -9.7553    4.7229 C   0  0  0  0  0  0  0  0  0  0  0  0
    0.5056   -9.0821    5.9120 C   0  0  0  0  0  0  0  0  0  0  0  0
   -0.5510   -9.5182    6.3568 O   0  0  0  0  0  0  0  0  0  0  0  0
    1.1903   -7.9769    6.3757 N   0  0  0  0  0  0  0  0  0  0  0  0
    0.8441   -7.1970    7.5025 C   0  0  0  0  0  0  0  0  0  0  0  0
   -0.0643   -7.6049    8.4815 C   0  0  0  0  0  0  0  0  0  0  0  0
   -0.3712   -6.7637    9.5570 C   0  0  0  0  0  0  0  0  0  0  0  0
    0.2266   -5.5083    9.6636 C   0  0  0  0  0  0  0  0  0  0  0  0
    1.1490   -5.0987    8.7034 C   0  0  0  0  0  0  0  0  0  0  0  0
    1.4572   -5.9466    7.6422 C   0  0  0  0  0  0  0  0  0  0  0  0
    2.3441   -5.5370    6.7209 F   0  0  0  0  0  0  0  0  0  0  0  0
    2.4754   -9.8764    4.5439 C   0  0  0  0  0  0  0  0  0  0  0  0
    5.2518  -10.7753    4.4038 N   0  0  0  0  0  0  0  0  0  0  0  0
    6.4673  -10.9310    3.9390 C   0  0  0  0  0  0  0  0  0  0  0  0
    7.7009  -11.1057    4.6295 C   0  0  0  0  0  0  0  0  0  0  0  0
    8.8445  -11.2615    3.9383 C   0  0  0  0  0  0  0  0  0  0  0  0
    8.8552  -11.2206    2.4880 C   0  0  0  0  0  0  0  0  0  0  0  0
    7.6986  -11.0335    1.8308 C   0  0  0  0  0  0  0  0  0  0  0  0
    6.4961  -10.9185    2.5453 N   0  0  0  0  0  0  0  0  0  0  0  0
    3.7143   -9.9283    0.4583 N   0  0  0  0  0  0  0  0  0  0  0  0
    0.2861   -8.4656   -2.4888 C   0  0  0  0  0  0  0  0  0  0  0  0
   -0.6830   -8.7219   -3.4685 C   0  0  0  0  0  0  0  0  0  0  0  0
   -1.8901   -9.4961   -6.1006 C   0  0  0  0  0  0  0  0  0  0  0  0
   -1.7803  -10.4358   -7.3288 C   0  0  0  0  0  0  0  0  0  0  0  0
   -5.4427  -10.3155   -9.1026 H   0  0  0  0  0  0  0  0  0  0  0  0
   -3.9354  -10.9524   -9.7771 H   0  0  0  0  0  0  0  0  0  0  0  0
   -3.9467   -9.4068   -8.8932 H   0  0  0  0  0  0  0  0  0  0  0  0
   -4.7436  -12.0740   -7.6572 H   0  0  0  0  0  0  0  0  0  0  0  0
   -4.5335  -10.5503   -6.8023 H   0  0  0  0  0  0  0  0  0  0  0  0
   -1.6246  -12.7531   -6.0479 H   0  0  0  0  0  0  0  0  0  0  0  0
   -3.3286  -13.1439   -6.0854 H   0  0  0  0  0  0  0  0  0  0  0  0
   -2.7148  -12.0541   -3.9397 H   0  0  0  0  0  0  0  0  0  0  0  0
   -3.8754  -11.0819   -4.7928 H   0  0  0  0  0  0  0  0  0  0  0  0
   -0.5963  -12.1050   -3.4152 H   0  0  0  0  0  0  0  0  0  0  0  0
    1.0801  -11.6672   -1.7222 H   0  0  0  0  0  0  0  0  0  0  0  0
    1.6358   -8.9543   -0.0385 H   0  0  0  0  0  0  0  0  0  0  0  0
    5.0363  -12.1044   -2.3294 H   0  0  0  0  0  0  0  0  0  0  0  0
    6.0480  -12.3112   -0.0674 H   0  0  0  0  0  0  0  0  0  0  0  0
    2.4451  -11.8402    1.7599 H   0  0  0  0  0  0  0  0  0  0  0  0
    0.0283  -11.5379    2.0244 H   0  0  0  0  0  0  0  0  0  0  0  0
   -0.8642  -10.2468    3.9398 H   0  0  0  0  0  0  0  0  0  0  0  0
    1.9290   -7.5929    5.7951 H   0  0  0  0  0  0  0  0  0  0  0  0
   -0.5411   -8.5800    8.4426 H   0  0  0  0  0  0  0  0  0  0  0  0
   -1.0830   -7.0956   10.3097 H   0  0  0  0  0  0  0  0  0  0  0  0
   -0.0267   -4.8547   10.4943 H   0  0  0  0  0  0  0  0  0  0  0  0
    1.6236   -4.1255    8.7697 H   0  0  0  0  0  0  0  0  0  0  0  0
    3.1667   -9.4513    5.2692 H   0  0  0  0  0  0  0  0  0  0  0  0
    7.6883  -11.1150    5.7135 H   0  0  0  0  0  0  0  0  0  0  0  0
    9.7895  -11.4030    4.4549 H   0  0  0  0  0  0  0  0  0  0  0  0
    9.8007  -11.3325    1.9663 H   0  0  0  0  0  0  0  0  0  0  0  0
    7.6709  -10.9697    0.7531 H   0  0  0  0  0  0  0  0  0  0  0  0
    0.5294   -7.4369   -2.2377 H   0  0  0  0  0  0  0  0  0  0  0  0
   -1.1823   -7.8746   -3.9316 H   0  0  0  0  0  0  0  0  0  0  0  0
   -1.0191   -8.8284   -6.1255 H   0  0  0  0  0  0  0  0  0  0  0  0
   -2.7831   -8.8670   -6.1875 H   0  0  0  0  0  0  0  0  0  0  0  0
   -0.7704  -10.8707   -7.3307 H   0  0  0  0  0  0  0  0  0  0  0  0
   -1.8265   -9.8446   -8.2498 H   0  0  0  0  0  0  0  0  0  0  0  0
  1  2  1  0  0  0  0
  1 47  1  0  0  0  0
  1 48  1  0  0  0  0
  1 49  1  0  0  0  0
  2  3  1  0  0  0  0
  2 50  1  0  0  0  0
  2 51  1  0  0  0  0
  3  4  1  0  0  0  0
  3 46  1  0  0  0  0
  4  5  1  0  0  0  0
  4 52  1  0  0  0  0
  4 53  1  0  0  0  0
  5  6  1  0  0  0  0
  5 54  1  0  0  0  0
  5 55  1  0  0  0  0
  6  7  1  0  0  0  0
  6 45  1  0  0  0  0
  7  8  1  0  0  0  0
  7 44  2  0  0  0  0
  8  9  2  0  0  0  0
  8 56  1  0  0  0  0
  9 10  1  0  0  0  0
  9 57  1  0  0  0  0
 10 11  1  0  0  0  0
 10 43  2  0  0  0  0
 11 12  1  0  0  0  0
 11 58  1  0  0  0  0
 12 13  1  0  0  0  0
 12 42  2  0  0  0  0
 13 14  2  0  0  0  0
 14 15  1  0  0  0  0
 14 59  1  0  0  0  0
 15 16  2  0  0  0  0
 15 60  1  0  0  0  0
 16 17  1  0  0  0  0
 16 42  1  0  0  0  0
 17 18  2  0  0  0  0
 17 41  1  0  0  0  0
 18 19  1  0  0  0  0
 18 35  1  0  0  0  0
 19 20  1  0  0  0  0
 19 34  2  0  0  0  0
 20 21  2  0  0  0  0
 20 61  1  0  0  0  0
 21 22  1  0  0  0  0
 21 62  1  0  0  0  0
 22 23  2  0  0  0  0
 22 63  1  0  0  0  0
 23 24  1  0  0  0  0
 23 34  1  0  0  0  0
 24 25  2  0  0  0  0
 24 26  1  0  0  0  0
 26 27  1  0  0  0  0
 26 64  1  0  0  0  0
 27 28  1  0  0  0  0
 27 32  2  0  0  0  0
 28 29  2  0  0  0  0
 28 65  1  0  0  0  0
 29 30  1  0  0  0  0
 29 66  1  0  0  0  0
 30 31  2  0  0  0  0
 30 67  1  0  0  0  0
 31 32  1  0  0  0  0
 31 68  1  0  0  0  0
 32 33  1  0  0  0  0
 34 69  1  0  0  0  0
 35 36  2  0  0  0  0
 36 37  1  0  0  0  0
 36 41  1  0  0  0  0
 37 38  2  0  0  0  0
 37 70  1  0  0  0  0
 38 39  1  0  0  0  0
 38 71  1  0  0  0  0
 39 40  2  0  0  0  0
 39 72  1  0  0  0  0
 40 41  1  0  0  0  0
 40 73  1  0  0  0  0
 43 44  1  0  0  0  0
 43 74  1  0  0  0  0
 44 75  1  0  0  0  0
 45 46  1  0  0  0  0
 45 76  1  0  0  0  0
 45 77  1  0  0  0  0
 46 78  1  0  0  0  0
 46 79  1  0  0  0  0
M  END
$$$$
