CHEMBL3893642
 OpenBabel04072215373D

 60 63  0  0  0  0  0  0  0  0999 V2000
    0.8145    0.4463    1.2609 C   0  0  0  0  0  0  0  0  0  0  0  0
    2.2346    0.4273    1.1907 O   0  0  0  0  0  0  0  0  0  0  0  0
    2.8498    1.4709    0.5526 C   0  0  0  0  0  0  0  0  0  0  0  0
    2.2166    2.5566   -0.0404 C   0  0  0  0  0  0  0  0  0  0  0  0
    2.9968    3.5263   -0.6586 C   0  0  0  0  0  0  0  0  0  0  0  0
    2.4291    4.6118   -1.2628 O   0  0  0  0  0  0  0  0  0  0  0  0
    4.3902    3.4341   -0.6784 C   0  0  0  0  0  0  0  0  0  0  0  0
    5.0677    2.3703   -0.0575 C   0  0  0  0  0  0  0  0  0  0  0  0
    6.4868    2.3379   -0.0085 N   0  0  0  0  0  0  0  0  0  0  0  0
    7.1805    1.0203   -0.0407 C   0  0  0  0  0  0  0  0  0  0  0  0
    8.2760    0.8627    1.0576 C   0  0  0  0  0  0  0  0  0  0  0  0
    7.8251    0.8138    2.4542 N   0  0  0  0  0  0  0  0  0  0  0  0
    7.0020   -0.3479    2.7954 C   0  0  0  0  0  0  0  0  0  0  0  0
    7.6844   -1.6829    2.4970 C   0  0  0  0  0  0  0  0  0  0  0  0
    6.6295   -0.2633    4.2750 C   0  0  0  0  0  0  0  0  0  0  0  0
    7.3370    3.4762   -0.0632 C   0  0  0  0  0  0  0  0  0  0  0  0
    8.5489    3.4779   -0.7668 C   0  0  0  0  0  0  0  0  0  0  0  0
    9.4323    4.5522   -0.6727 C   0  0  0  0  0  0  0  0  0  0  0  0
    9.1125    5.6719    0.0694 C   0  0  0  0  0  0  0  0  0  0  0  0
    9.9999    6.6765    0.1396 N   0  0  0  0  0  0  0  0  0  0  0  0
    9.6129    7.7583    0.8523 C   0  0  0  0  0  0  0  0  0  0  0  0
    8.3775    7.8508    1.4772 C   0  0  0  0  0  0  0  0  0  0  0  0
    7.9684    9.0580    2.1670 C   0  0  0  0  0  0  0  0  0  0  0  0
    8.6247   10.2979    2.3338 C   0  0  0  0  0  0  0  0  0  0  0  0
    7.8945   11.1846    3.0165 N   0  0  0  0  0  0  0  0  0  0  0  0
    6.7582   10.5128    3.2855 N   0  0  0  0  0  0  0  0  0  0  0  0
    5.6872   11.1651    3.9952 C   0  0  0  0  0  0  0  0  0  0  0  0
    6.7569    9.2368    2.8073 C   0  0  0  0  0  0  0  0  0  0  0  0
    7.4940    6.8253    1.4308 N   0  0  0  0  0  0  0  0  0  0  0  0
    7.8624    5.7342    0.7294 C   0  0  0  0  0  0  0  0  0  0  0  0
    7.0126    4.6364    0.6596 C   0  0  0  0  0  0  0  0  0  0  0  0
    4.2542    1.3900    0.5328 C   0  0  0  0  0  0  0  0  0  0  0  0
    0.4937   -0.4771    1.7539 H   0  0  0  0  0  0  0  0  0  0  0  0
    0.3651    0.4610    0.2626 H   0  0  0  0  0  0  0  0  0  0  0  0
    0.4613    1.2874    1.8665 H   0  0  0  0  0  0  0  0  0  0  0  0
    1.1393    2.6576   -0.0307 H   0  0  0  0  0  0  0  0  0  0  0  0
    1.4689    4.5888   -1.1207 H   0  0  0  0  0  0  0  0  0  0  0  0
    4.9440    4.2146   -1.1939 H   0  0  0  0  0  0  0  0  0  0  0  0
    7.6486    0.8874   -1.0245 H   0  0  0  0  0  0  0  0  0  0  0  0
    6.4900    0.1744    0.0269 H   0  0  0  0  0  0  0  0  0  0  0  0
    8.9942    1.6867    1.0089 H   0  0  0  0  0  0  0  0  0  0  0  0
    8.8855   -0.0175    0.8267 H   0  0  0  0  0  0  0  0  0  0  0  0
    7.3034    1.6727    2.6480 H   0  0  0  0  0  0  0  0  0  0  0  0
    6.0700   -0.3161    2.2334 H   0  0  0  0  0  0  0  0  0  0  0  0
    8.6575   -1.7573    2.9933 H   0  0  0  0  0  0  0  0  0  0  0  0
    7.8350   -1.8249    1.4216 H   0  0  0  0  0  0  0  0  0  0  0  0
    7.0617   -2.5163    2.8379 H   0  0  0  0  0  0  0  0  0  0  0  0
    7.5141   -0.3198    4.9184 H   0  0  0  0  0  0  0  0  0  0  0  0
    5.9598   -1.0868    4.5461 H   0  0  0  0  0  0  0  0  0  0  0  0
    6.1035    0.6723    4.4971 H   0  0  0  0  0  0  0  0  0  0  0  0
    8.8501    2.6338   -1.3799 H   0  0  0  0  0  0  0  0  0  0  0  0
   10.3913    4.5077   -1.1822 H   0  0  0  0  0  0  0  0  0  0  0  0
   10.3441    8.5571    0.8895 H   0  0  0  0  0  0  0  0  0  0  0  0
    9.6024   10.6083    1.9810 H   0  0  0  0  0  0  0  0  0  0  0  0
    6.0057   12.1667    4.2967 H   0  0  0  0  0  0  0  0  0  0  0  0
    5.4439   10.5698    4.8783 H   0  0  0  0  0  0  0  0  0  0  0  0
    4.8256   11.2337    3.3264 H   0  0  0  0  0  0  0  0  0  0  0  0
    5.9107    8.5740    2.9395 H   0  0  0  0  0  0  0  0  0  0  0  0
    6.0801    4.6825    1.2185 H   0  0  0  0  0  0  0  0  0  0  0  0
    4.6880    0.5382    1.0359 H   0  0  0  0  0  0  0  0  0  0  0  0
  1  2  1  0  0  0  0
  1 33  1  0  0  0  0
  1 34  1  0  0  0  0
  1 35  1  0  0  0  0
  2  3  1  0  0  0  0
  3  4  1  0  0  0  0
  3 32  2  0  0  0  0
  4  5  2  0  0  0  0
  4 36  1  0  0  0  0
  5  6  1  0  0  0  0
  5  7  1  0  0  0  0
  6 37  1  0  0  0  0
  7  8  2  0  0  0  0
  7 38  1  0  0  0  0
  8  9  1  0  0  0  0
  8 32  1  0  0  0  0
  9 10  1  0  0  0  0
  9 16  1  0  0  0  0
 10 11  1  0  0  0  0
 10 39  1  0  0  0  0
 10 40  1  0  0  0  0
 11 12  1  0  0  0  0
 11 41  1  0  0  0  0
 11 42  1  0  0  0  0
 12 13  1  0  0  0  0
 12 43  1  0  0  0  0
 13 14  1  0  0  0  0
 13 15  1  0  0  0  0
 13 44  1  0  0  0  0
 14 45  1  0  0  0  0
 14 46  1  0  0  0  0
 14 47  1  0  0  0  0
 15 48  1  0  0  0  0
 15 49  1  0  0  0  0
 15 50  1  0  0  0  0
 16 17  1  0  0  0  0
 16 31  2  0  0  0  0
 17 18  2  0  0  0  0
 17 51  1  0  0  0  0
 18 19  1  0  0  0  0
 18 52  1  0  0  0  0
 19 20  1  0  0  0  0
 19 30  2  0  0  0  0
 20 21  2  0  0  0  0
 21 22  1  0  0  0  0
 21 53  1  0  0  0  0
 22 23  1  0  0  0  0
 22 29  2  0  0  0  0
 23 24  1  0  0  0  0
 23 28  2  0  0  0  0
 24 25  2  0  0  0  0
 24 54  1  0  0  0  0
 25 26  1  0  0  0  0
 26 27  1  0  0  0  0
 26 28  1  0  0  0  0
 27 55  1  0  0  0  0
 27 56  1  0  0  0  0
 27 57  1  0  0  0  0
 28 58  1  0  0  0  0
 29 30  1  0  0  0  0
 30 31  1  0  0  0  0
 31 59  1  0  0  0  0
 32 60  1  0  0  0  0
M  END
$$$$
