CHEMBL3694719
 OpenBabel04072215373D

 63 67  0  0  0  0  0  0  0  0999 V2000
    0.0590    0.9736   -0.9725 N   0  0  0  0  0  0  0  0  0  0  0  0
    0.8956   -0.2270   -0.8678 C   0  0  0  0  0  0  0  0  0  0  0  0
    2.3888    0.1509   -0.8300 C   0  0  0  0  0  0  0  0  0  0  0  0
    2.9413    0.5481   -2.2073 C   0  0  0  0  0  0  0  0  0  0  0  0
    2.6223   -0.5531   -3.1098 N   0  0  0  0  0  0  0  0  0  0  0  0
    3.4664   -0.8333   -4.1712 C   0  0  0  0  0  0  0  0  0  0  0  0
    3.4492   -2.1286   -4.6963 C   0  0  0  0  0  0  0  0  0  0  0  0
    4.3150   -2.4855   -5.7219 C   0  0  0  0  0  0  0  0  0  0  0  0
    5.1910   -1.5325   -6.2251 C   0  0  0  0  0  0  0  0  0  0  0  0
    6.1301   -1.8909   -7.2901 C   0  0  0  0  0  0  0  0  0  0  0  0
    7.4583   -2.4268   -6.9948 C   0  0  0  0  0  0  0  0  0  0  0  0
    8.2560   -2.8157   -8.0002 C   0  0  0  0  0  0  0  0  0  0  0  0
    7.8019   -2.7266   -9.3189 N   0  0  0  0  0  0  0  0  0  0  0  0
    8.3850   -3.1313  -10.5121 C   0  0  0  0  0  0  0  0  0  0  0  0
    9.6460   -3.8643  -10.6841 C   0  0  0  0  0  0  0  0  0  0  0  0
   10.4440   -3.5846  -11.8003 C   0  0  0  0  0  0  0  0  0  0  0  0
   11.6049   -4.3122  -12.0413 C   0  0  0  0  0  0  0  0  0  0  0  0
   12.0071   -5.3036  -11.1489 C   0  0  0  0  0  0  0  0  0  0  0  0
   11.2619   -5.5808  -10.0025 C   0  0  0  0  0  0  0  0  0  0  0  0
   11.6567   -6.5368   -9.0328 N   0  0  0  0  0  0  0  0  0  0  0  0
   12.8128   -7.2808   -9.0470 C   0  0  0  0  0  0  0  0  0  0  0  0
   13.6988   -7.2471   -9.8877 O   0  0  0  0  0  0  0  0  0  0  0  0
   12.8933   -8.1714   -8.0035 N   0  0  0  0  0  0  0  0  0  0  0  0
   14.0876   -9.0262   -7.9197 C   0  0  0  0  0  0  0  0  0  0  0  0
   15.3690   -8.3562   -7.3983 C   0  0  0  0  0  0  0  0  0  0  0  0
   15.1290   -7.1238   -6.8938 F   0  0  0  0  0  0  0  0  0  0  0  0
   15.8929   -9.0951   -6.3866 F   0  0  0  0  0  0  0  0  0  0  0  0
   16.3212   -8.2479   -8.3471 F   0  0  0  0  0  0  0  0  0  0  0  0
   10.0587   -4.8837   -9.8028 C   0  0  0  0  0  0  0  0  0  0  0  0
    7.4996   -2.6789  -11.4819 C   0  0  0  0  0  0  0  0  0  0  0  0
    6.3851   -2.0994  -10.9436 N   0  0  0  0  0  0  0  0  0  0  0  0
    6.5687   -2.1607   -9.6428 C   0  0  0  0  0  0  0  0  0  0  0  0
    5.7214   -1.7524   -8.5709 C   0  0  0  0  0  0  0  0  0  0  0  0
    5.1660   -0.2691   -5.6430 C   0  0  0  0  0  0  0  0  0  0  0  0
    4.3388    0.0899   -4.6280 N   0  0  0  0  0  0  0  0  0  0  0  0
    1.1864   -0.7187   -3.3382 C   0  0  0  0  0  0  0  0  0  0  0  0
    0.5828   -1.1952   -2.0196 C   0  0  0  0  0  0  0  0  0  0  0  0
    0.2154    1.5670   -0.1576 H   0  0  0  0  0  0  0  0  0  0  0  0
   -0.9254    0.7078   -0.9389 H   0  0  0  0  0  0  0  0  0  0  0  0
    0.6386   -0.7222    0.0765 H   0  0  0  0  0  0  0  0  0  0  0  0
    2.9500   -0.7256   -0.4760 H   0  0  0  0  0  0  0  0  0  0  0  0
    2.5734    0.9497   -0.1024 H   0  0  0  0  0  0  0  0  0  0  0  0
    4.0229    0.7014   -2.1128 H   0  0  0  0  0  0  0  0  0  0  0  0
    2.4983    1.4906   -2.5540 H   0  0  0  0  0  0  0  0  0  0  0  0
    2.7871   -2.8757   -4.2715 H   0  0  0  0  0  0  0  0  0  0  0  0
    4.3045   -3.5026   -6.1045 H   0  0  0  0  0  0  0  0  0  0  0  0
    7.7744   -2.5022   -5.9583 H   0  0  0  0  0  0  0  0  0  0  0  0
    9.2525   -3.1944   -7.8242 H   0  0  0  0  0  0  0  0  0  0  0  0
   10.1681   -2.8024  -12.5043 H   0  0  0  0  0  0  0  0  0  0  0  0
   12.2044   -4.1105  -12.9253 H   0  0  0  0  0  0  0  0  0  0  0  0
   12.9144   -5.8461  -11.3922 H   0  0  0  0  0  0  0  0  0  0  0  0
   11.0346   -6.6826   -8.2522 H   0  0  0  0  0  0  0  0  0  0  0  0
   12.4755   -7.8842   -7.1298 H   0  0  0  0  0  0  0  0  0  0  0  0
   14.2847   -9.4419   -8.9157 H   0  0  0  0  0  0  0  0  0  0  0  0
   13.8179   -9.8636   -7.2700 H   0  0  0  0  0  0  0  0  0  0  0  0
    9.4282   -5.1541   -8.9617 H   0  0  0  0  0  0  0  0  0  0  0  0
    7.6007   -2.7741  -12.5563 H   0  0  0  0  0  0  0  0  0  0  0  0
    4.7421   -1.3612   -8.8294 H   0  0  0  0  0  0  0  0  0  0  0  0
    5.8366    0.5156   -5.9806 H   0  0  0  0  0  0  0  0  0  0  0  0
    0.9573   -1.4530   -4.1190 H   0  0  0  0  0  0  0  0  0  0  0  0
    0.7354    0.2291   -3.6607 H   0  0  0  0  0  0  0  0  0  0  0  0
    1.0092   -2.1779   -1.7755 H   0  0  0  0  0  0  0  0  0  0  0  0
   -0.4977   -1.3437   -2.1310 H   0  0  0  0  0  0  0  0  0  0  0  0
  1  2  1  0  0  0  0
  1 38  1  0  0  0  0
  1 39  1  0  0  0  0
  2  3  1  0  0  0  0
  2 37  1  0  0  0  0
  2 40  1  0  0  0  0
  3  4  1  0  0  0  0
  3 41  1  0  0  0  0
  3 42  1  0  0  0  0
  4  5  1  0  0  0  0
  4 43  1  0  0  0  0
  4 44  1  0  0  0  0
  5  6  1  0  0  0  0
  5 36  1  0  0  0  0
  6  7  1  0  0  0  0
  6 35  2  0  0  0  0
  7  8  2  0  0  0  0
  7 45  1  0  0  0  0
  8  9  1  0  0  0  0
  8 46  1  0  0  0  0
  9 10  1  0  0  0  0
  9 34  2  0  0  0  0
 10 11  1  0  0  0  0
 10 33  2  0  0  0  0
 11 12  2  0  0  0  0
 11 47  1  0  0  0  0
 12 13  1  0  0  0  0
 12 48  1  0  0  0  0
 13 14  1  0  0  0  0
 13 32  1  0  0  0  0
 14 15  1  0  0  0  0
 14 30  2  0  0  0  0
 15 16  1  0  0  0  0
 15 29  2  0  0  0  0
 16 17  2  0  0  0  0
 16 49  1  0  0  0  0
 17 18  1  0  0  0  0
 17 50  1  0  0  0  0
 18 19  2  0  0  0  0
 18 51  1  0  0  0  0
 19 20  1  0  0  0  0
 19 29  1  0  0  0  0
 20 21  1  0  0  0  0
 20 52  1  0  0  0  0
 21 22  2  0  0  0  0
 21 23  1  0  0  0  0
 23 24  1  0  0  0  0
 23 53  1  0  0  0  0
 24 25  1  0  0  0  0
 24 54  1  0  0  0  0
 24 55  1  0  0  0  0
 25 26  1  0  0  0  0
 25 27  1  0  0  0  0
 25 28  1  0  0  0  0
 29 56  1  0  0  0  0
 30 31  1  0  0  0  0
 30 57  1  0  0  0  0
 31 32  2  0  0  0  0
 32 33  1  0  0  0  0
 33 58  1  0  0  0  0
 34 35  1  0  0  0  0
 34 59  1  0  0  0  0
 36 37  1  0  0  0  0
 36 60  1  0  0  0  0
 36 61  1  0  0  0  0
 37 62  1  0  0  0  0
 37 63  1  0  0  0  0
M  END
$$$$
