CHEMBL194939
 OpenBabel04072215363D

 50 53  0  0  0  0  0  0  0  0999 V2000
    9.2451    4.9649    0.9320 C   0  0  0  0  0  0  0  0  0  0  0  0
    8.6084    3.6398    0.5609 C   0  0  0  0  0  0  0  0  0  0  0  0
    7.7632    3.7335   -1.0099 S   0  0  0  0  0  0  0  0  0  0  0  0
    6.7356    4.7507   -0.9092 O   0  0  0  0  0  0  0  0  0  0  0  0
    8.7506    3.7687   -2.0738 O   0  0  0  0  0  0  0  0  0  0  0  0
    6.9326    2.1664   -1.1334 C   0  0  0  0  0  0  0  0  0  0  0  0
    5.5454    2.0923   -1.2191 C   0  0  0  0  0  0  0  0  0  0  0  0
    4.9239    0.8377   -1.2484 C   0  0  0  0  0  0  0  0  0  0  0  0
    5.6865   -0.3381   -1.1796 C   0  0  0  0  0  0  0  0  0  0  0  0
    5.1633   -1.6094   -1.1463 O   0  0  0  0  0  0  0  0  0  0  0  0
    3.8054   -1.7502   -1.5504 C   0  0  0  0  0  0  0  0  0  0  0  0
    7.0914   -0.2591   -1.0944 C   0  0  0  0  0  0  0  0  0  0  0  0
    7.8828   -1.4330   -1.0482 N   0  0  0  0  0  0  0  0  0  0  0  0
    9.0981   -1.4671   -0.4672 C   0  0  0  0  0  0  0  0  0  0  0  0
    9.5885   -0.6625    0.4539 N   0  0  0  0  0  0  0  0  0  0  0  0
   10.8918   -1.0233    0.5608 C   0  0  0  0  0  0  0  0  0  0  0  0
   11.1804   -2.0427   -0.3234 C   0  0  0  0  0  0  0  0  0  0  0  0
   12.4005   -2.7559   -0.6732 C   0  0  0  0  0  0  0  0  0  0  0  0
   13.5916   -2.4371    0.0005 C   0  0  0  0  0  0  0  0  0  0  0  0
   14.7796   -3.1065   -0.2795 C   0  0  0  0  0  0  0  0  0  0  0  0
   14.7916   -4.1155   -1.2361 C   0  0  0  0  0  0  0  0  0  0  0  0
   13.6200   -4.4636   -1.9243 C   0  0  0  0  0  0  0  0  0  0  0  0
   13.6481   -5.6010   -2.8439 C   0  0  0  0  0  0  0  0  0  0  0  0
   14.4186   -6.8021   -2.6810 C   0  0  0  0  0  0  0  0  0  0  0  0
   14.2169   -7.7099   -3.6951 C   0  0  0  0  0  0  0  0  0  0  0  0
   13.1128   -7.1264   -4.8599 S   0  0  0  0  0  0  0  0  0  0  0  0
   12.9009   -5.6553   -4.0052 C   0  0  0  0  0  0  0  0  0  0  0  0
   12.4319   -3.7611   -1.6522 C   0  0  0  0  0  0  0  0  0  0  0  0
   10.0044   -2.3711   -0.9544 O   0  0  0  0  0  0  0  0  0  0  0  0
    7.6999    1.0073   -1.1127 C   0  0  0  0  0  0  0  0  0  0  0  0
    9.7455    4.8884    1.9021 H   0  0  0  0  0  0  0  0  0  0  0  0
    8.4942    5.7585    0.9993 H   0  0  0  0  0  0  0  0  0  0  0  0
    9.9874    5.2684    0.1870 H   0  0  0  0  0  0  0  0  0  0  0  0
    7.8726    3.3515    1.3176 H   0  0  0  0  0  0  0  0  0  0  0  0
    9.3755    2.8633    0.4904 H   0  0  0  0  0  0  0  0  0  0  0  0
    4.9416    2.9958   -1.2600 H   0  0  0  0  0  0  0  0  0  0  0  0
    3.8404    0.8163   -1.3063 H   0  0  0  0  0  0  0  0  0  0  0  0
    3.5542   -2.8145   -1.5088 H   0  0  0  0  0  0  0  0  0  0  0  0
    3.6719   -1.4128   -2.5834 H   0  0  0  0  0  0  0  0  0  0  0  0
    3.1234   -1.2284   -0.8714 H   0  0  0  0  0  0  0  0  0  0  0  0
    7.3288   -2.2830   -1.0345 H   0  0  0  0  0  0  0  0  0  0  0  0
   11.5627   -0.5225    1.2399 H   0  0  0  0  0  0  0  0  0  0  0  0
   13.6123   -1.6643    0.7653 H   0  0  0  0  0  0  0  0  0  0  0  0
   15.6886   -2.8525    0.2593 H   0  0  0  0  0  0  0  0  0  0  0  0
   15.7275   -4.6334   -1.4328 H   0  0  0  0  0  0  0  0  0  0  0  0
   15.0786   -6.9989   -1.8444 H   0  0  0  0  0  0  0  0  0  0  0  0
   14.6636   -8.6889   -3.8021 H   0  0  0  0  0  0  0  0  0  0  0  0
   12.2326   -4.9085   -4.4115 H   0  0  0  0  0  0  0  0  0  0  0  0
   11.5163   -4.0195   -2.1799 H   0  0  0  0  0  0  0  0  0  0  0  0
    8.7847    1.0912   -1.1104 H   0  0  0  0  0  0  0  0  0  0  0  0
  1  2  1  0  0  0  0
  1 31  1  0  0  0  0
  1 32  1  0  0  0  0
  1 33  1  0  0  0  0
  2  3  1  0  0  0  0
  2 34  1  0  0  0  0
  2 35  1  0  0  0  0
  3  4  2  0  0  0  0
  3  5  2  0  0  0  0
  3  6  1  0  0  0  0
  6  7  1  0  0  0  0
  6 30  2  0  0  0  0
  7  8  2  0  0  0  0
  7 36  1  0  0  0  0
  8  9  1  0  0  0  0
  8 37  1  0  0  0  0
  9 10  1  0  0  0  0
  9 12  2  0  0  0  0
 10 11  1  0  0  0  0
 11 38  1  0  0  0  0
 11 39  1  0  0  0  0
 11 40  1  0  0  0  0
 12 13  1  0  0  0  0
 12 30  1  0  0  0  0
 13 14  1  0  0  0  0
 13 41  1  0  0  0  0
 14 15  2  0  0  0  0
 14 29  1  0  0  0  0
 15 16  1  0  0  0  0
 16 17  2  0  0  0  0
 16 42  1  0  0  0  0
 17 18  1  0  0  0  0
 17 29  1  0  0  0  0
 18 19  1  0  0  0  0
 18 28  2  0  0  0  0
 19 20  2  0  0  0  0
 19 43  1  0  0  0  0
 20 21  1  0  0  0  0
 20 44  1  0  0  0  0
 21 22  2  0  0  0  0
 21 45  1  0  0  0  0
 22 23  1  0  0  0  0
 22 28  1  0  0  0  0
 23 24  1  0  0  0  0
 23 27  2  0  0  0  0
 24 25  2  0  0  0  0
 24 46  1  0  0  0  0
 25 26  1  0  0  0  0
 25 47  1  0  0  0  0
 26 27  1  0  0  0  0
 27 48  1  0  0  0  0
 28 49  1  0  0  0  0
 30 50  1  0  0  0  0
M  END
$$$$
