CHEMBL3656079
 OpenBabel04072215373D

 90 93  0  0  1  0  0  0  0  0999 V2000
   -0.5380    3.4018   11.8323 C   0  0  0  0  0  0  0  0  0  0  0  0
   -1.6271    2.7837   11.0037 C   0  0  0  0  0  0  0  0  0  0  0  0
   -1.9947    1.4528   11.2241 C   0  0  0  0  0  0  0  0  0  0  0  0
   -3.0242    0.8852   10.4848 C   0  0  0  0  0  0  0  0  0  0  0  0
   -3.6808    1.6348    9.5112 C   0  0  0  0  0  0  0  0  0  0  0  0
   -4.7495    1.0563    8.9503 F   0  0  0  0  0  0  0  0  0  0  0  0
   -3.2946    2.9508    9.2143 C   0  0  0  0  0  0  0  0  0  0  0  0
   -3.8561    3.7469    8.1771 N   0  0  0  0  0  0  0  0  0  0  0  0
   -4.5438    3.2549    7.0788 C   0  0  0  0  0  0  0  0  0  0  0  0
   -4.7315    2.0659    6.8385 O   0  0  0  0  0  0  0  0  0  0  0  0
   -4.9560    4.2506    6.2036 N   0  0  0  0  0  0  0  0  0  0  0  0
   -5.7505    3.8730    5.0893 C   0  0  0  0  0  0  0  0  0  0  0  0
   -6.8956    3.0902    5.2738 C   0  0  0  0  0  0  0  0  0  0  0  0
   -7.6140    2.6144    4.1769 C   0  0  0  0  0  0  0  0  0  0  0  0
   -7.2260    2.9659    2.8829 C   0  0  0  0  0  0  0  0  0  0  0  0
   -7.8726    2.5440    1.7407 O   0  0  0  0  0  0  0  0  0  0  0  0
   -9.2375    2.3503    1.7670 C   0  0  0  0  0  0  0  0  0  0  0  0
  -10.1220    3.1460    2.4873 C   0  0  0  0  0  0  0  0  0  0  0  0
  -11.4644    2.8148    2.4595 C   0  0  0  0  0  0  0  0  0  0  0  0
  -11.9746    1.7940    1.7374 N   0  0  0  0  0  0  0  0  0  0  0  0
  -11.1001    1.0695    0.9980 C   0  0  0  0  0  0  0  0  0  0  0  0
  -11.7035   -0.0271    0.2484 C   0  0  0  0  0  0  0  0  0  0  0  0
  -11.1554   -0.9641   -0.6111 C   0  0  0  0  0  0  0  0  0  0  0  0
  -12.1724   -1.8814   -1.0149 C   0  0  0  0  0  0  0  0  0  0  0  0
  -12.0796   -3.0697   -1.8652 C   0  0  0  0  0  0  0  0  0  0  0  0
  -13.0268   -3.8268   -2.0461 O   0  0  0  0  0  0  0  0  0  0  0  0
  -10.8515   -3.2616   -2.4588 N   0  0  0  0  0  0  0  0  0  0  0  0
  -10.5677   -4.3610   -3.3861 C   0  0  1  0  0  0  0  0  0  0  0  0
  -11.4109   -4.2266   -4.6682 C   0  0  0  0  0  0  0  0  0  0  0  0
  -11.1760   -5.3114   -5.7124 C   0  0  0  0  0  0  0  0  0  0  0  0
  -11.4883   -6.7001   -5.2258 C   0  0  0  0  0  0  0  0  0  0  0  0
  -10.6770   -7.6161   -5.1957 O   0  0  0  0  0  0  0  0  0  0  0  0
  -12.8158   -6.8096   -4.9555 O   0  0  0  0  0  0  0  0  0  0  0  0
  -13.3341   -8.1447   -5.0473 C   0  0  0  0  0  0  0  0  0  0  0  0
  -13.7078   -8.4153   -6.5125 C   0  0  3  0  0  0  0  0  0  0  0  0
  -12.5658   -8.2964   -7.3746 O   0  0  0  0  0  0  0  0  0  0  0  0
  -14.3326   -9.8019   -6.6782 C   0  0  0  0  0  0  0  0  0  0  0  0
  -14.6951  -10.0590   -8.0331 O   0  0  0  0  0  0  0  0  0  0  0  0
   -9.0839   -4.2780   -3.7743 C   0  0  0  0  0  0  0  0  0  0  0  0
   -8.4739   -3.2243   -3.9164 O   0  0  0  0  0  0  0  0  0  0  0  0
   -8.6013   -5.5073   -4.0970 O   0  0  0  0  0  0  0  0  0  0  0  0
   -7.4791   -5.5235   -4.9966 C   0  0  0  0  0  0  0  0  0  0  0  0
   -6.1417   -5.2005   -4.3296 C   0  0  3  0  0  0  0  0  0  0  0  0
   -5.8510   -6.1754   -3.3212 O   0  0  0  0  0  0  0  0  0  0  0  0
   -5.0265   -5.1691   -5.3884 C   0  0  0  0  0  0  0  0  0  0  0  0
   -3.7633   -4.8528   -4.8120 O   0  0  0  0  0  0  0  0  0  0  0  0
  -13.3361   -1.4301   -0.4133 C   0  0  0  0  0  0  0  0  0  0  0  0
  -13.0451   -0.3204    0.3339 N   0  0  0  0  0  0  0  0  0  0  0  0
   -9.7338    1.3192    0.9767 C   0  0  0  0  0  0  0  0  0  0  0  0
   -6.0775    3.7417    2.6968 C   0  0  0  0  0  0  0  0  0  0  0  0
   -5.3525    4.2185    3.7975 C   0  0  0  0  0  0  0  0  0  0  0  0
   -2.2825    3.5277   10.0008 C   0  0  0  0  0  0  0  0  0  0  0  0
   -0.1503    2.6911   12.5714 H   0  0  0  0  0  0  0  0  0  0  0  0
   -0.9233    4.2682   12.3783 H   0  0  0  0  0  0  0  0  0  0  0  0
    0.2973    3.7091   11.1962 H   0  0  0  0  0  0  0  0  0  0  0  0
   -1.4981    0.8536   11.9839 H   0  0  0  0  0  0  0  0  0  0  0  0
   -3.3443   -0.1361   10.6655 H   0  0  0  0  0  0  0  0  0  0  0  0
   -3.6192    4.7258    8.1607 H   0  0  0  0  0  0  0  0  0  0  0  0
   -4.2559    4.9541    6.0283 H   0  0  0  0  0  0  0  0  0  0  0  0
   -7.2200    2.8167    6.2759 H   0  0  0  0  0  0  0  0  0  0  0  0
   -8.4621    1.9602    4.3568 H   0  0  0  0  0  0  0  0  0  0  0  0
   -9.7829    3.9868    3.0801 H   0  0  0  0  0  0  0  0  0  0  0  0
  -12.1854    3.3773    3.0462 H   0  0  0  0  0  0  0  0  0  0  0  0
  -10.1112   -1.0007   -0.8883 H   0  0  0  0  0  0  0  0  0  0  0  0
  -10.1113   -2.5902   -2.3018 H   0  0  0  0  0  0  0  0  0  0  0  0
  -10.7697   -5.2959   -2.8529 H   0  0  0  0  0  0  0  0  0  0  0  0
  -11.1994   -3.2565   -5.1382 H   0  0  0  0  0  0  0  0  0  0  0  0
  -12.4772   -4.2108   -4.4186 H   0  0  0  0  0  0  0  0  0  0  0  0
  -10.1488   -5.2955   -6.0869 H   0  0  0  0  0  0  0  0  0  0  0  0
  -11.8058   -5.1258   -6.5907 H   0  0  0  0  0  0  0  0  0  0  0  0
  -14.2249   -8.1933   -4.4122 H   0  0  0  0  0  0  0  0  0  0  0  0
  -12.6150   -8.8782   -4.6638 H   0  0  0  0  0  0  0  0  0  0  0  0
  -14.4050   -7.6437   -6.8583 H   0  0  0  0  0  0  0  0  0  0  0  0
  -11.8924   -8.9353   -7.0731 H   0  0  0  0  0  0  0  0  0  0  0  0
  -15.2331   -9.8956   -6.0651 H   0  0  0  0  0  0  0  0  0  0  0  0
  -13.6226  -10.5812   -6.3839 H   0  0  0  0  0  0  0  0  0  0  0  0
  -14.9721   -9.2178   -8.4372 H   0  0  0  0  0  0  0  0  0  0  0  0
   -7.6799   -4.8432   -5.8344 H   0  0  0  0  0  0  0  0  0  0  0  0
   -7.4503   -6.5396   -5.4120 H   0  0  0  0  0  0  0  0  0  0  0  0
   -6.1818   -4.2403   -3.8088 H   0  0  0  0  0  0  0  0  0  0  0  0
   -5.5039   -6.9730   -3.7575 H   0  0  0  0  0  0  0  0  0  0  0  0
   -5.2420   -4.4275   -6.1646 H   0  0  0  0  0  0  0  0  0  0  0  0
   -4.9191   -6.1480   -5.8679 H   0  0  0  0  0  0  0  0  0  0  0  0
   -3.8953   -4.1128   -4.1931 H   0  0  0  0  0  0  0  0  0  0  0  0
  -14.3451   -1.8218   -0.4498 H   0  0  0  0  0  0  0  0  0  0  0  0
  -13.6915    0.2084    0.9064 H   0  0  0  0  0  0  0  0  0  0  0  0
   -9.0573    0.7184    0.3812 H   0  0  0  0  0  0  0  0  0  0  0  0
   -5.7301    3.9551    1.6888 H   0  0  0  0  0  0  0  0  0  0  0  0
   -4.4442    4.7870    3.6248 H   0  0  0  0  0  0  0  0  0  0  0  0
   -1.9707    4.5553    9.8259 H   0  0  0  0  0  0  0  0  0  0  0  0
  1  2  1  0  0  0  0
  1 53  1  0  0  0  0
  1 54  1  0  0  0  0
  1 55  1  0  0  0  0
  2  3  1  0  0  0  0
  2 52  2  0  0  0  0
  3  4  2  0  0  0  0
  3 56  1  0  0  0  0
  4  5  1  0  0  0  0
  4 57  1  0  0  0  0
  5  6  1  0  0  0  0
  5  7  2  0  0  0  0
  7  8  1  0  0  0  0
  7 52  1  0  0  0  0
  8  9  1  0  0  0  0
  8 58  1  0  0  0  0
  9 10  2  0  0  0  0
  9 11  1  0  0  0  0
 11 12  1  0  0  0  0
 11 59  1  0  0  0  0
 12 13  1  0  0  0  0
 12 51  2  0  0  0  0
 13 14  2  0  0  0  0
 13 60  1  0  0  0  0
 14 15  1  0  0  0  0
 14 61  1  0  0  0  0
 15 16  1  0  0  0  0
 15 50  2  0  0  0  0
 16 17  1  0  0  0  0
 17 18  1  0  0  0  0
 17 49  2  0  0  0  0
 18 19  2  0  0  0  0
 18 62  1  0  0  0  0
 19 20  1  0  0  0  0
 19 63  1  0  0  0  0
 20 21  2  0  0  0  0
 21 22  1  0  0  0  0
 21 49  1  0  0  0  0
 22 23  2  0  0  0  0
 22 48  1  0  0  0  0
 23 24  1  0  0  0  0
 23 64  1  0  0  0  0
 24 25  1  0  0  0  0
 24 47  2  0  0  0  0
 25 26  2  0  0  0  0
 25 27  1  0  0  0  0
 27 28  1  0  0  0  0
 27 65  1  0  0  0  0
 28 29  1  0  0  0  0
 28 39  1  0  0  0  0
 28 66  1  1  0  0  0
 29 30  1  0  0  0  0
 29 67  1  0  0  0  0
 29 68  1  0  0  0  0
 30 31  1  0  0  0  0
 30 69  1  0  0  0  0
 30 70  1  0  0  0  0
 31 32  2  0  0  0  0
 31 33  1  0  0  0  0
 33 34  1  0  0  0  0
 34 35  1  0  0  0  0
 34 71  1  0  0  0  0
 34 72  1  0  0  0  0
 35 36  1  0  0  0  0
 35 37  1  0  0  0  0
 35 73  1  0  0  0  0
 36 74  1  0  0  0  0
 37 38  1  0  0  0  0
 37 75  1  0  0  0  0
 37 76  1  0  0  0  0
 38 77  1  0  0  0  0
 39 40  2  0  0  0  0
 39 41  1  0  0  0  0
 41 42  1  0  0  0  0
 42 43  1  0  0  0  0
 42 78  1  0  0  0  0
 42 79  1  0  0  0  0
 43 44  1  0  0  0  0
 43 45  1  0  0  0  0
 43 80  1  0  0  0  0
 44 81  1  0  0  0  0
 45 46  1  0  0  0  0
 45 82  1  0  0  0  0
 45 83  1  0  0  0  0
 46 84  1  0  0  0  0
 47 48  1  0  0  0  0
 47 85  1  0  0  0  0
 48 86  1  0  0  0  0
 49 87  1  0  0  0  0
 50 51  1  0  0  0  0
 50 88  1  0  0  0  0
 51 89  1  0  0  0  0
 52 90  1  0  0  0  0
M  END
$$$$
