CHEMBL3944909
 OpenBabel04072215373D

 75 78  0  0  0  0  0  0  0  0999 V2000
   12.7817   -5.7735    3.8491 C   0  0  0  0  0  0  0  0  0  0  0  0
   13.8390   -5.1283    4.7298 C   0  0  0  0  0  0  0  0  0  0  0  0
   13.1761   -4.2017    5.6014 O   0  0  0  0  0  0  0  0  0  0  0  0
   12.9707   -2.9597    5.0777 C   0  0  0  0  0  0  0  0  0  0  0  0
   13.5908   -2.5000    4.1267 O   0  0  0  0  0  0  0  0  0  0  0  0
   11.7755   -2.2784    5.7460 C   0  0  0  0  0  0  0  0  0  0  0  0
   10.5519   -3.1987    5.5673 C   0  0  0  0  0  0  0  0  0  0  0  0
   12.0718   -2.0543    7.2330 C   0  0  0  0  0  0  0  0  0  0  0  0
   11.5685   -0.9368    5.0040 C   0  0  0  0  0  0  0  0  0  0  0  0
   10.4509   -0.1532    5.5379 N   0  0  0  0  0  0  0  0  0  0  0  0
   10.0956    1.0506    4.9086 C   0  0  0  0  0  0  0  0  0  0  0  0
   10.8735    1.6989    3.9377 C   0  0  0  0  0  0  0  0  0  0  0  0
   10.4261    2.8767    3.3262 C   0  0  0  0  0  0  0  0  0  0  0  0
   11.1837    3.4461    2.2735 N   0  0  0  0  0  0  0  0  0  0  0  0
   10.5815    3.7289    1.0548 C   0  0  0  0  0  0  0  0  0  0  0  0
    9.3755    3.6129    0.8503 O   0  0  0  0  0  0  0  0  0  0  0  0
   11.4929    4.1043    0.0712 N   0  0  0  0  0  0  0  0  0  0  0  0
   11.0218    4.4349   -1.2258 C   0  0  0  0  0  0  0  0  0  0  0  0
    9.9397    5.3060   -1.3826 C   0  0  0  0  0  0  0  0  0  0  0  0
    9.3896    5.5494   -2.6444 C   0  0  0  0  0  0  0  0  0  0  0  0
    9.9544    4.9709   -3.7830 C   0  0  0  0  0  0  0  0  0  0  0  0
    9.4596    5.1562   -5.0614 O   0  0  0  0  0  0  0  0  0  0  0  0
    8.9422    6.3879   -5.4214 C   0  0  0  0  0  0  0  0  0  0  0  0
    9.3907    7.5886   -4.8789 C   0  0  0  0  0  0  0  0  0  0  0  0
    8.7560    8.7460   -5.2642 C   0  0  0  0  0  0  0  0  0  0  0  0
    7.7804    8.7787   -6.1835 N   0  0  0  0  0  0  0  0  0  0  0  0
    7.3940    7.6372   -6.7713 C   0  0  0  0  0  0  0  0  0  0  0  0
    6.3997    7.6799   -7.7695 N   0  0  0  0  0  0  0  0  0  0  0  0
    5.7808    8.8511   -8.1706 C   0  0  0  0  0  0  0  0  0  0  0  0
    5.9803    9.9867   -7.7387 O   0  0  0  0  0  0  0  0  0  0  0  0
    4.7571    8.6832   -9.2500 C   0  0  0  0  0  0  0  0  0  0  0  0
    4.5861    9.7735  -10.2864 C   0  0  0  0  0  0  0  0  0  0  0  0
    3.5250    9.5665   -9.2470 C   0  0  0  0  0  0  0  0  0  0  0  0
    7.9521    6.4122   -6.4148 C   0  0  0  0  0  0  0  0  0  0  0  0
   11.0421    4.1078   -3.6187 C   0  0  0  0  0  0  0  0  0  0  0  0
   11.5621    3.4742   -4.6805 F   0  0  0  0  0  0  0  0  0  0  0  0
   11.5989    3.8544   -2.3578 C   0  0  0  0  0  0  0  0  0  0  0  0
    9.2268    3.4601    3.7400 C   0  0  0  0  0  0  0  0  0  0  0  0
    8.4723    2.8813    4.7663 C   0  0  0  0  0  0  0  0  0  0  0  0
    7.1866    3.5047    5.2405 C   0  0  0  0  0  0  0  0  0  0  0  0
    6.8567    4.6545    4.5893 F   0  0  0  0  0  0  0  0  0  0  0  0
    6.1196    2.6705    5.0908 F   0  0  0  0  0  0  0  0  0  0  0  0
    7.2209    3.8263    6.5643 F   0  0  0  0  0  0  0  0  0  0  0  0
    8.9243    1.6854    5.3469 C   0  0  0  0  0  0  0  0  0  0  0  0
   13.2199   -6.5053    3.1679 H   0  0  0  0  0  0  0  0  0  0  0  0
   12.2505   -5.0168    3.2601 H   0  0  0  0  0  0  0  0  0  0  0  0
   12.0259   -6.2695    4.4684 H   0  0  0  0  0  0  0  0  0  0  0  0
   14.6217   -4.6469    4.1330 H   0  0  0  0  0  0  0  0  0  0  0  0
   14.3209   -5.8867    5.3546 H   0  0  0  0  0  0  0  0  0  0  0  0
   10.7019   -4.1679    6.0584 H   0  0  0  0  0  0  0  0  0  0  0  0
   10.3694   -3.4032    4.5060 H   0  0  0  0  0  0  0  0  0  0  0  0
    9.6421   -2.7680    5.9935 H   0  0  0  0  0  0  0  0  0  0  0  0
   12.2678   -3.0001    7.7513 H   0  0  0  0  0  0  0  0  0  0  0  0
   11.2298   -1.5730    7.7422 H   0  0  0  0  0  0  0  0  0  0  0  0
   12.9571   -1.4232    7.3676 H   0  0  0  0  0  0  0  0  0  0  0  0
   11.3960   -1.1350    3.9373 H   0  0  0  0  0  0  0  0  0  0  0  0
   12.4860   -0.3402    5.0908 H   0  0  0  0  0  0  0  0  0  0  0  0
    9.6129   -0.7061    5.7103 H   0  0  0  0  0  0  0  0  0  0  0  0
   11.7886    1.2409    3.5774 H   0  0  0  0  0  0  0  0  0  0  0  0
   12.1744    3.2585    2.2651 H   0  0  0  0  0  0  0  0  0  0  0  0
   12.3984    3.6620    0.1264 H   0  0  0  0  0  0  0  0  0  0  0  0
    9.5031    5.7986   -0.5163 H   0  0  0  0  0  0  0  0  0  0  0  0
    8.5170    6.1941   -2.7098 H   0  0  0  0  0  0  0  0  0  0  0  0
   10.1907    7.6389   -4.1520 H   0  0  0  0  0  0  0  0  0  0  0  0
    9.0143    9.7070   -4.8302 H   0  0  0  0  0  0  0  0  0  0  0  0
    6.1345    6.8180   -8.2060 H   0  0  0  0  0  0  0  0  0  0  0  0
    4.6079    7.6656   -9.5998 H   0  0  0  0  0  0  0  0  0  0  0  0
    4.3551    9.4904  -11.3090 H   0  0  0  0  0  0  0  0  0  0  0  0
    5.1993   10.6658  -10.2068 H   0  0  0  0  0  0  0  0  0  0  0  0
    2.5810    9.1422   -9.5620 H   0  0  0  0  0  0  0  0  0  0  0  0
    3.4342   10.3207   -8.4706 H   0  0  0  0  0  0  0  0  0  0  0  0
    7.6351    5.4860   -6.8831 H   0  0  0  0  0  0  0  0  0  0  0  0
   12.4183    3.1514   -2.2794 H   0  0  0  0  0  0  0  0  0  0  0  0
    8.8854    4.3838    3.2745 H   0  0  0  0  0  0  0  0  0  0  0  0
    8.3406    1.2380    6.1516 H   0  0  0  0  0  0  0  0  0  0  0  0
  1  2  1  0  0  0  0
  1 45  1  0  0  0  0
  1 46  1  0  0  0  0
  1 47  1  0  0  0  0
  2  3  1  0  0  0  0
  2 48  1  0  0  0  0
  2 49  1  0  0  0  0
  3  4  1  0  0  0  0
  4  5  2  0  0  0  0
  4  6  1  0  0  0  0
  6  7  1  0  0  0  0
  6  8  1  0  0  0  0
  6  9  1  0  0  0  0
  7 50  1  0  0  0  0
  7 51  1  0  0  0  0
  7 52  1  0  0  0  0
  8 53  1  0  0  0  0
  8 54  1  0  0  0  0
  8 55  1  0  0  0  0
  9 10  1  0  0  0  0
  9 56  1  0  0  0  0
  9 57  1  0  0  0  0
 10 11  1  0  0  0  0
 10 58  1  0  0  0  0
 11 12  1  0  0  0  0
 11 44  2  0  0  0  0
 12 13  2  0  0  0  0
 12 59  1  0  0  0  0
 13 14  1  0  0  0  0
 13 38  1  0  0  0  0
 14 15  1  0  0  0  0
 14 60  1  0  0  0  0
 15 16  2  0  0  0  0
 15 17  1  0  0  0  0
 17 18  1  0  0  0  0
 17 61  1  0  0  0  0
 18 19  1  0  0  0  0
 18 37  2  0  0  0  0
 19 20  2  0  0  0  0
 19 62  1  0  0  0  0
 20 21  1  0  0  0  0
 20 63  1  0  0  0  0
 21 22  1  0  0  0  0
 21 35  2  0  0  0  0
 22 23  1  0  0  0  0
 23 24  1  0  0  0  0
 23 34  2  0  0  0  0
 24 25  2  0  0  0  0
 24 64  1  0  0  0  0
 25 26  1  0  0  0  0
 25 65  1  0  0  0  0
 26 27  2  0  0  0  0
 27 28  1  0  0  0  0
 27 34  1  0  0  0  0
 28 29  1  0  0  0  0
 28 66  1  0  0  0  0
 29 30  2  0  0  0  0
 29 31  1  0  0  0  0
 31 32  1  0  0  0  0
 31 33  1  0  0  0  0
 31 67  1  0  0  0  0
 32 33  1  0  0  0  0
 32 68  1  0  0  0  0
 32 69  1  0  0  0  0
 33 70  1  0  0  0  0
 33 71  1  0  0  0  0
 34 72  1  0  0  0  0
 35 36  1  0  0  0  0
 35 37  1  0  0  0  0
 37 73  1  0  0  0  0
 38 39  2  0  0  0  0
 38 74  1  0  0  0  0
 39 40  1  0  0  0  0
 39 44  1  0  0  0  0
 40 41  1  0  0  0  0
 40 42  1  0  0  0  0
 40 43  1  0  0  0  0
 44 75  1  0  0  0  0
M  END
$$$$
