CHEMBL1241677
 OpenBabel04072215363D

 38 41  0  0  1  0  0  0  0  0999 V2000
    1.0591    0.1838    0.0939 N   0  0  0  0  0  0  0  0  0  0  0  0
    2.4364    0.0211    0.0240 C   0  0  0  0  0  0  0  0  0  0  0  0
    3.1607    1.1609   -0.0119 N   0  0  0  0  0  0  0  0  0  0  0  0
    4.5035    1.0747   -0.0533 C   0  0  0  0  0  0  0  0  0  0  0  0
    5.2568   -0.0316   -0.0236 N   0  0  0  0  0  0  0  0  0  0  0  0
    4.5014   -1.1405   -0.0097 C   0  0  0  0  0  0  0  0  0  0  0  0
    3.1141   -1.2087   -0.0066 C   0  0  0  0  0  0  0  0  0  0  0  0
    2.8232   -2.6103   -0.0511 C   0  0  0  0  0  0  0  0  0  0  0  0
    1.5308   -3.2981   -0.1536 C   0  0  0  0  0  0  0  0  0  0  0  0
    0.4606   -2.7350   -0.8642 C   0  0  0  0  0  0  0  0  0  0  0  0
   -0.7739   -3.3869   -0.9460 C   0  0  0  0  0  0  0  0  0  0  0  0
   -0.9291   -4.6422   -0.3671 C   0  0  0  0  0  0  0  0  0  0  0  0
   -2.4425   -5.4552   -0.4977 Cl  0  0  0  0  0  0  0  0  0  0  0  0
    0.1439   -5.2379    0.2961 C   0  0  0  0  0  0  0  0  0  0  0  0
    0.0536   -6.4914    0.8367 O   0  0  0  0  0  0  0  0  0  0  0  0
    1.3607   -4.5701    0.4174 C   0  0  0  0  0  0  0  0  0  0  0  0
    3.9536   -3.3391   -0.0066 N   0  0  0  0  0  0  0  0  0  0  0  0
    4.9480   -2.4333    0.0224 N   0  0  0  0  0  0  0  0  0  0  0  0
    6.3423   -2.8459    0.0993 C   0  0  2  0  0  0  0  0  0  0  0  0
    6.6302   -4.2588   -0.4012 C   0  0  0  0  0  0  0  0  0  0  0  0
    6.5655   -5.0988    0.8603 C   0  0  0  0  0  0  0  0  0  0  0  0
    7.1876   -4.2628    1.8946 N   0  0  0  0  0  0  0  0  0  0  0  0
    6.8455   -2.8676    1.5477 C   0  0  0  0  0  0  0  0  0  0  0  0
    0.8226    1.1430    0.3268 H   0  0  0  0  0  0  0  0  0  0  0  0
    0.5649   -0.5262    0.6188 H   0  0  0  0  0  0  0  0  0  0  0  0
    5.0369    2.0185   -0.1126 H   0  0  0  0  0  0  0  0  0  0  0  0
    0.5750   -1.7885   -1.3873 H   0  0  0  0  0  0  0  0  0  0  0  0
   -1.5956   -2.9138   -1.4765 H   0  0  0  0  0  0  0  0  0  0  0  0
   -0.8253   -6.8436    0.6027 H   0  0  0  0  0  0  0  0  0  0  0  0
    2.1824   -5.0541    0.9420 H   0  0  0  0  0  0  0  0  0  0  0  0
    6.9095   -2.1286   -0.5058 H   0  0  0  0  0  0  0  0  0  0  0  0
    7.6471   -4.2991   -0.8127 H   0  0  0  0  0  0  0  0  0  0  0  0
    5.9444   -4.6114   -1.1778 H   0  0  0  0  0  0  0  0  0  0  0  0
    7.0983   -6.0478    0.7458 H   0  0  0  0  0  0  0  0  0  0  0  0
    5.5311   -5.3267    1.1391 H   0  0  0  0  0  0  0  0  0  0  0  0
    8.2000   -4.3821    1.8549 H   0  0  0  0  0  0  0  0  0  0  0  0
    7.7503   -2.2553    1.6412 H   0  0  0  0  0  0  0  0  0  0  0  0
    6.1138   -2.4771    2.2632 H   0  0  0  0  0  0  0  0  0  0  0  0
  1  2  1  0  0  0  0
  1 24  1  0  0  0  0
  1 25  1  0  0  0  0
  2  3  1  0  0  0  0
  2  7  2  0  0  0  0
  3  4  2  0  0  0  0
  4  5  1  0  0  0  0
  4 26  1  0  0  0  0
  5  6  2  0  0  0  0
  6  7  1  0  0  0  0
  6 18  1  0  0  0  0
  7  8  1  0  0  0  0
  8  9  1  0  0  0  0
  8 17  2  0  0  0  0
  9 10  1  0  0  0  0
  9 16  2  0  0  0  0
 10 11  2  0  0  0  0
 10 27  1  0  0  0  0
 11 12  1  0  0  0  0
 11 28  1  0  0  0  0
 12 13  1  0  0  0  0
 12 14  2  0  0  0  0
 14 15  1  0  0  0  0
 14 16  1  0  0  0  0
 15 29  1  0  0  0  0
 16 30  1  0  0  0  0
 17 18  1  0  0  0  0
 18 19  1  0  0  0  0
 19 20  1  0  0  0  0
 19 23  1  0  0  0  0
 19 31  1  6  0  0  0
 20 21  1  0  0  0  0
 20 32  1  0  0  0  0
 20 33  1  0  0  0  0
 21 22  1  0  0  0  0
 21 34  1  0  0  0  0
 21 35  1  0  0  0  0
 22 23  1  0  0  0  0
 22 36  1  0  0  0  0
 23 37  1  0  0  0  0
 23 38  1  0  0  0  0
M  END
$$$$
