CHEMBL4474945
 OpenBabel04072215383D

 47 49  0  0  0  0  0  0  0  0999 V2000
    3.7020    1.0365   -1.6446 C   0  0  0  0  0  0  0  0  0  0  0  0
    3.3745   -0.2936   -2.0283 O   0  0  0  0  0  0  0  0  0  0  0  0
    4.0162   -1.3050   -1.3707 C   0  0  0  0  0  0  0  0  0  0  0  0
    4.9971   -1.1601   -0.3933 C   0  0  0  0  0  0  0  0  0  0  0  0
    5.5648   -2.2943    0.2026 C   0  0  0  0  0  0  0  0  0  0  0  0
    5.1598   -3.5871   -0.1738 C   0  0  0  0  0  0  0  0  0  0  0  0
    5.7968   -4.7615    0.4961 C   0  0  0  0  0  0  0  0  0  0  0  0
    6.6711   -4.5327    1.3363 O   0  0  0  0  0  0  0  0  0  0  0  0
    5.3406   -6.1721    0.1017 C   0  0  0  0  0  0  0  0  0  0  0  0
    6.1815   -7.4092    1.1363 S   0  0  0  0  0  0  0  0  0  0  0  0
    5.6531   -8.9542    0.4498 C   0  0  0  0  0  0  0  0  0  0  0  0
    6.2278  -10.0206    1.0314 N   0  0  0  0  0  0  0  0  0  0  0  0
    5.9205  -11.2238    0.5386 C   0  0  0  0  0  0  0  0  0  0  0  0
    5.0748  -11.3940   -0.5247 C   0  0  0  0  0  0  0  0  0  0  0  0
    4.5093  -10.2490   -1.0597 C   0  0  0  0  0  0  0  0  0  0  0  0
    3.6101  -10.4358   -2.1339 N   0  0  0  0  0  0  0  0  0  0  0  0
    2.4676   -9.7006   -2.4855 C   0  0  0  0  0  0  0  0  0  0  0  0
    1.7143   -9.0171   -1.5263 C   0  0  0  0  0  0  0  0  0  0  0  0
    0.5407   -8.3549   -1.8805 C   0  0  0  0  0  0  0  0  0  0  0  0
    0.1254   -8.3399   -3.2107 C   0  0  0  0  0  0  0  0  0  0  0  0
    0.8830   -8.9771   -4.2035 C   0  0  0  0  0  0  0  0  0  0  0  0
    0.3913   -8.8749   -5.6151 C   0  0  0  0  0  0  0  0  0  0  0  0
    1.1646   -9.4744   -6.7614 C   0  0  0  0  0  0  0  0  0  0  0  0
   -0.6529   -8.2608   -5.8429 O   0  0  0  0  0  0  0  0  0  0  0  0
    2.0481   -9.6621   -3.8288 C   0  0  0  0  0  0  0  0  0  0  0  0
    4.7775   -9.0168   -0.5701 N   0  0  0  0  0  0  0  0  0  0  0  0
    4.1802   -3.7263   -1.1578 C   0  0  0  0  0  0  0  0  0  0  0  0
    3.6174   -2.5901   -1.7484 C   0  0  0  0  0  0  0  0  0  0  0  0
    3.0724    1.7157   -2.2273 H   0  0  0  0  0  0  0  0  0  0  0  0
    4.7471    1.2662   -1.8787 H   0  0  0  0  0  0  0  0  0  0  0  0
    3.4857    1.2095   -0.5856 H   0  0  0  0  0  0  0  0  0  0  0  0
    5.3466   -0.1834   -0.0692 H   0  0  0  0  0  0  0  0  0  0  0  0
    6.3299   -2.1588    0.9671 H   0  0  0  0  0  0  0  0  0  0  0  0
    5.5887   -6.3360   -0.9502 H   0  0  0  0  0  0  0  0  0  0  0  0
    4.2634   -6.2584    0.2677 H   0  0  0  0  0  0  0  0  0  0  0  0
    6.3873  -12.0663    1.0387 H   0  0  0  0  0  0  0  0  0  0  0  0
    4.8443  -12.3837   -0.8962 H   0  0  0  0  0  0  0  0  0  0  0  0
    3.9744  -11.0497   -2.8509 H   0  0  0  0  0  0  0  0  0  0  0  0
    2.0161   -9.0300   -0.4815 H   0  0  0  0  0  0  0  0  0  0  0  0
   -0.0541   -7.8580   -1.1186 H   0  0  0  0  0  0  0  0  0  0  0  0
   -0.7967   -7.8212   -3.4694 H   0  0  0  0  0  0  0  0  0  0  0  0
    1.9379  -10.1756   -6.4605 H   0  0  0  0  0  0  0  0  0  0  0  0
    1.6224   -8.6662   -7.3409 H   0  0  0  0  0  0  0  0  0  0  0  0
    0.4651  -10.0240   -7.4001 H   0  0  0  0  0  0  0  0  0  0  0  0
    2.6560  -10.1743   -4.5656 H   0  0  0  0  0  0  0  0  0  0  0  0
    3.8323   -4.6995   -1.4898 H   0  0  0  0  0  0  0  0  0  0  0  0
    2.8529   -2.7073   -2.5153 H   0  0  0  0  0  0  0  0  0  0  0  0
  1  2  1  0  0  0  0
  1 29  1  0  0  0  0
  1 30  1  0  0  0  0
  1 31  1  0  0  0  0
  2  3  1  0  0  0  0
  3  4  1  0  0  0  0
  3 28  2  0  0  0  0
  4  5  2  0  0  0  0
  4 32  1  0  0  0  0
  5  6  1  0  0  0  0
  5 33  1  0  0  0  0
  6  7  1  0  0  0  0
  6 27  2  0  0  0  0
  7  8  2  0  0  0  0
  7  9  1  0  0  0  0
  9 10  1  0  0  0  0
  9 34  1  0  0  0  0
  9 35  1  0  0  0  0
 10 11  1  0  0  0  0
 11 12  1  0  0  0  0
 11 26  2  0  0  0  0
 12 13  2  0  0  0  0
 13 14  1  0  0  0  0
 13 36  1  0  0  0  0
 14 15  2  0  0  0  0
 14 37  1  0  0  0  0
 15 16  1  0  0  0  0
 15 26  1  0  0  0  0
 16 17  1  0  0  0  0
 16 38  1  0  0  0  0
 17 18  1  0  0  0  0
 17 25  2  0  0  0  0
 18 19  2  0  0  0  0
 18 39  1  0  0  0  0
 19 20  1  0  0  0  0
 19 40  1  0  0  0  0
 20 21  2  0  0  0  0
 20 41  1  0  0  0  0
 21 22  1  0  0  0  0
 21 25  1  0  0  0  0
 22 23  1  0  0  0  0
 22 24  2  0  0  0  0
 23 42  1  0  0  0  0
 23 43  1  0  0  0  0
 23 44  1  0  0  0  0
 25 45  1  0  0  0  0
 27 28  1  0  0  0  0
 27 46  1  0  0  0  0
 28 47  1  0  0  0  0
M  END
$$$$
