CHEMBL184750
 OpenBabel04072215363D

 33 35  0  0  0  0  0  0  0  0999 V2000
    1.2313    0.0331   -1.9742 C   0  0  0  0  0  0  0  0  0  0  0  0
    2.6603   -0.0350   -1.5801 C   0  0  0  0  0  0  0  0  0  0  0  0
    3.4480   -1.2083   -1.3949 C   0  0  0  0  0  0  0  0  0  0  0  0
    4.7406   -0.7988   -1.1305 C   0  0  0  0  0  0  0  0  0  0  0  0
    5.9831   -1.4902   -0.9503 C   0  0  0  0  0  0  0  0  0  0  0  0
    6.0516   -2.8679   -0.9500 N   0  0  0  0  0  0  0  0  0  0  0  0
    7.1056   -3.6438   -1.4715 C   0  0  0  0  0  0  0  0  0  0  0  0
    8.0339   -3.1412   -2.3892 C   0  0  0  0  0  0  0  0  0  0  0  0
    9.0779   -3.9367   -2.8717 C   0  0  0  0  0  0  0  0  0  0  0  0
    9.2359   -5.2571   -2.4316 C   0  0  0  0  0  0  0  0  0  0  0  0
   10.3765   -6.0734   -2.9632 C   0  0  0  0  0  0  0  0  0  0  0  0
    8.3162   -5.7529   -1.5039 C   0  0  0  0  0  0  0  0  0  0  0  0
    8.3816   -7.0241   -1.0045 O   0  0  0  0  0  0  0  0  0  0  0  0
    7.2659   -4.9617   -1.0301 C   0  0  0  0  0  0  0  0  0  0  0  0
    7.0444   -0.7550   -0.7755 N   0  0  0  0  0  0  0  0  0  0  0  0
    6.9350    0.6114   -0.7601 C   0  0  0  0  0  0  0  0  0  0  0  0
    5.8579    1.3094   -0.9106 N   0  0  0  0  0  0  0  0  0  0  0  0
    4.7599    0.5630   -1.1028 N   0  0  0  0  0  0  0  0  0  0  0  0
    3.5015    1.0377   -1.3499 C   0  0  0  0  0  0  0  0  0  0  0  0
    0.8104   -0.9677   -2.1123 H   0  0  0  0  0  0  0  0  0  0  0  0
    1.1290    0.5741   -2.9214 H   0  0  0  0  0  0  0  0  0  0  0  0
    0.6423    0.5527   -1.2130 H   0  0  0  0  0  0  0  0  0  0  0  0
    3.1078   -2.2296   -1.4982 H   0  0  0  0  0  0  0  0  0  0  0  0
    5.1741   -3.3701   -0.9257 H   0  0  0  0  0  0  0  0  0  0  0  0
    7.9483   -2.1242   -2.7629 H   0  0  0  0  0  0  0  0  0  0  0  0
    9.7678   -3.5068   -3.5951 H   0  0  0  0  0  0  0  0  0  0  0  0
   10.9934   -5.4997   -3.6619 H   0  0  0  0  0  0  0  0  0  0  0  0
    9.9972   -6.9499   -3.4973 H   0  0  0  0  0  0  0  0  0  0  0  0
   11.0257   -6.3973   -2.1420 H   0  0  0  0  0  0  0  0  0  0  0  0
    9.1473   -7.4790   -1.3873 H   0  0  0  0  0  0  0  0  0  0  0  0
    6.5856   -5.3812   -0.2936 H   0  0  0  0  0  0  0  0  0  0  0  0
    7.8806    1.1572   -0.6037 H   0  0  0  0  0  0  0  0  0  0  0  0
    3.3254    2.1043   -1.3783 H   0  0  0  0  0  0  0  0  0  0  0  0
  1  2  1  0  0  0  0
  1 20  1  0  0  0  0
  1 21  1  0  0  0  0
  1 22  1  0  0  0  0
  2  3  1  0  0  0  0
  2 19  2  0  0  0  0
  3  4  2  0  0  0  0
  3 23  1  0  0  0  0
  4  5  1  0  0  0  0
  4 18  1  0  0  0  0
  5  6  1  0  0  0  0
  5 15  2  0  0  0  0
  6  7  1  0  0  0  0
  6 24  1  0  0  0  0
  7  8  1  0  0  0  0
  7 14  2  0  0  0  0
  8  9  2  0  0  0  0
  8 25  1  0  0  0  0
  9 10  1  0  0  0  0
  9 26  1  0  0  0  0
 10 11  1  0  0  0  0
 10 12  2  0  0  0  0
 11 27  1  0  0  0  0
 11 28  1  0  0  0  0
 11 29  1  0  0  0  0
 12 13  1  0  0  0  0
 12 14  1  0  0  0  0
 13 30  1  0  0  0  0
 14 31  1  0  0  0  0
 15 16  1  0  0  0  0
 16 17  2  0  0  0  0
 16 32  1  0  0  0  0
 17 18  1  0  0  0  0
 18 19  1  0  0  0  0
 19 33  1  0  0  0  0
M  END
$$$$
