CHEMBL212762
 OpenBabel04072215363D

 69 74  0  0  0  0  0  0  0  0999 V2000
   -3.4141    4.3769    2.6441 C   0  0  0  0  0  0  0  0  0  0  0  0
   -2.4408    3.3453    2.9873 N   0  0  0  0  0  0  0  0  0  0  0  0
   -3.1076    2.1437    3.5147 C   0  0  0  0  0  0  0  0  0  0  0  0
   -2.0804    1.0391    3.8499 C   0  0  0  0  0  0  0  0  0  0  0  0
   -1.2663    0.6011    2.6956 N   0  0  0  0  0  0  0  0  0  0  0  0
   -2.0410   -0.0914    1.6520 C   0  0  0  0  0  0  0  0  0  0  0  0
   -2.7231   -1.3754    2.0853 C   0  0  0  0  0  0  0  0  0  0  0  0
   -2.0381   -2.6111    1.9671 C   0  0  0  0  0  0  0  0  0  0  0  0
   -2.6624   -3.8263    2.2604 C   0  0  0  0  0  0  0  0  0  0  0  0
   -3.9561   -3.7683    2.7119 C   0  0  0  0  0  0  0  0  0  0  0  0
   -4.6525   -2.5486    2.9051 C   0  0  0  0  0  0  0  0  0  0  0  0
   -4.0464   -1.3514    2.5691 C   0  0  0  0  0  0  0  0  0  0  0  0
   -6.0520   -2.7356    3.5198 C   0  0  0  0  0  0  0  0  0  0  0  0
   -6.0278   -4.2243    3.5855 C   0  0  0  0  0  0  0  0  0  0  0  0
   -6.7797   -5.3165    4.0386 C   0  0  0  0  0  0  0  0  0  0  0  0
   -8.1004   -5.2558    4.7241 C   0  0  0  0  0  0  0  0  0  0  0  0
   -8.7848   -6.3504    5.2080 C   0  0  0  0  0  0  0  0  0  0  0  0
  -10.0167   -5.9797    5.8219 C   0  0  0  0  0  0  0  0  0  0  0  0
  -10.2313   -4.6196    5.7613 C   0  0  0  0  0  0  0  0  0  0  0  0
  -11.3867   -3.8331    6.2509 C   0  0  0  0  0  0  0  0  0  0  0  0
  -12.3722   -3.7420    5.1943 N   0  0  0  0  0  0  0  0  0  0  0  0
  -13.5054   -3.0352    5.5074 C   0  0  0  0  0  0  0  0  0  0  0  0
  -13.6720   -2.5843    6.6392 O   0  0  0  0  0  0  0  0  0  0  0  0
  -14.3952   -2.9531    4.4563 N   0  0  0  0  0  0  0  0  0  0  0  0
  -15.6459   -2.3043    4.5616 C   0  0  0  0  0  0  0  0  0  0  0  0
  -15.8827   -1.3140    5.5193 C   0  0  0  0  0  0  0  0  0  0  0  0
  -17.1681   -0.8252    5.7440 C   0  0  0  0  0  0  0  0  0  0  0  0
  -18.2404   -1.2905    4.9855 C   0  0  0  0  0  0  0  0  0  0  0  0
  -19.6446   -0.8471    5.3142 C   0  0  0  0  0  0  0  0  0  0  0  0
  -19.7124   -0.0218    6.3979 F   0  0  0  0  0  0  0  0  0  0  0  0
  -20.2364   -0.1693    4.2933 F   0  0  0  0  0  0  0  0  0  0  0  0
  -20.4675   -1.8947    5.5981 F   0  0  0  0  0  0  0  0  0  0  0  0
  -17.9867   -2.1991    3.9419 C   0  0  0  0  0  0  0  0  0  0  0  0
  -16.6935   -2.6976    3.7257 C   0  0  0  0  0  0  0  0  0  0  0  0
   -8.9338   -3.8014    5.0200 S   0  0  0  0  0  0  0  0  0  0  0  0
   -6.1347   -6.4802    3.8021 N   0  0  0  0  0  0  0  0  0  0  0  0
   -4.9564   -6.1055    3.2478 N   0  0  0  0  0  0  0  0  0  0  0  0
   -4.8673   -4.7736    3.1219 C   0  0  0  0  0  0  0  0  0  0  0  0
   -0.6239    1.8157    2.1295 C   0  0  0  0  0  0  0  0  0  0  0  0
   -1.5910    2.9966    1.8331 C   0  0  0  0  0  0  0  0  0  0  0  0
   -4.0305    4.6278    3.5149 H   0  0  0  0  0  0  0  0  0  0  0  0
   -4.0809    4.0673    1.8313 H   0  0  0  0  0  0  0  0  0  0  0  0
   -2.9044    5.2983    2.3435 H   0  0  0  0  0  0  0  0  0  0  0  0
   -3.8469    1.7712    2.7955 H   0  0  0  0  0  0  0  0  0  0  0  0
   -3.6548    2.3947    4.4308 H   0  0  0  0  0  0  0  0  0  0  0  0
   -2.5771    0.1894    4.3292 H   0  0  0  0  0  0  0  0  0  0  0  0
   -1.3970    1.4255    4.6199 H   0  0  0  0  0  0  0  0  0  0  0  0
   -1.3530   -0.3613    0.8392 H   0  0  0  0  0  0  0  0  0  0  0  0
   -2.7919    0.5552    1.1830 H   0  0  0  0  0  0  0  0  0  0  0  0
   -1.0037   -2.6191    1.6293 H   0  0  0  0  0  0  0  0  0  0  0  0
   -2.1368   -4.7664    2.1480 H   0  0  0  0  0  0  0  0  0  0  0  0
   -4.5859   -0.4168    2.6851 H   0  0  0  0  0  0  0  0  0  0  0  0
   -6.8315   -2.3511    2.8569 H   0  0  0  0  0  0  0  0  0  0  0  0
   -6.0953   -2.2836    4.5151 H   0  0  0  0  0  0  0  0  0  0  0  0
   -8.4167   -7.3668    5.1290 H   0  0  0  0  0  0  0  0  0  0  0  0
  -10.7131   -6.6768    6.2729 H   0  0  0  0  0  0  0  0  0  0  0  0
  -11.0922   -2.8189    6.5471 H   0  0  0  0  0  0  0  0  0  0  0  0
  -11.8437   -4.3116    7.1245 H   0  0  0  0  0  0  0  0  0  0  0  0
  -12.0282   -3.6296    4.2534 H   0  0  0  0  0  0  0  0  0  0  0  0
  -14.2937   -3.6662    3.7489 H   0  0  0  0  0  0  0  0  0  0  0  0
  -15.0815   -0.9234    6.1406 H   0  0  0  0  0  0  0  0  0  0  0  0
  -17.3169   -0.1040    6.5469 H   0  0  0  0  0  0  0  0  0  0  0  0
  -18.8064   -2.5510    3.3178 H   0  0  0  0  0  0  0  0  0  0  0  0
  -16.5373   -3.4321    2.9402 H   0  0  0  0  0  0  0  0  0  0  0  0
   -4.2824   -6.8207    3.0092 H   0  0  0  0  0  0  0  0  0  0  0  0
   -0.0687    1.5598    1.2179 H   0  0  0  0  0  0  0  0  0  0  0  0
    0.1343    2.1608    2.8451 H   0  0  0  0  0  0  0  0  0  0  0  0
   -2.2111    2.7437    0.9633 H   0  0  0  0  0  0  0  0  0  0  0  0
   -0.9888    3.8691    1.5530 H   0  0  0  0  0  0  0  0  0  0  0  0
  1  2  1  0  0  0  0
  1 41  1  0  0  0  0
  1 42  1  0  0  0  0
  1 43  1  0  0  0  0
  2  3  1  0  0  0  0
  2 40  1  0  0  0  0
  3  4  1  0  0  0  0
  3 44  1  0  0  0  0
  3 45  1  0  0  0  0
  4  5  1  0  0  0  0
  4 46  1  0  0  0  0
  4 47  1  0  0  0  0
  5  6  1  0  0  0  0
  5 39  1  0  0  0  0
  6  7  1  0  0  0  0
  6 48  1  0  0  0  0
  6 49  1  0  0  0  0
  7  8  1  0  0  0  0
  7 12  2  0  0  0  0
  8  9  2  0  0  0  0
  8 50  1  0  0  0  0
  9 10  1  0  0  0  0
  9 51  1  0  0  0  0
 10 11  2  0  0  0  0
 10 38  1  0  0  0  0
 11 12  1  0  0  0  0
 11 13  1  0  0  0  0
 12 52  1  0  0  0  0
 13 14  1  0  0  0  0
 13 53  1  0  0  0  0
 13 54  1  0  0  0  0
 14 15  1  0  0  0  0
 14 38  2  0  0  0  0
 15 16  1  0  0  0  0
 15 36  2  0  0  0  0
 16 17  2  0  0  0  0
 16 35  1  0  0  0  0
 17 18  1  0  0  0  0
 17 55  1  0  0  0  0
 18 19  2  0  0  0  0
 18 56  1  0  0  0  0
 19 20  1  0  0  0  0
 19 35  1  0  0  0  0
 20 21  1  0  0  0  0
 20 57  1  0  0  0  0
 20 58  1  0  0  0  0
 21 22  1  0  0  0  0
 21 59  1  0  0  0  0
 22 23  2  0  0  0  0
 22 24  1  0  0  0  0
 24 25  1  0  0  0  0
 24 60  1  0  0  0  0
 25 26  1  0  0  0  0
 25 34  2  0  0  0  0
 26 27  2  0  0  0  0
 26 61  1  0  0  0  0
 27 28  1  0  0  0  0
 27 62  1  0  0  0  0
 28 29  1  0  0  0  0
 28 33  2  0  0  0  0
 29 30  1  0  0  0  0
 29 31  1  0  0  0  0
 29 32  1  0  0  0  0
 33 34  1  0  0  0  0
 33 63  1  0  0  0  0
 34 64  1  0  0  0  0
 36 37  1  0  0  0  0
 37 38  1  0  0  0  0
 37 65  1  0  0  0  0
 39 40  1  0  0  0  0
 39 66  1  0  0  0  0
 39 67  1  0  0  0  0
 40 68  1  0  0  0  0
 40 69  1  0  0  0  0
M  END
$$$$
