CHEMBL3944780
 OpenBabel04072215373D

 56 60  0  0  0  0  0  0  0  0999 V2000
    3.0877    0.2211   -1.3293 C   0  0  0  0  0  0  0  0  0  0  0  0
    2.3490   -0.5400   -0.3684 O   0  0  0  0  0  0  0  0  0  0  0  0
    3.0895   -1.0516    0.6654 C   0  0  0  0  0  0  0  0  0  0  0  0
    4.1937   -0.3813    1.1993 C   0  0  0  0  0  0  0  0  0  0  0  0
    5.0126   -0.9918    2.1808 C   0  0  0  0  0  0  0  0  0  0  0  0
    6.1592   -0.4254    2.7526 C   0  0  0  0  0  0  0  0  0  0  0  0
    6.5356    0.9017    2.3972 N   0  0  0  0  0  0  0  0  0  0  0  0
    7.8274    1.4205    2.6247 C   0  0  0  0  0  0  0  0  0  0  0  0
    8.9580    0.6923    2.2201 C   0  0  0  0  0  0  0  0  0  0  0  0
   10.2422    1.1369    2.5242 C   0  0  0  0  0  0  0  0  0  0  0  0
   10.4153    2.3269    3.2290 C   0  0  0  0  0  0  0  0  0  0  0  0
   12.0293    2.7928    3.6286 Cl  0  0  0  0  0  0  0  0  0  0  0  0
    9.2975    3.0852    3.5978 C   0  0  0  0  0  0  0  0  0  0  0  0
    9.4385    4.5747    4.4635 Cl  0  0  0  0  0  0  0  0  0  0  0  0
    8.0083    2.6366    3.2860 C   0  0  0  0  0  0  0  0  0  0  0  0
    6.9363   -1.0995    3.6238 N   0  0  0  0  0  0  0  0  0  0  0  0
    6.5561   -2.3319    3.9436 C   0  0  0  0  0  0  0  0  0  0  0  0
    5.4690   -2.9544    3.4877 N   0  0  0  0  0  0  0  0  0  0  0  0
    4.7154   -2.2821    2.6181 C   0  0  0  0  0  0  0  0  0  0  0  0
    3.5757   -2.8981    2.1386 C   0  0  0  0  0  0  0  0  0  0  0  0
    2.7136   -2.2822    1.2201 C   0  0  0  0  0  0  0  0  0  0  0  0
    1.5038   -2.8399    0.8415 O   0  0  0  0  0  0  0  0  0  0  0  0
    1.0169   -3.8068    1.7896 C   0  0  0  0  0  0  0  0  0  0  0  0
   -0.4283   -4.1579    1.6923 C   0  0  0  0  0  0  0  0  0  0  0  0
   -1.3501   -3.8486    0.7185 C   0  0  0  0  0  0  0  0  0  0  0  0
   -2.8551   -4.5854    1.0918 S   0  0  0  0  0  0  0  0  0  0  0  0
   -2.2071   -5.1958    2.5766 C   0  0  0  0  0  0  0  0  0  0  0  0
   -2.9330   -5.8520    3.5181 N   0  0  0  0  0  0  0  0  0  0  0  0
   -2.5075   -5.7874    4.9195 C   0  0  0  0  0  0  0  0  0  0  0  0
   -2.3159   -7.1969    5.5085 C   0  0  0  0  0  0  0  0  0  0  0  0
   -3.5132   -8.0483    5.3447 N   0  0  0  0  0  0  0  0  0  0  0  0
   -3.8169   -8.1400    3.9007 C   0  0  0  0  0  0  0  0  0  0  0  0
   -4.0220   -6.7716    3.1990 C   0  0  0  0  0  0  0  0  0  0  0  0
   -0.9375   -4.9074    2.7436 N   0  0  0  0  0  0  0  0  0  0  0  0
    2.7384   -0.0536   -2.3290 H   0  0  0  0  0  0  0  0  0  0  0  0
    4.1697    0.0387   -1.3141 H   0  0  0  0  0  0  0  0  0  0  0  0
    2.8906    1.2864   -1.1736 H   0  0  0  0  0  0  0  0  0  0  0  0
    4.4477    0.6138    0.8458 H   0  0  0  0  0  0  0  0  0  0  0  0
    5.7924    1.5386    2.6786 H   0  0  0  0  0  0  0  0  0  0  0  0
    8.8323   -0.2485    1.6892 H   0  0  0  0  0  0  0  0  0  0  0  0
   11.0961    0.5348    2.2253 H   0  0  0  0  0  0  0  0  0  0  0  0
    7.1478    3.2214    3.6010 H   0  0  0  0  0  0  0  0  0  0  0  0
    7.1843   -2.8799    4.6352 H   0  0  0  0  0  0  0  0  0  0  0  0
    3.3800   -3.8964    2.5213 H   0  0  0  0  0  0  0  0  0  0  0  0
    1.1584   -3.4285    2.8125 H   0  0  0  0  0  0  0  0  0  0  0  0
    1.5813   -4.7391    1.6596 H   0  0  0  0  0  0  0  0  0  0  0  0
   -1.2110   -3.2542   -0.1731 H   0  0  0  0  0  0  0  0  0  0  0  0
   -3.2832   -5.2591    5.4886 H   0  0  0  0  0  0  0  0  0  0  0  0
   -1.5827   -5.2151    5.0597 H   0  0  0  0  0  0  0  0  0  0  0  0
   -2.0882   -7.1133    6.5770 H   0  0  0  0  0  0  0  0  0  0  0  0
   -1.4540   -7.6871    5.0389 H   0  0  0  0  0  0  0  0  0  0  0  0
   -4.2949   -7.5789    5.8030 H   0  0  0  0  0  0  0  0  0  0  0  0
   -4.7204   -8.7469    3.7751 H   0  0  0  0  0  0  0  0  0  0  0  0
   -3.0032   -8.6868    3.4075 H   0  0  0  0  0  0  0  0  0  0  0  0
   -4.9680   -6.3295    3.5329 H   0  0  0  0  0  0  0  0  0  0  0  0
   -4.1083   -6.9592    2.1228 H   0  0  0  0  0  0  0  0  0  0  0  0
  1  2  1  0  0  0  0
  1 35  1  0  0  0  0
  1 36  1  0  0  0  0
  1 37  1  0  0  0  0
  2  3  1  0  0  0  0
  3  4  1  0  0  0  0
  3 21  2  0  0  0  0
  4  5  2  0  0  0  0
  4 38  1  0  0  0  0
  5  6  1  0  0  0  0
  5 19  1  0  0  0  0
  6  7  1  0  0  0  0
  6 16  2  0  0  0  0
  7  8  1  0  0  0  0
  7 39  1  0  0  0  0
  8  9  1  0  0  0  0
  8 15  2  0  0  0  0
  9 10  2  0  0  0  0
  9 40  1  0  0  0  0
 10 11  1  0  0  0  0
 10 41  1  0  0  0  0
 11 12  1  0  0  0  0
 11 13  2  0  0  0  0
 13 14  1  0  0  0  0
 13 15  1  0  0  0  0
 15 42  1  0  0  0  0
 16 17  1  0  0  0  0
 17 18  2  0  0  0  0
 17 43  1  0  0  0  0
 18 19  1  0  0  0  0
 19 20  2  0  0  0  0
 20 21  1  0  0  0  0
 20 44  1  0  0  0  0
 21 22  1  0  0  0  0
 22 23  1  0  0  0  0
 23 24  1  0  0  0  0
 23 45  1  0  0  0  0
 23 46  1  0  0  0  0
 24 25  2  0  0  0  0
 24 34  1  0  0  0  0
 25 26  1  0  0  0  0
 25 47  1  0  0  0  0
 26 27  1  0  0  0  0
 27 28  1  0  0  0  0
 27 34  2  0  0  0  0
 28 29  1  0  0  0  0
 28 33  1  0  0  0  0
 29 30  1  0  0  0  0
 29 48  1  0  0  0  0
 29 49  1  0  0  0  0
 30 31  1  0  0  0  0
 30 50  1  0  0  0  0
 30 51  1  0  0  0  0
 31 32  1  0  0  0  0
 31 52  1  0  0  0  0
 32 33  1  0  0  0  0
 32 53  1  0  0  0  0
 32 54  1  0  0  0  0
 33 55  1  0  0  0  0
 33 56  1  0  0  0  0
M  END
$$$$
