CHEMBL244098
 OpenBabel04072215363D

 54 57  0  0  0  0  0  0  0  0999 V2000
    8.0702    4.1127   -1.5398 C   0  0  0  0  0  0  0  0  0  0  0  0
    7.5341    3.2726   -2.5671 O   0  0  0  0  0  0  0  0  0  0  0  0
    7.8302    1.9524   -2.3945 C   0  0  0  0  0  0  0  0  0  0  0  0
    8.4866    1.5348   -1.4517 O   0  0  0  0  0  0  0  0  0  0  0  0
    7.2921    1.2545   -3.4353 N   0  0  0  0  0  0  0  0  0  0  0  0
    7.4236   -0.1061   -3.5482 C   0  0  0  0  0  0  0  0  0  0  0  0
    7.9957   -0.9368   -2.7068 N   0  0  0  0  0  0  0  0  0  0  0  0
    7.9028   -2.1797   -3.2710 C   0  0  0  0  0  0  0  0  0  0  0  0
    8.3431   -3.4217   -2.7938 C   0  0  0  0  0  0  0  0  0  0  0  0
    8.1268   -4.5690   -3.5780 C   0  0  0  0  0  0  0  0  0  0  0  0
    7.5034   -4.4879   -4.8327 C   0  0  0  0  0  0  0  0  0  0  0  0
    7.1027   -5.9434   -5.8575 S   0  3  3  0  0  0  0  0  0  0  0  0
    7.1433   -5.4483   -7.3498 O   0  5  0  0  0  0  0  0  0  0  0  0
    8.5849   -6.9360   -5.5874 C   0  0  0  0  0  0  0  0  0  0  0  0
    8.5755   -7.8750   -4.5572 C   0  0  0  0  0  0  0  0  0  0  0  0
    9.6556   -8.7416   -4.3717 C   0  0  0  0  0  0  0  0  0  0  0  0
   10.7632   -8.7188   -5.2243 C   0  0  0  0  0  0  0  0  0  0  0  0
   11.8805   -9.5794   -5.0599 N   0  0  0  0  0  0  0  0  0  0  0  0
   11.9895  -10.5909   -4.1235 C   0  0  0  0  0  0  0  0  0  0  0  0
   11.0918  -10.9516   -3.3650 O   0  0  0  0  0  0  0  0  0  0  0  0
   13.2560  -11.1566   -4.0886 N   0  0  0  0  0  0  0  0  0  0  0  0
   13.5217  -12.1932   -3.1506 C   0  0  0  0  0  0  0  0  0  0  0  0
   12.6556  -13.2855   -3.0043 C   0  0  0  0  0  0  0  0  0  0  0  0
   12.8702  -14.2467   -2.0025 C   0  0  0  0  0  0  0  0  0  0  0  0
   11.9381  -15.4252   -1.8454 C   0  0  0  0  0  0  0  0  0  0  0  0
   10.9368  -15.4637   -2.7672 F   0  0  0  0  0  0  0  0  0  0  0  0
   12.5940  -16.6142   -1.9631 F   0  0  0  0  0  0  0  0  0  0  0  0
   11.3306  -15.4557   -0.6275 F   0  0  0  0  0  0  0  0  0  0  0  0
   13.9662  -14.0905   -1.1372 C   0  0  0  0  0  0  0  0  0  0  0  0
   14.8476  -13.0176   -1.2964 C   0  0  0  0  0  0  0  0  0  0  0  0
   14.6337  -12.0923   -2.3146 C   0  0  0  0  0  0  0  0  0  0  0  0
   15.4690  -11.0499   -2.4405 F   0  0  0  0  0  0  0  0  0  0  0  0
   10.7632   -7.7961   -6.2764 C   0  0  0  0  0  0  0  0  0  0  0  0
    9.6820   -6.9110   -6.4584 C   0  0  0  0  0  0  0  0  0  0  0  0
    7.0387   -3.2385   -5.2994 C   0  0  0  0  0  0  0  0  0  0  0  0
    7.2566   -2.1160   -4.4956 C   0  0  0  0  0  0  0  0  0  0  0  0
    6.9363   -0.7883   -4.6370 N   0  0  0  0  0  0  0  0  0  0  0  0
    7.6435    5.1134   -1.6581 H   0  0  0  0  0  0  0  0  0  0  0  0
    9.1576    4.1846   -1.6457 H   0  0  0  0  0  0  0  0  0  0  0  0
    7.8029    3.7461   -0.5433 H   0  0  0  0  0  0  0  0  0  0  0  0
    6.8118    1.7942   -4.1389 H   0  0  0  0  0  0  0  0  0  0  0  0
    8.8313   -3.4805   -1.8266 H   0  0  0  0  0  0  0  0  0  0  0  0
    8.4552   -5.5182   -3.1663 H   0  0  0  0  0  0  0  0  0  0  0  0
    7.7218   -7.9613   -3.8862 H   0  0  0  0  0  0  0  0  0  0  0  0
    9.5759   -9.4395   -3.5458 H   0  0  0  0  0  0  0  0  0  0  0  0
   12.6162   -9.5191   -5.7500 H   0  0  0  0  0  0  0  0  0  0  0  0
   14.0114  -10.4917   -4.2081 H   0  0  0  0  0  0  0  0  0  0  0  0
   11.7930  -13.3824   -3.6635 H   0  0  0  0  0  0  0  0  0  0  0  0
   14.1314  -14.8066   -0.3324 H   0  0  0  0  0  0  0  0  0  0  0  0
   15.6860  -12.8872   -0.6189 H   0  0  0  0  0  0  0  0  0  0  0  0
   11.5861   -7.7588   -6.9869 H   0  0  0  0  0  0  0  0  0  0  0  0
    9.6865   -6.2267   -7.3053 H   0  0  0  0  0  0  0  0  0  0  0  0
    6.5166   -3.1554   -6.2484 H   0  0  0  0  0  0  0  0  0  0  0  0
    6.4457   -0.3818   -5.4180 H   0  0  0  0  0  0  0  0  0  0  0  0
  1  2  1  0  0  0  0
  1 38  1  0  0  0  0
  1 39  1  0  0  0  0
  1 40  1  0  0  0  0
  2  3  1  0  0  0  0
  3  4  2  0  0  0  0
  3  5  1  0  0  0  0
  5  6  1  0  0  0  0
  5 41  1  0  0  0  0
  6  7  2  0  0  0  0
  6 37  1  0  0  0  0
  7  8  1  0  0  0  0
  8  9  1  0  0  0  0
  8 36  2  0  0  0  0
  9 10  2  0  0  0  0
  9 42  1  0  0  0  0
 10 11  1  0  0  0  0
 10 43  1  0  0  0  0
 11 12  1  0  0  0  0
 11 35  2  0  0  0  0
 12 13  1  0  0  0  0
 12 14  1  0  0  0  0
 14 15  1  0  0  0  0
 14 34  2  0  0  0  0
 15 16  2  0  0  0  0
 15 44  1  0  0  0  0
 16 17  1  0  0  0  0
 16 45  1  0  0  0  0
 17 18  1  0  0  0  0
 17 33  2  0  0  0  0
 18 19  1  0  0  0  0
 18 46  1  0  0  0  0
 19 20  2  0  0  0  0
 19 21  1  0  0  0  0
 21 22  1  0  0  0  0
 21 47  1  0  0  0  0
 22 23  1  0  0  0  0
 22 31  2  0  0  0  0
 23 24  2  0  0  0  0
 23 48  1  0  0  0  0
 24 25  1  0  0  0  0
 24 29  1  0  0  0  0
 25 26  1  0  0  0  0
 25 27  1  0  0  0  0
 25 28  1  0  0  0  0
 29 30  2  0  0  0  0
 29 49  1  0  0  0  0
 30 31  1  0  0  0  0
 30 50  1  0  0  0  0
 31 32  1  0  0  0  0
 33 34  1  0  0  0  0
 33 51  1  0  0  0  0
 34 52  1  0  0  0  0
 35 36  1  0  0  0  0
 35 53  1  0  0  0  0
 36 37  1  0  0  0  0
 37 54  1  0  0  0  0
M  CHG  2  12   1  13  -1
M  END
$$$$
