CHEMBL4476415
 OpenBabel04072215383D

 55 59  0  0  0  0  0  0  0  0999 V2000
   13.2731   -6.1115   -8.0144 C   0  0  0  0  0  0  0  0  0  0  0  0
   12.6199   -5.5033   -9.1269 O   0  0  0  0  0  0  0  0  0  0  0  0
   11.3905   -4.9569   -8.8813 C   0  0  0  0  0  0  0  0  0  0  0  0
   11.0318   -4.4436   -7.6375 C   0  0  0  0  0  0  0  0  0  0  0  0
    9.7727   -3.8856   -7.4275 C   0  0  0  0  0  0  0  0  0  0  0  0
    8.8406   -3.8142   -8.4606 C   0  0  0  0  0  0  0  0  0  0  0  0
    7.5363   -3.3066   -8.2617 N   0  0  0  0  0  0  0  0  0  0  0  0
    6.9041   -3.1679   -7.0316 C   0  0  0  0  0  0  0  0  0  0  0  0
    7.3941   -3.4976   -5.9505 O   0  0  0  0  0  0  0  0  0  0  0  0
    5.5021   -2.5911   -7.0283 C   0  0  0  0  0  0  0  0  0  0  0  0
    4.8926   -2.1864   -8.3452 C   0  0  0  0  0  0  0  0  0  0  0  0
    4.2197   -3.1176   -9.1433 C   0  0  0  0  0  0  0  0  0  0  0  0
    3.6391   -2.7262  -10.3547 C   0  0  0  0  0  0  0  0  0  0  0  0
    3.7156   -1.3924  -10.7833 C   0  0  0  0  0  0  0  0  0  0  0  0
    3.1167   -0.9962  -12.0183 N   0  0  0  0  0  0  0  0  0  0  0  0
    1.9691   -1.5403  -12.5382 C   0  0  0  0  0  0  0  0  0  0  0  0
    1.6262   -0.9233  -13.6947 C   0  0  0  0  0  0  0  0  0  0  0  0
    2.5915    0.0219  -13.9860 C   0  0  0  0  0  0  0  0  0  0  0  0
    2.6540    0.8400  -15.0528 N   0  0  0  0  0  0  0  0  0  0  0  0
    3.7216    1.6345  -15.0429 C   0  0  0  0  0  0  0  0  0  0  0  0
    4.6870    1.6869  -14.1148 N   0  0  0  0  0  0  0  0  0  0  0  0
    4.6245    0.8657  -13.0490 C   0  0  0  0  0  0  0  0  0  0  0  0
    5.7024    0.9671  -12.1856 N   0  0  0  0  0  0  0  0  0  0  0  0
    3.5351   -0.0040  -12.9397 C   0  0  0  0  0  0  0  0  0  0  0  0
    0.3487   -1.4311  -14.1712 C   0  0  0  0  0  0  0  0  0  0  0  0
   -0.1509   -2.2498  -13.0600 O   0  0  0  0  0  0  0  0  0  0  0  0
    0.9381   -2.4894  -12.0996 C   0  0  0  0  0  0  0  0  0  0  0  0
    4.3596   -0.4609   -9.9671 C   0  0  0  0  0  0  0  0  0  0  0  0
    4.9675   -0.8560   -8.7738 C   0  0  0  0  0  0  0  0  0  0  0  0
    9.2115   -4.2730   -9.7293 C   0  0  0  0  0  0  0  0  0  0  0  0
   10.4852   -4.8696   -9.9493 C   0  0  0  0  0  0  0  0  0  0  0  0
   10.7844   -5.4431  -11.3138 C   0  0  0  0  0  0  0  0  0  0  0  0
   11.9700   -6.0941  -11.4571 F   0  0  0  0  0  0  0  0  0  0  0  0
    9.8328   -6.3495  -11.6934 F   0  0  0  0  0  0  0  0  0  0  0  0
   10.7708   -4.4855  -12.2875 F   0  0  0  0  0  0  0  0  0  0  0  0
   14.1965   -6.5703   -8.3793 H   0  0  0  0  0  0  0  0  0  0  0  0
   12.6494   -6.9006   -7.5805 H   0  0  0  0  0  0  0  0  0  0  0  0
   13.5591   -5.3741   -7.2582 H   0  0  0  0  0  0  0  0  0  0  0  0
   11.7182   -4.4480   -6.7890 H   0  0  0  0  0  0  0  0  0  0  0  0
    9.5614   -3.4963   -6.4378 H   0  0  0  0  0  0  0  0  0  0  0  0
    6.9770   -3.1595   -9.0958 H   0  0  0  0  0  0  0  0  0  0  0  0
    5.5175   -1.7202   -6.3595 H   0  0  0  0  0  0  0  0  0  0  0  0
    4.8482   -3.3327   -6.5508 H   0  0  0  0  0  0  0  0  0  0  0  0
    4.1375   -4.1572   -8.8254 H   0  0  0  0  0  0  0  0  0  0  0  0
    3.1638   -3.4943  -10.9567 H   0  0  0  0  0  0  0  0  0  0  0  0
    3.8292    2.3087  -15.8862 H   0  0  0  0  0  0  0  0  0  0  0  0
    6.4264    1.5330  -12.6178 H   0  0  0  0  0  0  0  0  0  0  0  0
    6.0211    0.0911  -11.7971 H   0  0  0  0  0  0  0  0  0  0  0  0
    0.4548   -2.0803  -15.0447 H   0  0  0  0  0  0  0  0  0  0  0  0
   -0.3818   -0.6443  -14.3766 H   0  0  0  0  0  0  0  0  0  0  0  0
    1.2390   -3.5332  -12.2153 H   0  0  0  0  0  0  0  0  0  0  0  0
    0.5550   -2.3010  -11.0946 H   0  0  0  0  0  0  0  0  0  0  0  0
    4.3633    0.6016  -10.2065 H   0  0  0  0  0  0  0  0  0  0  0  0
    5.4767   -0.1096   -8.1675 H   0  0  0  0  0  0  0  0  0  0  0  0
    8.5190   -4.2065  -10.5613 H   0  0  0  0  0  0  0  0  0  0  0  0
  1  2  1  0  0  0  0
  1 36  1  0  0  0  0
  1 37  1  0  0  0  0
  1 38  1  0  0  0  0
  2  3  1  0  0  0  0
  3  4  1  0  0  0  0
  3 31  2  0  0  0  0
  4  5  2  0  0  0  0
  4 39  1  0  0  0  0
  5  6  1  0  0  0  0
  5 40  1  0  0  0  0
  6  7  1  0  0  0  0
  6 30  2  0  0  0  0
  7  8  1  0  0  0  0
  7 41  1  0  0  0  0
  8  9  2  0  0  0  0
  8 10  1  0  0  0  0
 10 11  1  0  0  0  0
 10 42  1  0  0  0  0
 10 43  1  0  0  0  0
 11 12  1  0  0  0  0
 11 29  2  0  0  0  0
 12 13  2  0  0  0  0
 12 44  1  0  0  0  0
 13 14  1  0  0  0  0
 13 45  1  0  0  0  0
 14 15  1  0  0  0  0
 14 28  2  0  0  0  0
 15 16  1  0  0  0  0
 15 24  1  0  0  0  0
 16 17  2  0  0  0  0
 16 27  1  0  0  0  0
 17 18  1  0  0  0  0
 17 25  1  0  0  0  0
 18 19  1  0  0  0  0
 18 24  2  0  0  0  0
 19 20  2  0  0  0  0
 20 21  1  0  0  0  0
 20 46  1  0  0  0  0
 21 22  2  0  0  0  0
 22 23  1  0  0  0  0
 22 24  1  0  0  0  0
 23 47  1  0  0  0  0
 23 48  1  0  0  0  0
 25 26  1  0  0  0  0
 25 49  1  0  0  0  0
 25 50  1  0  0  0  0
 26 27  1  0  0  0  0
 27 51  1  0  0  0  0
 27 52  1  0  0  0  0
 28 29  1  0  0  0  0
 28 53  1  0  0  0  0
 29 54  1  0  0  0  0
 30 31  1  0  0  0  0
 30 55  1  0  0  0  0
 31 32  1  0  0  0  0
 32 33  1  0  0  0  0
 32 34  1  0  0  0  0
 32 35  1  0  0  0  0
M  END
$$$$
