CHEMBL405401
 OpenBabel04072215373D

 82 86  0  0  0  0  0  0  0  0999 V2000
    2.3933    0.2008   -0.8459 C   0  0  0  0  0  0  0  0  0  0  0  0
    1.0041    0.0469   -0.2935 C   0  0  0  0  0  0  0  0  0  0  0  0
    0.3061    1.2439   -0.0639 C   0  0  0  0  0  0  0  0  0  0  0  0
   -1.0091    1.2491    0.3994 C   0  0  0  0  0  0  0  0  0  0  0  0
   -1.7026    0.0651    0.6145 C   0  0  0  0  0  0  0  0  0  0  0  0
   -3.0712    0.0274    0.9968 N   0  0  0  0  0  0  0  0  0  0  0  0
   -3.9074    1.1377    1.1707 C   0  0  0  0  0  0  0  0  0  0  0  0
   -3.5806    2.3055    1.0324 O   0  0  0  0  0  0  0  0  0  0  0  0
   -5.3068    0.8737    1.6100 C   0  0  0  0  0  0  0  0  0  0  0  0
   -5.9490    1.8440    2.3845 C   0  0  0  0  0  0  0  0  0  0  0  0
   -7.2322    1.6147    2.8950 C   0  0  0  0  0  0  0  0  0  0  0  0
   -7.9581    0.4492    2.5876 C   0  0  0  0  0  0  0  0  0  0  0  0
   -9.3946    0.2358    3.1110 C   0  0  0  0  0  0  0  0  0  0  0  0
   -9.8523    1.4455    3.9590 C   0  0  0  0  0  0  0  0  0  0  0  0
  -10.3771    0.0601    1.9322 C   0  0  0  0  0  0  0  0  0  0  0  0
   -9.5166   -1.0177    4.0042 C   0  0  0  0  0  0  0  0  0  0  0  0
   -7.3280   -0.4842    1.7458 C   0  0  0  0  0  0  0  0  0  0  0  0
   -6.0178   -0.2792    1.2705 C   0  0  0  0  0  0  0  0  0  0  0  0
   -1.0040   -1.1419    0.4359 C   0  0  0  0  0  0  0  0  0  0  0  0
    0.3489   -1.1690   -0.0034 C   0  0  0  0  0  0  0  0  0  0  0  0
    0.9463   -2.5463   -0.1695 C   0  0  0  0  0  0  0  0  0  0  0  0
    0.2046   -3.4721   -0.4747 O   0  0  0  0  0  0  0  0  0  0  0  0
    2.2887   -2.6899    0.1507 N   0  0  0  0  0  0  0  0  0  0  0  0
    3.0076   -3.9101    0.1274 C   0  0  0  0  0  0  0  0  0  0  0  0
    2.6268   -5.0611   -0.5045 C   0  0  0  0  0  0  0  0  0  0  0  0
    3.3636   -6.2020   -0.4709 N   0  0  0  0  0  0  0  0  0  0  0  0
    4.5044   -6.1960    0.2377 C   0  0  0  0  0  0  0  0  0  0  0  0
    5.2577   -7.3625    0.3052 N   0  0  0  0  0  0  0  0  0  0  0  0
    5.3814   -8.3321   -0.6968 C   0  0  0  0  0  0  0  0  0  0  0  0
    5.2161   -8.0164   -2.0471 C   0  0  0  0  0  0  0  0  0  0  0  0
    5.2084   -9.0141   -3.0155 C   0  0  0  0  0  0  0  0  0  0  0  0
    5.3331  -10.3624   -2.6723 C   0  0  0  0  0  0  0  0  0  0  0  0
    5.2463  -11.3178   -3.6601 N   0  0  0  0  0  0  0  0  0  0  0  0
    5.9070  -12.6178   -3.5496 C   0  0  0  0  0  0  0  0  0  0  0  0
    6.3787  -13.0528   -4.9571 C   0  0  0  0  0  0  0  0  0  0  0  0
    5.2674  -13.0854   -5.9383 N   0  0  0  0  0  0  0  0  0  0  0  0
    5.7506  -13.4953   -7.2514 C   0  0  0  0  0  0  0  0  0  0  0  0
    4.6425  -11.7433   -6.0051 C   0  0  0  0  0  0  0  0  0  0  0  0
    4.1356  -11.2641   -4.6273 C   0  0  0  0  0  0  0  0  0  0  0  0
    5.5632  -10.6688   -1.3264 C   0  0  0  0  0  0  0  0  0  0  0  0
    5.5920   -9.6670   -0.3486 C   0  0  0  0  0  0  0  0  0  0  0  0
    4.9641   -5.1264    0.9003 N   0  0  0  0  0  0  0  0  0  0  0  0
    4.2114   -3.9997    0.8028 C   0  0  0  0  0  0  0  0  0  0  0  0
    2.5639    1.2280   -1.1955 H   0  0  0  0  0  0  0  0  0  0  0  0
    2.5563   -0.4489   -1.7093 H   0  0  0  0  0  0  0  0  0  0  0  0
    3.1388    0.0155   -0.0686 H   0  0  0  0  0  0  0  0  0  0  0  0
    0.7721    2.2077   -0.2689 H   0  0  0  0  0  0  0  0  0  0  0  0
   -1.4584    2.2213    0.5701 H   0  0  0  0  0  0  0  0  0  0  0  0
   -3.4606   -0.8868    1.1786 H   0  0  0  0  0  0  0  0  0  0  0  0
   -5.4648    2.7917    2.6184 H   0  0  0  0  0  0  0  0  0  0  0  0
   -7.6342    2.3927    3.5383 H   0  0  0  0  0  0  0  0  0  0  0  0
   -9.8640    2.3662    3.3630 H   0  0  0  0  0  0  0  0  0  0  0  0
   -9.1760    1.6009    4.8094 H   0  0  0  0  0  0  0  0  0  0  0  0
  -10.8554    1.3071    4.3724 H   0  0  0  0  0  0  0  0  0  0  0  0
  -10.4019    0.9451    1.2869 H   0  0  0  0  0  0  0  0  0  0  0  0
  -11.3979   -0.1180    2.2930 H   0  0  0  0  0  0  0  0  0  0  0  0
  -10.1094   -0.7982    1.3052 H   0  0  0  0  0  0  0  0  0  0  0  0
   -8.8784   -0.9487    4.8917 H   0  0  0  0  0  0  0  0  0  0  0  0
   -9.2523   -1.9349    3.4668 H   0  0  0  0  0  0  0  0  0  0  0  0
  -10.5498   -1.1432    4.3574 H   0  0  0  0  0  0  0  0  0  0  0  0
   -7.8515   -1.3875    1.4391 H   0  0  0  0  0  0  0  0  0  0  0  0
   -5.5815   -1.0237    0.6102 H   0  0  0  0  0  0  0  0  0  0  0  0
   -1.5088   -2.0875    0.6280 H   0  0  0  0  0  0  0  0  0  0  0  0
    2.7500   -1.9098    0.5895 H   0  0  0  0  0  0  0  0  0  0  0  0
    1.7340   -5.1503   -1.1079 H   0  0  0  0  0  0  0  0  0  0  0  0
    6.0017   -7.3078    0.9811 H   0  0  0  0  0  0  0  0  0  0  0  0
    5.0766   -6.9877   -2.3664 H   0  0  0  0  0  0  0  0  0  0  0  0
    5.0972   -8.7220   -4.0546 H   0  0  0  0  0  0  0  0  0  0  0  0
    5.2227  -13.3644   -3.1295 H   0  0  0  0  0  0  0  0  0  0  0  0
    6.7879  -12.5598   -2.8996 H   0  0  0  0  0  0  0  0  0  0  0  0
    6.8364  -14.0447   -4.8762 H   0  0  0  0  0  0  0  0  0  0  0  0
    7.1602  -12.3570   -5.2977 H   0  0  0  0  0  0  0  0  0  0  0  0
    6.1784  -14.5025   -7.2003 H   0  0  0  0  0  0  0  0  0  0  0  0
    6.5118  -12.8151   -7.6496 H   0  0  0  0  0  0  0  0  0  0  0  0
    4.9203  -13.5417   -7.9646 H   0  0  0  0  0  0  0  0  0  0  0  0
    3.7964  -11.7571   -6.7015 H   0  0  0  0  0  0  0  0  0  0  0  0
    5.3662  -11.0073   -6.3812 H   0  0  0  0  0  0  0  0  0  0  0  0
    3.3049  -11.8958   -4.2851 H   0  0  0  0  0  0  0  0  0  0  0  0
    3.7249  -10.2548   -4.7449 H   0  0  0  0  0  0  0  0  0  0  0  0
    5.6620  -11.7016   -1.0071 H   0  0  0  0  0  0  0  0  0  0  0  0
    5.7044   -9.9469    0.6946 H   0  0  0  0  0  0  0  0  0  0  0  0
    4.6284   -3.1462    1.3293 H   0  0  0  0  0  0  0  0  0  0  0  0
  1  2  1  0  0  0  0
  1 44  1  0  0  0  0
  1 45  1  0  0  0  0
  1 46  1  0  0  0  0
  2  3  1  0  0  0  0
  2 20  2  0  0  0  0
  3  4  2  0  0  0  0
  3 47  1  0  0  0  0
  4  5  1  0  0  0  0
  4 48  1  0  0  0  0
  5  6  1  0  0  0  0
  5 19  2  0  0  0  0
  6  7  1  0  0  0  0
  6 49  1  0  0  0  0
  7  8  2  0  0  0  0
  7  9  1  0  0  0  0
  9 10  1  0  0  0  0
  9 18  2  0  0  0  0
 10 11  2  0  0  0  0
 10 50  1  0  0  0  0
 11 12  1  0  0  0  0
 11 51  1  0  0  0  0
 12 13  1  0  0  0  0
 12 17  2  0  0  0  0
 13 14  1  0  0  0  0
 13 15  1  0  0  0  0
 13 16  1  0  0  0  0
 14 52  1  0  0  0  0
 14 53  1  0  0  0  0
 14 54  1  0  0  0  0
 15 55  1  0  0  0  0
 15 56  1  0  0  0  0
 15 57  1  0  0  0  0
 16 58  1  0  0  0  0
 16 59  1  0  0  0  0
 16 60  1  0  0  0  0
 17 18  1  0  0  0  0
 17 61  1  0  0  0  0
 18 62  1  0  0  0  0
 19 20  1  0  0  0  0
 19 63  1  0  0  0  0
 20 21  1  0  0  0  0
 21 22  2  0  0  0  0
 21 23  1  0  0  0  0
 23 24  1  0  0  0  0
 23 64  1  0  0  0  0
 24 25  1  0  0  0  0
 24 43  2  0  0  0  0
 25 26  2  0  0  0  0
 25 65  1  0  0  0  0
 26 27  1  0  0  0  0
 27 28  1  0  0  0  0
 27 42  2  0  0  0  0
 28 29  1  0  0  0  0
 28 66  1  0  0  0  0
 29 30  1  0  0  0  0
 29 41  2  0  0  0  0
 30 31  2  0  0  0  0
 30 67  1  0  0  0  0
 31 32  1  0  0  0  0
 31 68  1  0  0  0  0
 32 33  1  0  0  0  0
 32 40  2  0  0  0  0
 33 34  1  0  0  0  0
 33 39  1  0  0  0  0
 34 35  1  0  0  0  0
 34 69  1  0  0  0  0
 34 70  1  0  0  0  0
 35 36  1  0  0  0  0
 35 71  1  0  0  0  0
 35 72  1  0  0  0  0
 36 37  1  0  0  0  0
 36 38  1  0  0  0  0
 37 73  1  0  0  0  0
 37 74  1  0  0  0  0
 37 75  1  0  0  0  0
 38 39  1  0  0  0  0
 38 76  1  0  0  0  0
 38 77  1  0  0  0  0
 39 78  1  0  0  0  0
 39 79  1  0  0  0  0
 40 41  1  0  0  0  0
 40 80  1  0  0  0  0
 41 81  1  0  0  0  0
 42 43  1  0  0  0  0
 43 82  1  0  0  0  0
M  END
$$$$
