CHEMBL296185
 OpenBabel04072215363D

 66 70  0  0  0  0  0  0  0  0999 V2000
    2.7757    1.3115   -0.3812 C   0  0  0  0  0  0  0  0  0  0  0  0
    2.9051   -0.1024   -0.0409 N   0  0  0  0  0  0  0  0  0  0  0  0
    3.0572   -1.2164   -1.2958 S   0  0  0  0  0  0  0  0  0  0  0  0
    2.6784   -2.4953   -0.7222 O   0  0  0  0  0  0  0  0  0  0  0  0
    2.4016   -0.6866   -2.4682 O   0  0  0  0  0  0  0  0  0  0  0  0
    4.8032   -1.2588   -1.5931 C   0  0  0  0  0  0  0  0  0  0  0  0
    5.3380   -0.3224   -2.5033 C   0  0  0  0  0  0  0  0  0  0  0  0
    6.6970   -0.3481   -2.8241 C   0  0  0  0  0  0  0  0  0  0  0  0
    7.4642   -1.3337   -2.2395 C   0  0  0  0  0  0  0  0  0  0  0  0
    6.9532   -2.2915   -1.3511 C   0  0  0  0  0  0  0  0  0  0  0  0
    5.6080   -2.2626   -1.0118 C   0  0  0  0  0  0  0  0  0  0  0  0
    8.1020   -3.1526   -0.9856 C   0  0  0  0  0  0  0  0  0  0  0  0
    8.0847   -4.2451   -0.1990 C   0  0  0  0  0  0  0  0  0  0  0  0
    9.2328   -5.0502    0.0524 C   0  0  0  0  0  0  0  0  0  0  0  0
   10.0562   -4.6988    1.0979 N   0  0  0  0  0  0  0  0  0  0  0  0
   11.1102   -5.5590    1.1639 C   0  0  0  0  0  0  0  0  0  0  0  0
   10.9608   -6.5076    0.1807 C   0  0  0  0  0  0  0  0  0  0  0  0
    9.7729   -6.1867   -0.5688 C   0  0  0  0  0  0  0  0  0  0  0  0
    9.2070   -6.8021   -1.8295 C   0  0  0  0  0  0  0  0  0  0  0  0
    9.2623   -8.3232   -2.0118 C   0  0  0  0  0  0  0  0  0  0  0  0
   10.5994   -8.8749   -2.5172 C   0  0  0  0  0  0  0  0  0  0  0  0
   10.6602  -10.3440   -2.4295 N   0  0  0  0  0  0  0  0  0  0  0  0
   12.0544  -10.8506   -2.4696 C   0  0  0  0  0  0  0  0  0  0  0  0
   12.7360  -10.7087   -3.8425 C   0  0  0  0  0  0  0  0  0  0  0  0
   11.9354  -11.2390   -4.9100 O   0  0  0  0  0  0  0  0  0  0  0  0
   10.6092  -10.6950   -4.8949 C   0  0  0  0  0  0  0  0  0  0  0  0
    9.9281  -10.9673   -3.5460 C   0  0  0  0  0  0  0  0  0  0  0  0
   12.0070   -7.5584   -0.0043 C   0  0  0  0  0  0  0  0  0  0  0  0
   13.0990   -7.6005    1.0642 C   0  0  0  0  0  0  0  0  0  0  0  0
   13.4784   -6.2013    1.5414 C   0  0  0  0  0  0  0  0  0  0  0  0
   12.2527   -5.4684    2.1207 C   0  0  0  0  0  0  0  0  0  0  0  0
    9.3103   -2.5886   -1.6994 C   0  0  0  0  0  0  0  0  0  0  0  0
   10.4703   -2.9452   -1.6577 O   0  0  0  0  0  0  0  0  0  0  0  0
    8.8304   -1.5116   -2.4194 N   0  0  0  0  0  0  0  0  0  0  0  0
    2.7642    1.8993    0.5416 H   0  0  0  0  0  0  0  0  0  0  0  0
    1.8344    1.4996   -0.9051 H   0  0  0  0  0  0  0  0  0  0  0  0
    3.6176    1.6523   -0.9870 H   0  0  0  0  0  0  0  0  0  0  0  0
    2.2952   -0.4585    0.6975 H   0  0  0  0  0  0  0  0  0  0  0  0
    4.6946    0.4213   -2.9697 H   0  0  0  0  0  0  0  0  0  0  0  0
    7.1132    0.3674   -3.5217 H   0  0  0  0  0  0  0  0  0  0  0  0
    5.1799   -3.0004   -0.3410 H   0  0  0  0  0  0  0  0  0  0  0  0
    7.1543   -4.5815    0.2494 H   0  0  0  0  0  0  0  0  0  0  0  0
    9.9252   -3.8915    1.6896 H   0  0  0  0  0  0  0  0  0  0  0  0
    9.6407   -6.2991   -2.7020 H   0  0  0  0  0  0  0  0  0  0  0  0
    8.1341   -6.5512   -1.8486 H   0  0  0  0  0  0  0  0  0  0  0  0
    8.5129   -8.5712   -2.7763 H   0  0  0  0  0  0  0  0  0  0  0  0
    8.9491   -8.8245   -1.0894 H   0  0  0  0  0  0  0  0  0  0  0  0
   11.4064   -8.5044   -1.9261 H   0  0  0  0  0  0  0  0  0  0  0  0
   10.8346   -8.4669   -3.5032 H   0  0  0  0  0  0  0  0  0  0  0  0
   12.0257  -11.9166   -2.2052 H   0  0  0  0  0  0  0  0  0  0  0  0
   12.6686  -10.3766   -1.6925 H   0  0  0  0  0  0  0  0  0  0  0  0
   13.6771  -11.2698   -3.8391 H   0  0  0  0  0  0  0  0  0  0  0  0
   12.9799   -9.6620   -4.0562 H   0  0  0  0  0  0  0  0  0  0  0  0
   10.0357  -11.1646   -5.6971 H   0  0  0  0  0  0  0  0  0  0  0  0
   10.6570   -9.6270   -5.1350 H   0  0  0  0  0  0  0  0  0  0  0  0
    9.9020  -12.0500   -3.3676 H   0  0  0  0  0  0  0  0  0  0  0  0
    8.8858  -10.6350   -3.5544 H   0  0  0  0  0  0  0  0  0  0  0  0
   12.5192   -7.3506   -0.9509 H   0  0  0  0  0  0  0  0  0  0  0  0
   11.5344   -8.5450    0.0015 H   0  0  0  0  0  0  0  0  0  0  0  0
   13.9753   -8.1158    0.6479 H   0  0  0  0  0  0  0  0  0  0  0  0
   12.7564   -8.2045    1.9122 H   0  0  0  0  0  0  0  0  0  0  0  0
   13.8910   -5.6358    0.6952 H   0  0  0  0  0  0  0  0  0  0  0  0
   14.2685   -6.2764    2.2959 H   0  0  0  0  0  0  0  0  0  0  0  0
   12.5149   -4.4288    2.3332 H   0  0  0  0  0  0  0  0  0  0  0  0
   11.9623   -5.9509    3.0613 H   0  0  0  0  0  0  0  0  0  0  0  0
    9.4237   -0.9577   -3.0198 H   0  0  0  0  0  0  0  0  0  0  0  0
  1  2  1  0  0  0  0
  1 35  1  0  0  0  0
  1 36  1  0  0  0  0
  1 37  1  0  0  0  0
  2  3  1  0  0  0  0
  2 38  1  0  0  0  0
  3  4  2  0  0  0  0
  3  5  2  0  0  0  0
  3  6  1  0  0  0  0
  6  7  1  0  0  0  0
  6 11  2  0  0  0  0
  7  8  2  0  0  0  0
  7 39  1  0  0  0  0
  8  9  1  0  0  0  0
  8 40  1  0  0  0  0
  9 10  2  0  0  0  0
  9 34  1  0  0  0  0
 10 11  1  0  0  0  0
 10 12  1  0  0  0  0
 11 41  1  0  0  0  0
 12 13  2  0  0  0  0
 12 32  1  0  0  0  0
 13 14  1  0  0  0  0
 13 42  1  0  0  0  0
 14 15  1  0  0  0  0
 14 18  2  0  0  0  0
 15 16  1  0  0  0  0
 15 43  1  0  0  0  0
 16 17  2  0  0  0  0
 16 31  1  0  0  0  0
 17 18  1  0  0  0  0
 17 28  1  0  0  0  0
 18 19  1  0  0  0  0
 19 20  1  0  0  0  0
 19 44  1  0  0  0  0
 19 45  1  0  0  0  0
 20 21  1  0  0  0  0
 20 46  1  0  0  0  0
 20 47  1  0  0  0  0
 21 22  1  0  0  0  0
 21 48  1  0  0  0  0
 21 49  1  0  0  0  0
 22 23  1  0  0  0  0
 22 27  1  0  0  0  0
 23 24  1  0  0  0  0
 23 50  1  0  0  0  0
 23 51  1  0  0  0  0
 24 25  1  0  0  0  0
 24 52  1  0  0  0  0
 24 53  1  0  0  0  0
 25 26  1  0  0  0  0
 26 27  1  0  0  0  0
 26 54  1  0  0  0  0
 26 55  1  0  0  0  0
 27 56  1  0  0  0  0
 27 57  1  0  0  0  0
 28 29  1  0  0  0  0
 28 58  1  0  0  0  0
 28 59  1  0  0  0  0
 29 30  1  0  0  0  0
 29 60  1  0  0  0  0
 29 61  1  0  0  0  0
 30 31  1  0  0  0  0
 30 62  1  0  0  0  0
 30 63  1  0  0  0  0
 31 64  1  0  0  0  0
 31 65  1  0  0  0  0
 32 33  2  0  0  0  0
 32 34  1  0  0  0  0
 34 66  1  0  0  0  0
M  END
$$$$
