CHEMBL2088109
 OpenBabel04072215363D

 37 39  0  0  0  0  0  0  0  0999 V2000
    2.1074    0.0255   -4.6753 C   0  0  0  0  0  0  0  0  0  0  0  0
    2.3558    0.2288   -3.2334 C   0  0  0  0  0  0  0  0  0  0  0  0
    2.0395    1.2721   -2.3977 C   0  0  0  0  0  0  0  0  0  0  0  0
    2.5429    0.9102   -1.1280 C   0  0  0  0  0  0  0  0  0  0  0  0
    2.4162    1.6610   -0.0149 N   0  0  0  0  0  0  0  0  0  0  0  0
    2.3710    3.0705    0.0563 C   0  0  0  0  0  0  0  0  0  0  0  0
    1.7502    3.6426    1.1458 C   0  0  0  0  0  0  0  0  0  0  0  0
    1.7031    5.0132    1.1615 C   0  0  0  0  0  0  0  0  0  0  0  0
    2.2418    5.7866    0.2036 N   0  0  0  0  0  0  0  0  0  0  0  0
    2.8012    5.1576   -0.8338 C   0  0  0  0  0  0  0  0  0  0  0  0
    3.2791    5.8806   -1.9094 N   0  0  0  0  0  0  0  0  0  0  0  0
    3.9591    7.1328   -1.6228 C   0  0  0  0  0  0  0  0  0  0  0  0
    5.3844    7.0676   -1.1836 C   0  0  0  0  0  0  0  0  0  0  0  0
    6.2874    6.0670   -0.9226 C   0  0  0  0  0  0  0  0  0  0  0  0
    7.4880    6.7407   -0.5652 C   0  0  0  0  0  0  0  0  0  0  0  0
    8.7691    6.1250   -0.1993 C   0  0  0  0  0  0  0  0  0  0  0  0
    9.7807    6.9927    0.1116 N   0  0  0  0  0  0  0  0  0  0  0  0
    8.9460    4.9151   -0.1715 O   0  0  0  0  0  0  0  0  0  0  0  0
    7.3136    8.0723   -0.6087 N   0  0  0  0  0  0  0  0  0  0  0  0
    5.9986    8.2715   -0.9938 O   0  0  0  0  0  0  0  0  0  0  0  0
    2.8737    3.8266   -0.9423 N   0  0  0  0  0  0  0  0  0  0  0  0
    3.0923   -0.3067   -1.1546 N   0  0  0  0  0  0  0  0  0  0  0  0
    3.0030   -0.6789   -2.4438 N   0  0  0  0  0  0  0  0  0  0  0  0
    1.5354    0.8632   -5.0886 H   0  0  0  0  0  0  0  0  0  0  0  0
    1.5360   -0.8905   -4.8469 H   0  0  0  0  0  0  0  0  0  0  0  0
    3.0529   -0.0388   -5.2232 H   0  0  0  0  0  0  0  0  0  0  0  0
    1.5153    2.1805   -2.6592 H   0  0  0  0  0  0  0  0  0  0  0  0
    2.8218    1.2513    0.8170 H   0  0  0  0  0  0  0  0  0  0  0  0
    1.2860    3.0510    1.9231 H   0  0  0  0  0  0  0  0  0  0  0  0
    1.1966    5.5483    1.9588 H   0  0  0  0  0  0  0  0  0  0  0  0
    3.7405    5.2513   -2.5524 H   0  0  0  0  0  0  0  0  0  0  0  0
    3.3888    7.7412   -0.9094 H   0  0  0  0  0  0  0  0  0  0  0  0
    3.9468    7.7054   -2.5587 H   0  0  0  0  0  0  0  0  0  0  0  0
    6.1276    5.0026   -0.9770 H   0  0  0  0  0  0  0  0  0  0  0  0
    9.6370    7.9943    0.0784 H   0  0  0  0  0  0  0  0  0  0  0  0
   10.6797    6.6162    0.3575 H   0  0  0  0  0  0  0  0  0  0  0  0
    3.3989   -1.5736   -2.7132 H   0  0  0  0  0  0  0  0  0  0  0  0
  1  2  1  0  0  0  0
  1 24  1  0  0  0  0
  1 25  1  0  0  0  0
  1 26  1  0  0  0  0
  2  3  2  0  0  0  0
  2 23  1  0  0  0  0
  3  4  1  0  0  0  0
  3 27  1  0  0  0  0
  4  5  1  0  0  0  0
  4 22  2  0  0  0  0
  5  6  1  0  0  0  0
  5 28  1  0  0  0  0
  6  7  1  0  0  0  0
  6 21  2  0  0  0  0
  7  8  2  0  0  0  0
  7 29  1  0  0  0  0
  8  9  1  0  0  0  0
  8 30  1  0  0  0  0
  9 10  2  0  0  0  0
 10 11  1  0  0  0  0
 10 21  1  0  0  0  0
 11 12  1  0  0  0  0
 11 31  1  0  0  0  0
 12 13  1  0  0  0  0
 12 32  1  0  0  0  0
 12 33  1  0  0  0  0
 13 14  2  0  0  0  0
 13 20  1  0  0  0  0
 14 15  1  0  0  0  0
 14 34  1  0  0  0  0
 15 16  1  0  0  0  0
 15 19  2  0  0  0  0
 16 17  1  0  0  0  0
 16 18  2  0  0  0  0
 17 35  1  0  0  0  0
 17 36  1  0  0  0  0
 19 20  1  0  0  0  0
 22 23  1  0  0  0  0
 23 37  1  0  0  0  0
M  END
$$$$
