CHEMBL241492
 OpenBabel04072215363D

 42 44  0  0  0  0  0  0  0  0999 V2000
    2.3602    0.0315    0.0437 C   0  0  0  0  0  0  0  0  0  0  0  0
    0.8904   -0.1528    0.0582 C   0  0  0  0  0  0  0  0  0  0  0  0
    0.1062    0.9314    0.0563 N   0  0  0  0  0  0  0  0  0  0  0  0
   -1.1829    0.4561   -0.0480 O   0  0  0  0  0  0  0  0  0  0  0  0
   -1.1790   -0.9045   -0.0944 C   0  0  0  0  0  0  0  0  0  0  0  0
   -2.3672   -1.5469   -0.1956 N   0  0  0  0  0  0  0  0  0  0  0  0
   -3.5329   -0.8818   -0.7592 C   0  0  0  0  0  0  0  0  0  0  0  0
   -3.7132   -1.0941   -2.2494 C   0  0  0  0  0  0  0  0  0  0  0  0
   -2.9397   -1.9603   -3.0206 C   0  0  0  0  0  0  0  0  0  0  0  0
   -3.2166   -2.0914   -4.3734 C   0  0  0  0  0  0  0  0  0  0  0  0
   -4.2128   -1.4368   -5.0060 N   0  0  0  0  0  0  0  0  0  0  0  0
   -4.9593   -0.6056   -4.2511 C   0  0  0  0  0  0  0  0  0  0  0  0
   -4.7551   -0.4078   -2.8948 C   0  0  0  0  0  0  0  0  0  0  0  0
    0.1267   -1.3536    0.0106 C   0  0  0  0  0  0  0  0  0  0  0  0
    0.5396   -2.7402   -0.0331 C   0  0  0  0  0  0  0  0  0  0  0  0
   -0.0572   -3.5546   -0.7324 O   0  0  0  0  0  0  0  0  0  0  0  0
    1.5789   -3.0722    0.8313 N   0  0  0  0  0  0  0  0  0  0  0  0
    2.0848   -4.3888    0.9256 C   0  0  0  0  0  0  0  0  0  0  0  0
    2.3189   -4.9368    2.1884 C   0  0  0  0  0  0  0  0  0  0  0  0
    2.7488   -6.2615    2.3089 C   0  0  0  0  0  0  0  0  0  0  0  0
    3.0056   -7.0245    1.1688 C   0  0  0  0  0  0  0  0  0  0  0  0
    2.8295   -6.4718   -0.1072 C   0  0  0  0  0  0  0  0  0  0  0  0
    3.1412   -7.2646   -1.3529 C   0  0  0  0  0  0  0  0  0  0  0  0
    3.5481   -8.5408   -1.0984 F   0  0  0  0  0  0  0  0  0  0  0  0
    2.0732   -7.3753   -2.1890 F   0  0  0  0  0  0  0  0  0  0  0  0
    4.1379   -6.6999   -2.0906 F   0  0  0  0  0  0  0  0  0  0  0  0
    2.3562   -5.1517   -0.2160 C   0  0  0  0  0  0  0  0  0  0  0  0
    2.6252    1.0929   -0.0228 H   0  0  0  0  0  0  0  0  0  0  0  0
    2.7980   -0.4726   -0.8234 H   0  0  0  0  0  0  0  0  0  0  0  0
    2.8133   -0.3691    0.9540 H   0  0  0  0  0  0  0  0  0  0  0  0
   -2.3655   -2.5594   -0.3075 H   0  0  0  0  0  0  0  0  0  0  0  0
   -3.5166    0.1966   -0.5549 H   0  0  0  0  0  0  0  0  0  0  0  0
   -4.4208   -1.2803   -0.2515 H   0  0  0  0  0  0  0  0  0  0  0  0
   -2.1123   -2.5264   -2.5983 H   0  0  0  0  0  0  0  0  0  0  0  0
   -2.6283   -2.7538   -5.0025 H   0  0  0  0  0  0  0  0  0  0  0  0
   -5.7531   -0.0895   -4.7827 H   0  0  0  0  0  0  0  0  0  0  0  0
   -5.4024    0.2750   -2.3517 H   0  0  0  0  0  0  0  0  0  0  0  0
    1.6871   -2.4783    1.6445 H   0  0  0  0  0  0  0  0  0  0  0  0
    2.1049   -4.3727    3.0921 H   0  0  0  0  0  0  0  0  0  0  0  0
    2.8696   -6.7074    3.2940 H   0  0  0  0  0  0  0  0  0  0  0  0
    3.3420   -8.0551    1.2803 H   0  0  0  0  0  0  0  0  0  0  0  0
    2.2210   -4.7195   -1.2068 H   0  0  0  0  0  0  0  0  0  0  0  0
  1  2  1  0  0  0  0
  1 28  1  0  0  0  0
  1 29  1  0  0  0  0
  1 30  1  0  0  0  0
  2  3  2  0  0  0  0
  2 14  1  0  0  0  0
  3  4  1  0  0  0  0
  4  5  1  0  0  0  0
  5  6  1  0  0  0  0
  5 14  2  0  0  0  0
  6  7  1  0  0  0  0
  6 31  1  0  0  0  0
  7  8  1  0  0  0  0
  7 32  1  0  0  0  0
  7 33  1  0  0  0  0
  8  9  1  0  0  0  0
  8 13  2  0  0  0  0
  9 10  2  0  0  0  0
  9 34  1  0  0  0  0
 10 11  1  0  0  0  0
 10 35  1  0  0  0  0
 11 12  2  0  0  0  0
 12 13  1  0  0  0  0
 12 36  1  0  0  0  0
 13 37  1  0  0  0  0
 14 15  1  0  0  0  0
 15 16  2  0  0  0  0
 15 17  1  0  0  0  0
 17 18  1  0  0  0  0
 17 38  1  0  0  0  0
 18 19  1  0  0  0  0
 18 27  2  0  0  0  0
 19 20  2  0  0  0  0
 19 39  1  0  0  0  0
 20 21  1  0  0  0  0
 20 40  1  0  0  0  0
 21 22  2  0  0  0  0
 21 41  1  0  0  0  0
 22 23  1  0  0  0  0
 22 27  1  0  0  0  0
 23 24  1  0  0  0  0
 23 25  1  0  0  0  0
 23 26  1  0  0  0  0
 27 42  1  0  0  0  0
M  END
$$$$
