CHEMBL3671485
 OpenBabel04072215373D

 71 74  0  0  0  0  0  0  0  0999 V2000
    8.2369   -6.5326    2.5267 C   0  0  0  0  0  0  0  0  0  0  0  0
    7.5221   -5.7259    3.3212 C   0  0  0  0  0  0  0  0  0  0  0  0
    6.9720   -4.4324    2.8140 C   0  0  0  0  0  0  0  0  0  0  0  0
    6.9347   -4.1674    1.6193 O   0  0  0  0  0  0  0  0  0  0  0  0
    6.6382   -3.5853    3.8546 N   0  0  0  0  0  0  0  0  0  0  0  0
    6.1517   -2.2823    3.6085 C   0  0  0  0  0  0  0  0  0  0  0  0
    6.9394   -1.2224    4.0694 C   0  0  0  0  0  0  0  0  0  0  0  0
    6.5802    0.1173    3.7875 C   0  0  0  0  0  0  0  0  0  0  0  0
    7.3874    1.2434    4.0020 C   0  0  0  0  0  0  0  0  0  0  0  0
    8.7186    1.0777    4.4644 N   0  0  0  0  0  0  0  0  0  0  0  0
    9.7226    2.0611    4.3024 C   0  0  0  0  0  0  0  0  0  0  0  0
    9.8797    2.7361    3.0826 C   0  0  0  0  0  0  0  0  0  0  0  0
   10.7927    3.7817    2.9587 C   0  0  0  0  0  0  0  0  0  0  0  0
   11.5772    4.1437    4.0520 C   0  0  0  0  0  0  0  0  0  0  0  0
   12.7479    5.6205    3.9088 Br  0  0  0  0  0  0  0  0  0  0  0  0
   11.4874    3.4428    5.2523 C   0  0  0  0  0  0  0  0  0  0  0  0
   10.5692    2.4025    5.3621 C   0  0  0  0  0  0  0  0  0  0  0  0
   10.4673    1.7407    6.5257 F   0  0  0  0  0  0  0  0  0  0  0  0
    6.9712    2.4910    3.7019 N   0  0  0  0  0  0  0  0  0  0  0  0
    5.7569    2.6182    3.1702 C   0  0  0  0  0  0  0  0  0  0  0  0
    4.9239    1.6171    2.8915 N   0  0  0  0  0  0  0  0  0  0  0  0
    5.3551    0.3866    3.1744 C   0  0  0  0  0  0  0  0  0  0  0  0
    4.5541   -0.6714    2.7927 C   0  0  0  0  0  0  0  0  0  0  0  0
    4.9482   -2.0108    2.9351 C   0  0  0  0  0  0  0  0  0  0  0  0
    4.1668   -3.0572    2.4898 O   0  0  0  0  0  0  0  0  0  0  0  0
    3.1474   -2.6888    1.5511 C   0  0  0  0  0  0  0  0  0  0  0  0
    2.5094   -3.8661    0.7954 C   0  0  0  0  0  0  0  0  0  0  0  0
    1.5980   -4.7192    1.6919 C   0  0  0  0  0  0  0  0  0  0  0  0
    2.3836   -5.7001    2.5479 C   0  0  0  0  0  0  0  0  0  0  0  0
    3.2186   -6.5288    1.6855 N   0  0  0  0  0  0  0  0  0  0  0  0
    2.8919   -7.8593    1.5627 C   0  0  0  0  0  0  0  0  0  0  0  0
    1.9336   -8.3424    2.1610 O   0  0  0  0  0  0  0  0  0  0  0  0
    3.7055   -8.6211    0.7654 N   0  0  0  0  0  0  0  0  0  0  0  0
    3.4826  -10.0576    0.5432 C   0  0  0  0  0  0  0  0  0  0  0  0
    2.1429  -10.2980   -0.1737 C   0  0  0  0  0  0  0  0  0  0  0  0
    4.6124  -10.5998   -0.3515 C   0  0  0  0  0  0  0  0  0  0  0  0
    3.5313  -10.8293    1.8746 C   0  0  0  0  0  0  0  0  0  0  0  0
    4.2178   -5.7711    0.9401 C   0  0  0  0  0  0  0  0  0  0  0  0
    3.5434   -4.7295    0.0494 C   0  0  0  0  0  0  0  0  0  0  0  0
    8.6088   -7.4855    2.8890 H   0  0  0  0  0  0  0  0  0  0  0  0
    8.4632   -6.2627    1.4988 H   0  0  0  0  0  0  0  0  0  0  0  0
    7.2912   -6.0155    4.3400 H   0  0  0  0  0  0  0  0  0  0  0  0
    7.2204   -3.7007    4.6748 H   0  0  0  0  0  0  0  0  0  0  0  0
    7.8861   -1.4315    4.5607 H   0  0  0  0  0  0  0  0  0  0  0  0
    8.7285    0.6702    5.3952 H   0  0  0  0  0  0  0  0  0  0  0  0
    9.2611    2.4687    2.2284 H   0  0  0  0  0  0  0  0  0  0  0  0
   10.8648    4.3161    2.0145 H   0  0  0  0  0  0  0  0  0  0  0  0
   12.0988    3.7063    6.1080 H   0  0  0  0  0  0  0  0  0  0  0  0
    5.4273    3.6210    2.9232 H   0  0  0  0  0  0  0  0  0  0  0  0
    3.6045   -0.4035    2.3393 H   0  0  0  0  0  0  0  0  0  0  0  0
    3.5722   -2.0227    0.7883 H   0  0  0  0  0  0  0  0  0  0  0  0
    2.3488   -2.1576    2.0859 H   0  0  0  0  0  0  0  0  0  0  0  0
    1.8597   -3.4057    0.0372 H   0  0  0  0  0  0  0  0  0  0  0  0
    0.9181   -5.2891    1.0435 H   0  0  0  0  0  0  0  0  0  0  0  0
    0.9671   -4.0850    2.3244 H   0  0  0  0  0  0  0  0  0  0  0  0
    1.6885   -6.3017    3.1413 H   0  0  0  0  0  0  0  0  0  0  0  0
    3.0333   -5.1843    3.2624 H   0  0  0  0  0  0  0  0  0  0  0  0
    4.2652   -8.1420    0.0822 H   0  0  0  0  0  0  0  0  0  0  0  0
    2.1145   -9.7732   -1.1359 H   0  0  0  0  0  0  0  0  0  0  0  0
    1.2886   -9.9427    0.4107 H   0  0  0  0  0  0  0  0  0  0  0  0
    1.9825  -11.3644   -0.3656 H   0  0  0  0  0  0  0  0  0  0  0  0
    4.6264  -10.0964   -1.3248 H   0  0  0  0  0  0  0  0  0  0  0  0
    4.4919  -11.6743   -0.5323 H   0  0  0  0  0  0  0  0  0  0  0  0
    5.5938  -10.4444    0.1112 H   0  0  0  0  0  0  0  0  0  0  0  0
    2.7414  -10.5250    2.5672 H   0  0  0  0  0  0  0  0  0  0  0  0
    4.4875  -10.6626    2.3848 H   0  0  0  0  0  0  0  0  0  0  0  0
    3.4152  -11.9059    1.7133 H   0  0  0  0  0  0  0  0  0  0  0  0
    4.8769   -6.3989    0.3398 H   0  0  0  0  0  0  0  0  0  0  0  0
    4.8410   -5.2903    1.6870 H   0  0  0  0  0  0  0  0  0  0  0  0
    3.0233   -5.2559   -0.7616 H   0  0  0  0  0  0  0  0  0  0  0  0
    4.2997   -4.0929   -0.4254 H   0  0  0  0  0  0  0  0  0  0  0  0
  1  2  2  0  0  0  0
  1 40  1  0  0  0  0
  1 41  1  0  0  0  0
  2  3  1  0  0  0  0
  2 42  1  0  0  0  0
  3  4  2  0  0  0  0
  3  5  1  0  0  0  0
  5  6  1  0  0  0  0
  5 43  1  0  0  0  0
  6  7  1  0  0  0  0
  6 24  2  0  0  0  0
  7  8  2  0  0  0  0
  7 44  1  0  0  0  0
  8  9  1  0  0  0  0
  8 22  1  0  0  0  0
  9 10  1  0  0  0  0
  9 19  2  0  0  0  0
 10 11  1  0  0  0  0
 10 45  1  0  0  0  0
 11 12  1  0  0  0  0
 11 17  2  0  0  0  0
 12 13  2  0  0  0  0
 12 46  1  0  0  0  0
 13 14  1  0  0  0  0
 13 47  1  0  0  0  0
 14 15  1  0  0  0  0
 14 16  2  0  0  0  0
 16 17  1  0  0  0  0
 16 48  1  0  0  0  0
 17 18  1  0  0  0  0
 19 20  1  0  0  0  0
 20 21  2  0  0  0  0
 20 49  1  0  0  0  0
 21 22  1  0  0  0  0
 22 23  2  0  0  0  0
 23 24  1  0  0  0  0
 23 50  1  0  0  0  0
 24 25  1  0  0  0  0
 25 26  1  0  0  0  0
 26 27  1  0  0  0  0
 26 51  1  0  0  0  0
 26 52  1  0  0  0  0
 27 28  1  0  0  0  0
 27 39  1  0  0  0  0
 27 53  1  0  0  0  0
 28 29  1  0  0  0  0
 28 54  1  0  0  0  0
 28 55  1  0  0  0  0
 29 30  1  0  0  0  0
 29 56  1  0  0  0  0
 29 57  1  0  0  0  0
 30 31  1  0  0  0  0
 30 38  1  0  0  0  0
 31 32  2  0  0  0  0
 31 33  1  0  0  0  0
 33 34  1  0  0  0  0
 33 58  1  0  0  0  0
 34 35  1  0  0  0  0
 34 36  1  0  0  0  0
 34 37  1  0  0  0  0
 35 59  1  0  0  0  0
 35 60  1  0  0  0  0
 35 61  1  0  0  0  0
 36 62  1  0  0  0  0
 36 63  1  0  0  0  0
 36 64  1  0  0  0  0
 37 65  1  0  0  0  0
 37 66  1  0  0  0  0
 37 67  1  0  0  0  0
 38 39  1  0  0  0  0
 38 68  1  0  0  0  0
 38 69  1  0  0  0  0
 39 70  1  0  0  0  0
 39 71  1  0  0  0  0
M  END
$$$$
