CHEMBL3642840
 OpenBabel04072215373D

 63 67  0  0  0  0  0  0  0  0999 V2000
    1.5672    0.4009   -0.7799 C   0  0  0  0  0  0  0  0  0  0  0  0
    2.8506    0.3060   -0.4070 C   0  0  0  0  0  0  0  0  0  0  0  0
    3.4927   -1.0284   -0.2196 C   0  0  0  0  0  0  0  0  0  0  0  0
    2.8185   -2.0540   -0.2997 O   0  0  0  0  0  0  0  0  0  0  0  0
    4.8535   -1.0483    0.0516 N   0  0  0  0  0  0  0  0  0  0  0  0
    5.7154    0.1408    0.0683 C   0  0  0  0  0  0  0  0  0  0  0  0
    7.2099   -0.1551   -0.0307 C   0  0  0  0  0  0  0  0  0  0  0  0
    7.5880   -1.1989    0.9770 C   0  0  0  0  0  0  0  0  0  0  0  0
    8.7765   -1.1172    1.6982 C   0  0  0  0  0  0  0  0  0  0  0  0
    9.0989   -2.0934    2.6518 C   0  0  0  0  0  0  0  0  0  0  0  0
   10.3181   -1.8525    3.4611 C   0  0  0  0  0  0  0  0  0  0  0  0
   10.6006   -0.6754    3.6806 O   0  0  0  0  0  0  0  0  0  0  0  0
   11.0654   -2.9529    3.8388 N   0  0  0  0  0  0  0  0  0  0  0  0
   12.2881   -2.8798    4.5535 C   0  0  0  0  0  0  0  0  0  0  0  0
   12.6938   -1.7432    5.2453 C   0  0  0  0  0  0  0  0  0  0  0  0
   13.9527   -1.6812    5.8377 C   0  0  0  0  0  0  0  0  0  0  0  0
   14.8363   -2.7681    5.7776 C   0  0  0  0  0  0  0  0  0  0  0  0
   16.1963   -2.5940    6.3939 C   0  0  0  0  0  0  0  0  0  0  0  0
   14.4106   -3.9681    5.1726 C   0  0  0  0  0  0  0  0  0  0  0  0
   15.2247   -5.1186    5.1828 N   0  0  0  0  0  0  0  0  0  0  0  0
   14.8429   -6.4613    5.2333 C   0  0  0  0  0  0  0  0  0  0  0  0
   15.8089   -7.3865    5.1919 N   0  0  0  0  0  0  0  0  0  0  0  0
   15.4220   -8.6719    5.3131 C   0  0  0  0  0  0  0  0  0  0  0  0
   14.1210   -9.0657    5.5287 C   0  0  0  0  0  0  0  0  0  0  0  0
   13.1909   -8.0530    5.5927 C   0  0  0  0  0  0  0  0  0  0  0  0
   11.7689   -8.2355    5.9276 C   0  0  0  0  0  0  0  0  0  0  0  0
   11.0655   -9.4314    5.7371 C   0  0  0  0  0  0  0  0  0  0  0  0
    9.7256   -9.5317    6.1186 C   0  0  0  0  0  0  0  0  0  0  0  0
    9.1101   -8.4261    6.6790 C   0  0  0  0  0  0  0  0  0  0  0  0
    9.7304   -7.2475    6.8657 N   0  0  0  0  0  0  0  0  0  0  0  0
   11.0325   -7.1834    6.4893 C   0  0  0  0  0  0  0  0  0  0  0  0
   13.5532   -6.7702    5.4101 N   0  0  0  0  0  0  0  0  0  0  0  0
   13.1378   -3.9911    4.5536 C   0  0  0  0  0  0  0  0  0  0  0  0
    8.2355   -3.1707    2.8668 C   0  0  0  0  0  0  0  0  0  0  0  0
    7.0487   -3.2616    2.1262 C   0  0  0  0  0  0  0  0  0  0  0  0
    6.7125   -2.2720    1.1877 C   0  0  0  0  0  0  0  0  0  0  0  0
    5.4527   -2.3547    0.3549 C   0  0  0  0  0  0  0  0  0  0  0  0
    1.0968    1.3694   -0.9104 H   0  0  0  0  0  0  0  0  0  0  0  0
    0.9592   -0.4821   -0.9574 H   0  0  0  0  0  0  0  0  0  0  0  0
    3.4127    1.2088   -0.2209 H   0  0  0  0  0  0  0  0  0  0  0  0
    5.4999    0.6657    1.0081 H   0  0  0  0  0  0  0  0  0  0  0  0
    5.4391    0.8055   -0.7566 H   0  0  0  0  0  0  0  0  0  0  0  0
    7.7713    0.7720    0.1340 H   0  0  0  0  0  0  0  0  0  0  0  0
    7.4617   -0.5263   -1.0309 H   0  0  0  0  0  0  0  0  0  0  0  0
    9.4478   -0.2732    1.5462 H   0  0  0  0  0  0  0  0  0  0  0  0
   10.8281   -3.8486    3.4382 H   0  0  0  0  0  0  0  0  0  0  0  0
   12.0521   -0.8734    5.3406 H   0  0  0  0  0  0  0  0  0  0  0  0
   14.2383   -0.7594    6.3400 H   0  0  0  0  0  0  0  0  0  0  0  0
   16.3875   -1.5406    6.6328 H   0  0  0  0  0  0  0  0  0  0  0  0
   16.9789   -2.9004    5.6930 H   0  0  0  0  0  0  0  0  0  0  0  0
   16.2767   -3.1685    7.3206 H   0  0  0  0  0  0  0  0  0  0  0  0
   16.1685   -5.0295    5.5253 H   0  0  0  0  0  0  0  0  0  0  0  0
   16.2233   -9.4038    5.2530 H   0  0  0  0  0  0  0  0  0  0  0  0
   13.8739  -10.1070    5.6784 H   0  0  0  0  0  0  0  0  0  0  0  0
   11.5414  -10.2966    5.2846 H   0  0  0  0  0  0  0  0  0  0  0  0
    9.1734  -10.4548    5.9817 H   0  0  0  0  0  0  0  0  0  0  0  0
    8.0738   -8.4589    7.0015 H   0  0  0  0  0  0  0  0  0  0  0  0
   11.4946   -6.2139    6.6743 H   0  0  0  0  0  0  0  0  0  0  0  0
   12.8283   -4.8861    4.0202 H   0  0  0  0  0  0  0  0  0  0  0  0
    8.4453   -3.9148    3.6306 H   0  0  0  0  0  0  0  0  0  0  0  0
    6.3712   -4.0954    2.3054 H   0  0  0  0  0  0  0  0  0  0  0  0
    4.7133   -2.9879    0.8580 H   0  0  0  0  0  0  0  0  0  0  0  0
    5.6983   -2.8259   -0.6051 H   0  0  0  0  0  0  0  0  0  0  0  0
  1  2  2  0  0  0  0
  1 38  1  0  0  0  0
  1 39  1  0  0  0  0
  2  3  1  0  0  0  0
  2 40  1  0  0  0  0
  3  4  2  0  0  0  0
  3  5  1  0  0  0  0
  5  6  1  0  0  0  0
  5 37  1  0  0  0  0
  6  7  1  0  0  0  0
  6 41  1  0  0  0  0
  6 42  1  0  0  0  0
  7  8  1  0  0  0  0
  7 43  1  0  0  0  0
  7 44  1  0  0  0  0
  8  9  1  0  0  0  0
  8 36  2  0  0  0  0
  9 10  2  0  0  0  0
  9 45  1  0  0  0  0
 10 11  1  0  0  0  0
 10 34  1  0  0  0  0
 11 12  2  0  0  0  0
 11 13  1  0  0  0  0
 13 14  1  0  0  0  0
 13 46  1  0  0  0  0
 14 15  1  0  0  0  0
 14 33  2  0  0  0  0
 15 16  2  0  0  0  0
 15 47  1  0  0  0  0
 16 17  1  0  0  0  0
 16 48  1  0  0  0  0
 17 18  1  0  0  0  0
 17 19  2  0  0  0  0
 18 49  1  0  0  0  0
 18 50  1  0  0  0  0
 18 51  1  0  0  0  0
 19 20  1  0  0  0  0
 19 33  1  0  0  0  0
 20 21  1  0  0  0  0
 20 52  1  0  0  0  0
 21 22  1  0  0  0  0
 21 32  2  0  0  0  0
 22 23  2  0  0  0  0
 23 24  1  0  0  0  0
 23 53  1  0  0  0  0
 24 25  2  0  0  0  0
 24 54  1  0  0  0  0
 25 26  1  0  0  0  0
 25 32  1  0  0  0  0
 26 27  1  0  0  0  0
 26 31  2  0  0  0  0
 27 28  2  0  0  0  0
 27 55  1  0  0  0  0
 28 29  1  0  0  0  0
 28 56  1  0  0  0  0
 29 30  2  0  0  0  0
 29 57  1  0  0  0  0
 30 31  1  0  0  0  0
 31 58  1  0  0  0  0
 33 59  1  0  0  0  0
 34 35  2  0  0  0  0
 34 60  1  0  0  0  0
 35 36  1  0  0  0  0
 35 61  1  0  0  0  0
 36 37  1  0  0  0  0
 37 62  1  0  0  0  0
 37 63  1  0  0  0  0
M  END
$$$$
