CHEMBL429585
 OpenBabel04072215383D

 56 60  0  0  0  0  0  0  0  0999 V2000
   10.2356    8.0404   -1.8953 C   0  0  0  0  0  0  0  0  0  0  0  0
    9.1054    8.4523   -2.6635 O   0  0  0  0  0  0  0  0  0  0  0  0
    8.3234    7.4337   -3.1425 C   0  0  0  0  0  0  0  0  0  0  0  0
    8.8369    6.1590   -3.4166 C   0  0  0  0  0  0  0  0  0  0  0  0
    8.0299    5.0923   -3.7782 C   0  0  0  0  0  0  0  0  0  0  0  0
    8.6248    3.8972   -3.9361 N   0  0  0  0  0  0  0  0  0  0  0  0
    7.8593    2.8409   -4.2635 C   0  0  0  0  0  0  0  0  0  0  0  0
    6.4966    2.9198   -4.4536 C   0  0  0  0  0  0  0  0  0  0  0  0
    5.8777    4.1615   -4.2934 C   0  0  0  0  0  0  0  0  0  0  0  0
    4.5445    4.1588   -4.6424 O   0  0  0  0  0  0  0  0  0  0  0  0
    3.5824    4.7522   -3.8656 C   0  0  0  0  0  0  0  0  0  0  0  0
    2.4340    5.1333   -4.5583 C   0  0  0  0  0  0  0  0  0  0  0  0
    1.3699    5.7479   -3.8880 C   0  0  0  0  0  0  0  0  0  0  0  0
    1.4026    5.9980   -2.4920 C   0  0  0  0  0  0  0  0  0  0  0  0
    0.3475    6.5954   -1.7319 C   0  0  0  0  0  0  0  0  0  0  0  0
   -0.9761    6.9596   -2.3447 C   0  0  0  0  0  0  0  0  0  0  0  0
   -1.4383    6.2537   -3.2325 O   0  0  0  0  0  0  0  0  0  0  0  0
   -1.5720    8.1065   -1.8314 N   0  0  0  0  0  0  0  0  0  0  0  0
   -2.8231    8.6517   -2.2008 C   0  0  0  0  0  0  0  0  0  0  0  0
   -3.7405    8.0008   -3.0298 C   0  0  0  0  0  0  0  0  0  0  0  0
   -4.9276    8.6338   -3.4165 C   0  0  0  0  0  0  0  0  0  0  0  0
   -5.2080    9.9192   -2.9653 C   0  0  0  0  0  0  0  0  0  0  0  0
   -6.6388   10.7184   -3.4868 Cl  0  0  0  0  0  0  0  0  0  0  0  0
   -4.3282   10.5633   -2.1003 C   0  0  0  0  0  0  0  0  0  0  0  0
   -3.1439    9.9262   -1.7114 C   0  0  0  0  0  0  0  0  0  0  0  0
    0.4970    6.7956   -0.3464 C   0  0  0  0  0  0  0  0  0  0  0  0
    1.6844    6.4616    0.2926 C   0  0  0  0  0  0  0  0  0  0  0  0
    2.7186    5.8809   -0.4346 C   0  0  0  0  0  0  0  0  0  0  0  0
    2.5879    5.6170   -1.8069 C   0  0  0  0  0  0  0  0  0  0  0  0
    3.6365    4.9728   -2.4926 C   0  0  0  0  0  0  0  0  0  0  0  0
    4.7136    4.5769   -1.7940 F   0  0  0  0  0  0  0  0  0  0  0  0
    6.6465    5.3014   -3.9517 C   0  0  0  0  0  0  0  0  0  0  0  0
    6.1487    6.6146   -3.7730 C   0  0  0  0  0  0  0  0  0  0  0  0
    6.9661    7.6691   -3.3577 C   0  0  0  0  0  0  0  0  0  0  0  0
    6.2809    8.8283   -3.1111 O   0  0  0  0  0  0  0  0  0  0  0  0
    6.9434   10.0334   -3.4708 C   0  0  0  0  0  0  0  0  0  0  0  0
   10.5824    8.9004   -1.3158 H   0  0  0  0  0  0  0  0  0  0  0  0
   11.0536    7.7273   -2.5524 H   0  0  0  0  0  0  0  0  0  0  0  0
    9.9777    7.2450   -1.1857 H   0  0  0  0  0  0  0  0  0  0  0  0
    9.9012    5.9575   -3.3322 H   0  0  0  0  0  0  0  0  0  0  0  0
    8.3928    1.9022   -4.3790 H   0  0  0  0  0  0  0  0  0  0  0  0
    5.9317    2.0412   -4.7329 H   0  0  0  0  0  0  0  0  0  0  0  0
    2.3599    4.9500   -5.6283 H   0  0  0  0  0  0  0  0  0  0  0  0
    0.5041    6.0282   -4.4867 H   0  0  0  0  0  0  0  0  0  0  0  0
   -1.0191    8.6727   -1.2009 H   0  0  0  0  0  0  0  0  0  0  0  0
   -3.5624    6.9952   -3.3983 H   0  0  0  0  0  0  0  0  0  0  0  0
   -5.6170    8.1167   -4.0788 H   0  0  0  0  0  0  0  0  0  0  0  0
   -4.5492   11.5638   -1.7377 H   0  0  0  0  0  0  0  0  0  0  0  0
   -2.4690   10.4546   -1.0429 H   0  0  0  0  0  0  0  0  0  0  0  0
   -0.3184    7.1837    0.2571 H   0  0  0  0  0  0  0  0  0  0  0  0
    1.8016    6.6318    1.3592 H   0  0  0  0  0  0  0  0  0  0  0  0
    3.6418    5.6226    0.0841 H   0  0  0  0  0  0  0  0  0  0  0  0
    5.0973    6.8373   -3.9231 H   0  0  0  0  0  0  0  0  0  0  0  0
    6.1697   10.7633   -3.7311 H   0  0  0  0  0  0  0  0  0  0  0  0
    7.5910    9.9162   -4.3458 H   0  0  0  0  0  0  0  0  0  0  0  0
    7.4973   10.4306   -2.6159 H   0  0  0  0  0  0  0  0  0  0  0  0
  1  2  1  0  0  0  0
  1 37  1  0  0  0  0
  1 38  1  0  0  0  0
  1 39  1  0  0  0  0
  2  3  1  0  0  0  0
  3  4  1  0  0  0  0
  3 34  2  0  0  0  0
  4  5  2  0  0  0  0
  4 40  1  0  0  0  0
  5  6  1  0  0  0  0
  5 32  1  0  0  0  0
  6  7  2  0  0  0  0
  7  8  1  0  0  0  0
  7 41  1  0  0  0  0
  8  9  2  0  0  0  0
  8 42  1  0  0  0  0
  9 10  1  0  0  0  0
  9 32  1  0  0  0  0
 10 11  1  0  0  0  0
 11 12  1  0  0  0  0
 11 30  2  0  0  0  0
 12 13  2  0  0  0  0
 12 43  1  0  0  0  0
 13 14  1  0  0  0  0
 13 44  1  0  0  0  0
 14 15  1  0  0  0  0
 14 29  2  0  0  0  0
 15 16  1  0  0  0  0
 15 26  2  0  0  0  0
 16 17  2  0  0  0  0
 16 18  1  0  0  0  0
 18 19  1  0  0  0  0
 18 45  1  0  0  0  0
 19 20  1  0  0  0  0
 19 25  2  0  0  0  0
 20 21  2  0  0  0  0
 20 46  1  0  0  0  0
 21 22  1  0  0  0  0
 21 47  1  0  0  0  0
 22 23  1  0  0  0  0
 22 24  2  0  0  0  0
 24 25  1  0  0  0  0
 24 48  1  0  0  0  0
 25 49  1  0  0  0  0
 26 27  1  0  0  0  0
 26 50  1  0  0  0  0
 27 28  2  0  0  0  0
 27 51  1  0  0  0  0
 28 29  1  0  0  0  0
 28 52  1  0  0  0  0
 29 30  1  0  0  0  0
 30 31  1  0  0  0  0
 32 33  2  0  0  0  0
 33 34  1  0  0  0  0
 33 53  1  0  0  0  0
 34 35  1  0  0  0  0
 35 36  1  0  0  0  0
 36 54  1  0  0  0  0
 36 55  1  0  0  0  0
 36 56  1  0  0  0  0
M  END
$$$$
