CHEMBL1945501
 OpenBabel04072215363D

 54 57  0  0  0  0  0  0  0  0999 V2000
    2.9167    0.1121    0.1479 C   0  0  0  0  0  0  0  0  0  0  0  0
    4.3672   -0.0637    0.0561 N   0  0  0  0  0  0  0  0  0  0  0  0
    4.8809   -0.6341    1.3032 C   0  0  0  0  0  0  0  0  0  0  0  0
    4.7462   -0.9146   -1.0860 C   0  0  0  0  0  0  0  0  0  0  0  0
    4.4334   -0.2965   -2.4591 C   0  0  0  0  0  0  0  0  0  0  0  0
    5.0187    1.1047   -2.6751 C   0  0  0  0  0  0  0  0  0  0  0  0
    6.5218    1.1039   -2.7738 C   0  0  0  0  0  0  0  0  0  0  0  0
    7.3256    1.2565   -1.6294 C   0  0  0  0  0  0  0  0  0  0  0  0
    8.7271    1.1607   -1.6968 C   0  0  0  0  0  0  0  0  0  0  0  0
    9.4742    1.2451   -0.5080 N   0  0  0  0  0  0  0  0  0  0  0  0
   10.7643    0.7837   -0.2276 C   0  0  0  0  0  0  0  0  0  0  0  0
   11.0070    0.5002    1.0601 N   0  0  0  0  0  0  0  0  0  0  0  0
   12.2037   -0.0425    1.3528 C   0  0  0  0  0  0  0  0  0  0  0  0
   13.1731   -0.3087    0.4130 C   0  0  0  0  0  0  0  0  0  0  0  0
   12.8583    0.0369   -0.8834 C   0  0  0  0  0  0  0  0  0  0  0  0
   11.6681    0.5920   -1.1971 N   0  0  0  0  0  0  0  0  0  0  0  0
   13.7832   -0.1823   -2.0137 C   0  0  0  0  0  0  0  0  0  0  0  0
   13.9252    0.8273   -2.9901 C   0  0  0  0  0  0  0  0  0  0  0  0
   14.7735    0.6687   -4.0893 C   0  0  0  0  0  0  0  0  0  0  0  0
   15.4497   -0.5309   -4.2653 C   0  0  0  0  0  0  0  0  0  0  0  0
   16.5303   -0.7230   -5.5895 Cl  0  0  0  0  0  0  0  0  0  0  0  0
   15.2956   -1.5653   -3.3480 C   0  0  0  0  0  0  0  0  0  0  0  0
   14.5177   -1.3772   -2.1958 C   0  0  0  0  0  0  0  0  0  0  0  0
   14.5681   -2.4329   -1.2602 N   0  0  0  0  0  0  0  0  0  0  0  0
   14.5878   -2.3173    0.1034 C   0  0  0  0  0  0  0  0  0  0  0  0
   14.8664   -3.6908    1.0212 S   0  0  0  0  0  0  0  0  0  0  0  0
   14.4757   -0.9510    0.7479 C   0  0  0  0  0  0  0  0  0  0  0  0
    9.3070    1.0058   -2.9623 C   0  0  0  0  0  0  0  0  0  0  0  0
    8.5230    0.8665   -4.1085 C   0  0  0  0  0  0  0  0  0  0  0  0
    7.1425    0.9009   -4.0045 C   0  0  0  0  0  0  0  0  0  0  0  0
    6.4058    0.7297   -5.1108 F   0  0  0  0  0  0  0  0  0  0  0  0
    2.6599    0.7366    1.0109 H   0  0  0  0  0  0  0  0  0  0  0  0
    2.3899   -0.8438    0.2437 H   0  0  0  0  0  0  0  0  0  0  0  0
    2.5250    0.6395   -0.7275 H   0  0  0  0  0  0  0  0  0  0  0  0
    4.6064   -0.0049    2.1575 H   0  0  0  0  0  0  0  0  0  0  0  0
    5.9760   -0.6709    1.2851 H   0  0  0  0  0  0  0  0  0  0  0  0
    4.5014   -1.6462    1.4835 H   0  0  0  0  0  0  0  0  0  0  0  0
    4.2524   -1.8930   -1.0170 H   0  0  0  0  0  0  0  0  0  0  0  0
    5.8237   -1.1189   -1.0451 H   0  0  0  0  0  0  0  0  0  0  0  0
    3.3472   -0.2483   -2.5993 H   0  0  0  0  0  0  0  0  0  0  0  0
    4.8041   -0.9765   -3.2369 H   0  0  0  0  0  0  0  0  0  0  0  0
    4.6945    1.7977   -1.8894 H   0  0  0  0  0  0  0  0  0  0  0  0
    4.6049    1.5167   -3.6057 H   0  0  0  0  0  0  0  0  0  0  0  0
    6.8409    1.4074   -0.6657 H   0  0  0  0  0  0  0  0  0  0  0  0
    8.9369    1.1928    0.3493 H   0  0  0  0  0  0  0  0  0  0  0  0
   12.3526   -0.2758    2.4037 H   0  0  0  0  0  0  0  0  0  0  0  0
   13.3763    1.7635   -2.8833 H   0  0  0  0  0  0  0  0  0  0  0  0
   14.8987    1.4834   -4.7977 H   0  0  0  0  0  0  0  0  0  0  0  0
   15.8469   -2.4908   -3.4950 H   0  0  0  0  0  0  0  0  0  0  0  0
   14.8470   -3.3497   -1.5993 H   0  0  0  0  0  0  0  0  0  0  0  0
   15.3004   -0.3202    0.3887 H   0  0  0  0  0  0  0  0  0  0  0  0
   14.6016   -1.0161    1.8346 H   0  0  0  0  0  0  0  0  0  0  0  0
   10.3835    0.9737   -3.0877 H   0  0  0  0  0  0  0  0  0  0  0  0
    8.9893    0.7168   -5.0762 H   0  0  0  0  0  0  0  0  0  0  0  0
  1  2  1  0  0  0  0
  1 32  1  0  0  0  0
  1 33  1  0  0  0  0
  1 34  1  0  0  0  0
  2  3  1  0  0  0  0
  2  4  1  0  0  0  0
  3 35  1  0  0  0  0
  3 36  1  0  0  0  0
  3 37  1  0  0  0  0
  4  5  1  0  0  0  0
  4 38  1  0  0  0  0
  4 39  1  0  0  0  0
  5  6  1  0  0  0  0
  5 40  1  0  0  0  0
  5 41  1  0  0  0  0
  6  7  1  0  0  0  0
  6 42  1  0  0  0  0
  6 43  1  0  0  0  0
  7  8  1  0  0  0  0
  7 30  2  0  0  0  0
  8  9  2  0  0  0  0
  8 44  1  0  0  0  0
  9 10  1  0  0  0  0
  9 28  1  0  0  0  0
 10 11  1  0  0  0  0
 10 45  1  0  0  0  0
 11 12  1  0  0  0  0
 11 16  2  0  0  0  0
 12 13  2  0  0  0  0
 13 14  1  0  0  0  0
 13 46  1  0  0  0  0
 14 15  2  0  0  0  0
 14 27  1  0  0  0  0
 15 16  1  0  0  0  0
 15 17  1  0  0  0  0
 17 18  1  0  0  0  0
 17 23  2  0  0  0  0
 18 19  2  0  0  0  0
 18 47  1  0  0  0  0
 19 20  1  0  0  0  0
 19 48  1  0  0  0  0
 20 21  1  0  0  0  0
 20 22  2  0  0  0  0
 22 23  1  0  0  0  0
 22 49  1  0  0  0  0
 23 24  1  0  0  0  0
 24 25  1  0  0  0  0
 24 50  1  0  0  0  0
 25 26  2  0  0  0  0
 25 27  1  0  0  0  0
 27 51  1  0  0  0  0
 27 52  1  0  0  0  0
 28 29  2  0  0  0  0
 28 53  1  0  0  0  0
 29 30  1  0  0  0  0
 29 54  1  0  0  0  0
 30 31  1  0  0  0  0
M  END
$$$$
