CHEMBL3706833
 OpenBabel04072215373D

 46 48  0  0  0  0  0  0  0  0999 V2000
    1.0248   -0.9698    0.2420 C   0  0  0  0  0  0  0  0  0  0  0  0
    2.2714   -0.3046    0.1866 O   0  0  0  0  0  0  0  0  0  0  0  0
    2.7633    0.0851    1.4724 C   0  0  0  0  0  0  0  0  0  0  0  0
    4.0700    0.8130    1.1955 C   0  0  0  0  0  0  0  0  0  0  0  0
    4.7321    1.2460    2.3642 O   0  0  0  0  0  0  0  0  0  0  0  0
    6.0840    1.4720    2.2922 C   0  0  0  0  0  0  0  0  0  0  0  0
    6.6607    1.4025    3.5798 C   0  0  0  0  0  0  0  0  0  0  0  0
    8.0236    1.5289    3.8271 C   0  0  0  0  0  0  0  0  0  0  0  0
    8.4868    1.3727    5.0748 N   0  0  0  0  0  0  0  0  0  0  0  0
    9.8102    1.4765    5.2468 C   0  0  0  0  0  0  0  0  0  0  0  0
   10.7037    1.7566    4.2961 N   0  0  0  0  0  0  0  0  0  0  0  0
   10.2344    1.9293    3.0461 C   0  0  0  0  0  0  0  0  0  0  0  0
   11.1461    2.1736    2.0027 N   0  0  0  0  0  0  0  0  0  0  0  0
   12.4785    1.8175    1.9102 C   0  0  0  0  0  0  0  0  0  0  0  0
   13.1875    1.0726    2.7682 C   0  0  0  0  0  0  0  0  0  0  0  0
   14.5645    0.6261    2.5120 C   0  0  0  0  0  0  0  0  0  0  0  0
   15.1959    0.0459    3.3857 O   0  0  0  0  0  0  0  0  0  0  0  0
   15.1083    0.8637    1.1580 C   0  0  0  0  0  0  0  0  0  0  0  0
   16.3733    0.1384    0.7879 C   0  0  0  0  0  0  0  0  0  0  0  0
   14.4583    1.6781    0.3136 C   0  0  0  0  0  0  0  0  0  0  0  0
   13.1593    2.2782    0.6534 C   0  0  0  0  0  0  0  0  0  0  0  0
   12.6235    3.0847   -0.1019 O   0  0  0  0  0  0  0  0  0  0  0  0
    8.8648    1.7901    2.7466 C   0  0  0  0  0  0  0  0  0  0  0  0
    8.3067    1.8451    1.4481 C   0  0  0  0  0  0  0  0  0  0  0  0
    6.9305    1.6951    1.2003 C   0  0  0  0  0  0  0  0  0  0  0  0
    6.6978    1.6400   -0.1428 O   0  0  0  0  0  0  0  0  0  0  0  0
    5.6418    2.3737   -0.7387 C   0  0  0  0  0  0  0  0  0  0  0  0
    0.7462   -1.2376   -0.7814 H   0  0  0  0  0  0  0  0  0  0  0  0
    0.2570   -0.3081    0.6508 H   0  0  0  0  0  0  0  0  0  0  0  0
    1.1050   -1.8845    0.8343 H   0  0  0  0  0  0  0  0  0  0  0  0
    2.9239   -0.7885    2.1122 H   0  0  0  0  0  0  0  0  0  0  0  0
    2.0495    0.7548    1.9677 H   0  0  0  0  0  0  0  0  0  0  0  0
    3.7742    1.6951    0.6276 H   0  0  0  0  0  0  0  0  0  0  0  0
    4.7062    0.1540    0.5959 H   0  0  0  0  0  0  0  0  0  0  0  0
    6.0126    1.1915    4.4319 H   0  0  0  0  0  0  0  0  0  0  0  0
   10.1944    1.3154    6.2488 H   0  0  0  0  0  0  0  0  0  0  0  0
   10.8599    2.8740    1.3206 H   0  0  0  0  0  0  0  0  0  0  0  0
   12.7759    0.7150    3.7028 H   0  0  0  0  0  0  0  0  0  0  0  0
   16.7275   -0.5197    1.5882 H   0  0  0  0  0  0  0  0  0  0  0  0
   17.1772    0.8411    0.5541 H   0  0  0  0  0  0  0  0  0  0  0  0
   16.1928   -0.4997   -0.0846 H   0  0  0  0  0  0  0  0  0  0  0  0
   14.8379    1.8891   -0.6808 H   0  0  0  0  0  0  0  0  0  0  0  0
    8.9643    1.9666    0.5884 H   0  0  0  0  0  0  0  0  0  0  0  0
    6.0295    2.9327   -1.5954 H   0  0  0  0  0  0  0  0  0  0  0  0
    5.1516    3.0809   -0.0652 H   0  0  0  0  0  0  0  0  0  0  0  0
    4.9329    1.6498   -1.1560 H   0  0  0  0  0  0  0  0  0  0  0  0
  1  2  1  0  0  0  0
  1 28  1  0  0  0  0
  1 29  1  0  0  0  0
  1 30  1  0  0  0  0
  2  3  1  0  0  0  0
  3  4  1  0  0  0  0
  3 31  1  0  0  0  0
  3 32  1  0  0  0  0
  4  5  1  0  0  0  0
  4 33  1  0  0  0  0
  4 34  1  0  0  0  0
  5  6  1  0  0  0  0
  6  7  1  0  0  0  0
  6 25  2  0  0  0  0
  7  8  2  0  0  0  0
  7 35  1  0  0  0  0
  8  9  1  0  0  0  0
  8 23  1  0  0  0  0
  9 10  2  0  0  0  0
 10 11  1  0  0  0  0
 10 36  1  0  0  0  0
 11 12  2  0  0  0  0
 12 13  1  0  0  0  0
 12 23  1  0  0  0  0
 13 14  1  0  0  0  0
 13 37  1  0  0  0  0
 14 15  2  0  0  0  0
 14 21  1  0  0  0  0
 15 16  1  0  0  0  0
 15 38  1  0  0  0  0
 16 17  2  0  0  0  0
 16 18  1  0  0  0  0
 18 19  1  0  0  0  0
 18 20  2  0  0  0  0
 19 39  1  0  0  0  0
 19 40  1  0  0  0  0
 19 41  1  0  0  0  0
 20 21  1  0  0  0  0
 20 42  1  0  0  0  0
 21 22  2  0  0  0  0
 23 24  2  0  0  0  0
 24 25  1  0  0  0  0
 24 43  1  0  0  0  0
 25 26  1  0  0  0  0
 26 27  1  0  0  0  0
 27 44  1  0  0  0  0
 27 45  1  0  0  0  0
 27 46  1  0  0  0  0
M  END
$$$$
