CHEMBL231168
 OpenBabel04072215363D

 62 65  0  0  0  0  0  0  0  0999 V2000
    5.9327    6.1498   -1.6558 C   0  0  0  0  0  0  0  0  0  0  0  0
    6.6669    4.9394   -1.4089 N   0  0  0  0  0  0  0  0  0  0  0  0
    6.2639    4.0301   -0.4546 C   0  0  0  0  0  0  0  0  0  0  0  0
    5.2664    4.1757    0.2435 O   0  0  0  0  0  0  0  0  0  0  0  0
    7.1432    2.8229   -0.3228 C   0  0  0  0  0  0  0  0  0  0  0  0
    6.7910    1.8176    0.5652 C   0  0  0  0  0  0  0  0  0  0  0  0
    7.6704    0.7512    0.7244 C   0  0  0  0  0  0  0  0  0  0  0  0
    7.4659   -0.2961    1.5980 O   0  0  0  0  0  0  0  0  0  0  0  0
    6.9028   -0.0242    2.8299 C   0  0  0  0  0  0  0  0  0  0  0  0
    6.0692   -1.0099    3.3716 C   0  0  0  0  0  0  0  0  0  0  0  0
    5.3880   -0.8083    4.5808 C   0  0  0  0  0  0  0  0  0  0  0  0
    5.5713    0.4323    5.1859 C   0  0  0  0  0  0  0  0  0  0  0  0
    5.0241    1.0238    6.2962 N   0  0  0  0  0  0  0  0  0  0  0  0
    5.4823    2.3154    6.3620 C   0  0  0  0  0  0  0  0  0  0  0  0
    4.9360    3.1635    7.2558 N   0  0  0  0  0  0  0  0  0  0  0  0
    5.0327    4.5684    7.2459 C   0  0  0  0  0  0  0  0  0  0  0  0
    5.9692    5.3117    6.5358 C   0  0  0  0  0  0  0  0  0  0  0  0
    5.9756    6.7103    6.6097 C   0  0  0  0  0  0  0  0  0  0  0  0
    5.0596    7.4095    7.4207 C   0  0  0  0  0  0  0  0  0  0  0  0
    5.1573    8.9071    7.5314 C   0  0  0  0  0  0  0  0  0  0  0  0
    6.1848    9.4280    6.7945 F   0  0  0  0  0  0  0  0  0  0  0  0
    4.0428    9.5590    7.0988 F   0  0  0  0  0  0  0  0  0  0  0  0
    5.3843    9.3363    8.8058 F   0  0  0  0  0  0  0  0  0  0  0  0
    4.1012    6.6730    8.1261 C   0  0  0  0  0  0  0  0  0  0  0  0
    3.2324    7.3369    8.9741 O   0  0  0  0  0  0  0  0  0  0  0  0
    2.6046    6.4507    9.9185 C   0  0  0  0  0  0  0  0  0  0  0  0
    2.0093    7.1357   11.1506 C   0  0  0  0  0  0  0  0  0  0  0  0
    1.5327    6.1369   12.1438 N   0  0  0  0  0  0  0  0  0  0  0  0
    2.6153    5.2924   12.6673 C   0  0  0  0  0  0  0  0  0  0  0  0
    0.8684    6.8119   13.2612 C   0  0  0  0  0  0  0  0  0  0  0  0
    4.0744    5.2748    7.9757 C   0  0  0  0  0  0  0  0  0  0  0  0
    6.3914    2.5368    5.4464 N   0  0  0  0  0  0  0  0  0  0  0  0
    6.4299    1.4029    4.6900 C   0  0  0  0  0  0  0  0  0  0  0  0
    7.1530    1.1626    3.5251 C   0  0  0  0  0  0  0  0  0  0  0  0
    8.8160    0.6850   -0.0578 C   0  0  0  0  0  0  0  0  0  0  0  0
    9.0741    1.7233   -0.9386 C   0  0  0  0  0  0  0  0  0  0  0  0
    8.2716    2.7996   -1.0900 N   0  0  0  0  0  0  0  0  0  0  0  0
    6.4217    6.7054   -2.4585 H   0  0  0  0  0  0  0  0  0  0  0  0
    5.9095    6.7511   -0.7426 H   0  0  0  0  0  0  0  0  0  0  0  0
    4.9086    5.8968   -1.9443 H   0  0  0  0  0  0  0  0  0  0  0  0
    7.5152    4.7207   -1.9244 H   0  0  0  0  0  0  0  0  0  0  0  0
    5.8704    1.8965    1.1352 H   0  0  0  0  0  0  0  0  0  0  0  0
    5.9313   -1.9466    2.8365 H   0  0  0  0  0  0  0  0  0  0  0  0
    4.7241   -1.5636    4.9901 H   0  0  0  0  0  0  0  0  0  0  0  0
    4.3142    0.6232    6.8902 H   0  0  0  0  0  0  0  0  0  0  0  0
    4.2940    2.8098    7.9527 H   0  0  0  0  0  0  0  0  0  0  0  0
    6.7205    4.8245    5.9217 H   0  0  0  0  0  0  0  0  0  0  0  0
    6.7272    7.2519    6.0358 H   0  0  0  0  0  0  0  0  0  0  0  0
    3.3742    5.7661   10.2830 H   0  0  0  0  0  0  0  0  0  0  0  0
    1.8050    5.8957    9.4099 H   0  0  0  0  0  0  0  0  0  0  0  0
    1.1655    7.7530   10.8160 H   0  0  0  0  0  0  0  0  0  0  0  0
    2.7423    7.8227   11.5914 H   0  0  0  0  0  0  0  0  0  0  0  0
    2.9942    4.6035   11.9003 H   0  0  0  0  0  0  0  0  0  0  0  0
    2.2481    4.6391   13.4655 H   0  0  0  0  0  0  0  0  0  0  0  0
    3.4496    5.8819   13.0541 H   0  0  0  0  0  0  0  0  0  0  0  0
    0.0028    7.3813   12.9095 H   0  0  0  0  0  0  0  0  0  0  0  0
    1.5454    7.4879   13.7937 H   0  0  0  0  0  0  0  0  0  0  0  0
    0.4854    6.0748   13.9777 H   0  0  0  0  0  0  0  0  0  0  0  0
    3.2938    4.6839    8.4434 H   0  0  0  0  0  0  0  0  0  0  0  0
    7.8259    1.9303    3.1581 H   0  0  0  0  0  0  0  0  0  0  0  0
    9.5072   -0.1483    0.0309 H   0  0  0  0  0  0  0  0  0  0  0  0
    9.9649    1.7170   -1.5623 H   0  0  0  0  0  0  0  0  0  0  0  0
  1  2  1  0  0  0  0
  1 38  1  0  0  0  0
  1 39  1  0  0  0  0
  1 40  1  0  0  0  0
  2  3  1  0  0  0  0
  2 41  1  0  0  0  0
  3  4  2  0  0  0  0
  3  5  1  0  0  0  0
  5  6  1  0  0  0  0
  5 37  2  0  0  0  0
  6  7  2  0  0  0  0
  6 42  1  0  0  0  0
  7  8  1  0  0  0  0
  7 35  1  0  0  0  0
  8  9  1  0  0  0  0
  9 10  1  0  0  0  0
  9 34  2  0  0  0  0
 10 11  2  0  0  0  0
 10 43  1  0  0  0  0
 11 12  1  0  0  0  0
 11 44  1  0  0  0  0
 12 13  1  0  0  0  0
 12 33  2  0  0  0  0
 13 14  1  0  0  0  0
 13 45  1  0  0  0  0
 14 15  1  0  0  0  0
 14 32  2  0  0  0  0
 15 16  1  0  0  0  0
 15 46  1  0  0  0  0
 16 17  1  0  0  0  0
 16 31  2  0  0  0  0
 17 18  2  0  0  0  0
 17 47  1  0  0  0  0
 18 19  1  0  0  0  0
 18 48  1  0  0  0  0
 19 20  1  0  0  0  0
 19 24  2  0  0  0  0
 20 21  1  0  0  0  0
 20 22  1  0  0  0  0
 20 23  1  0  0  0  0
 24 25  1  0  0  0  0
 24 31  1  0  0  0  0
 25 26  1  0  0  0  0
 26 27  1  0  0  0  0
 26 49  1  0  0  0  0
 26 50  1  0  0  0  0
 27 28  1  0  0  0  0
 27 51  1  0  0  0  0
 27 52  1  0  0  0  0
 28 29  1  0  0  0  0
 28 30  1  0  0  0  0
 29 53  1  0  0  0  0
 29 54  1  0  0  0  0
 29 55  1  0  0  0  0
 30 56  1  0  0  0  0
 30 57  1  0  0  0  0
 30 58  1  0  0  0  0
 31 59  1  0  0  0  0
 32 33  1  0  0  0  0
 33 34  1  0  0  0  0
 34 60  1  0  0  0  0
 35 36  2  0  0  0  0
 35 61  1  0  0  0  0
 36 37  1  0  0  0  0
 36 62  1  0  0  0  0
M  END
$$$$
