CHEMBL3904994
 OpenBabel04072215373D

 55 58  0  0  0  0  0  0  0  0999 V2000
    2.5306    0.2091    0.0620 C   0  0  0  0  0  0  0  0  0  0  0  0
    1.0302    0.0827    0.0923 C   0  0  0  0  0  0  0  0  0  0  0  0
    0.2997    1.2873    0.1739 C   0  0  0  0  0  0  0  0  0  0  0  0
   -1.0921    1.2943    0.1611 C   0  0  0  0  0  0  0  0  0  0  0  0
   -1.7830    0.1028   -0.0196 C   0  0  0  0  0  0  0  0  0  0  0  0
   -3.1593    0.0225   -0.1340 O   0  0  0  0  0  0  0  0  0  0  0  0
   -3.8377    1.0282   -0.7965 C   0  0  0  0  0  0  0  0  0  0  0  0
   -3.2975    1.7402   -1.8635 C   0  0  0  0  0  0  0  0  0  0  0  0
   -4.0316    2.7855   -2.3714 C   0  0  0  0  0  0  0  0  0  0  0  0
   -5.2628    3.1016   -1.9373 N   0  0  0  0  0  0  0  0  0  0  0  0
   -5.8267    2.3601   -0.9693 C   0  0  0  0  0  0  0  0  0  0  0  0
   -7.1374    2.6598   -0.5459 N   0  0  0  0  0  0  0  0  0  0  0  0
   -7.8756    3.7098   -1.0472 C   0  0  0  0  0  0  0  0  0  0  0  0
   -7.5283    4.5308   -1.8883 O   0  0  0  0  0  0  0  0  0  0  0  0
   -9.2525    3.8932   -0.4922 C   0  0  0  0  0  0  0  0  0  0  0  0
   -9.4199    4.2367    0.9684 C   0  0  0  0  0  0  0  0  0  0  0  0
  -10.0066    2.9659    0.4199 C   0  0  0  0  0  0  0  0  0  0  0  0
   -5.1410    1.3067   -0.3705 C   0  0  0  0  0  0  0  0  0  0  0  0
   -1.0741   -1.1036   -0.0463 C   0  0  0  0  0  0  0  0  0  0  0  0
    0.3334   -1.1466    0.0144 C   0  0  0  0  0  0  0  0  0  0  0  0
    1.0452   -2.3877    0.0352 N   0  0  0  0  0  0  0  0  0  0  0  0
    0.4865   -3.6543   -0.1176 C   0  0  0  0  0  0  0  0  0  0  0  0
   -0.6692   -3.8829   -0.4559 O   0  0  0  0  0  0  0  0  0  0  0  0
    1.3757   -4.6761    0.2151 N   0  0  0  0  0  0  0  0  0  0  0  0
    0.9605   -6.0389    0.1730 C   0  0  0  0  0  0  0  0  0  0  0  0
    1.2627   -6.8697    1.2518 C   0  0  0  0  0  0  0  0  0  0  0  0
    0.7778   -8.1761    1.2717 C   0  0  0  0  0  0  0  0  0  0  0  0
    1.0070   -8.9448    2.3445 F   0  0  0  0  0  0  0  0  0  0  0  0
    0.0457   -8.6975    0.2111 C   0  0  0  0  0  0  0  0  0  0  0  0
   -0.2187   -7.9012   -0.9094 C   0  0  0  0  0  0  0  0  0  0  0  0
   -0.9719   -8.4638   -2.0912 C   0  0  0  0  0  0  0  0  0  0  0  0
   -1.3043   -9.7785   -1.9409 F   0  0  0  0  0  0  0  0  0  0  0  0
   -2.1405   -7.8138   -2.3378 F   0  0  0  0  0  0  0  0  0  0  0  0
   -0.2517   -8.4003   -3.2457 F   0  0  0  0  0  0  0  0  0  0  0  0
    0.2321   -6.5644   -0.9094 C   0  0  0  0  0  0  0  0  0  0  0  0
    2.8427    1.2474    0.2377 H   0  0  0  0  0  0  0  0  0  0  0  0
    2.9160   -0.0774   -0.9213 H   0  0  0  0  0  0  0  0  0  0  0  0
    2.9970   -0.3961    0.8431 H   0  0  0  0  0  0  0  0  0  0  0  0
    0.8143    2.2446    0.2420 H   0  0  0  0  0  0  0  0  0  0  0  0
   -1.6177    2.2402    0.2556 H   0  0  0  0  0  0  0  0  0  0  0  0
   -2.3188    1.5222   -2.2736 H   0  0  0  0  0  0  0  0  0  0  0  0
   -3.6410    3.4265   -3.1560 H   0  0  0  0  0  0  0  0  0  0  0  0
   -7.5381    2.0785    0.1727 H   0  0  0  0  0  0  0  0  0  0  0  0
   -9.8794    4.4533   -1.1867 H   0  0  0  0  0  0  0  0  0  0  0  0
  -10.0834    5.0613    1.2061 H   0  0  0  0  0  0  0  0  0  0  0  0
   -8.5579    4.1647    1.6203 H   0  0  0  0  0  0  0  0  0  0  0  0
  -11.0862    2.9270    0.3007 H   0  0  0  0  0  0  0  0  0  0  0  0
   -9.5778    2.0226    0.7229 H   0  0  0  0  0  0  0  0  0  0  0  0
   -5.5889    0.7108    0.4167 H   0  0  0  0  0  0  0  0  0  0  0  0
   -1.6700   -2.0061   -0.1206 H   0  0  0  0  0  0  0  0  0  0  0  0
    2.0530   -2.3390    0.0692 H   0  0  0  0  0  0  0  0  0  0  0  0
    2.0325   -4.4356    0.9451 H   0  0  0  0  0  0  0  0  0  0  0  0
    1.8100   -6.5095    2.1156 H   0  0  0  0  0  0  0  0  0  0  0  0
   -0.3133   -9.7229    0.2696 H   0  0  0  0  0  0  0  0  0  0  0  0
    0.0075   -5.9331   -1.7698 H   0  0  0  0  0  0  0  0  0  0  0  0
  1  2  1  0  0  0  0
  1 36  1  0  0  0  0
  1 37  1  0  0  0  0
  1 38  1  0  0  0  0
  2  3  1  0  0  0  0
  2 20  2  0  0  0  0
  3  4  2  0  0  0  0
  3 39  1  0  0  0  0
  4  5  1  0  0  0  0
  4 40  1  0  0  0  0
  5  6  1  0  0  0  0
  5 19  2  0  0  0  0
  6  7  1  0  0  0  0
  7  8  1  0  0  0  0
  7 18  2  0  0  0  0
  8  9  2  0  0  0  0
  8 41  1  0  0  0  0
  9 10  1  0  0  0  0
  9 42  1  0  0  0  0
 10 11  2  0  0  0  0
 11 12  1  0  0  0  0
 11 18  1  0  0  0  0
 12 13  1  0  0  0  0
 12 43  1  0  0  0  0
 13 14  2  0  0  0  0
 13 15  1  0  0  0  0
 15 16  1  0  0  0  0
 15 17  1  0  0  0  0
 15 44  1  0  0  0  0
 16 17  1  0  0  0  0
 16 45  1  0  0  0  0
 16 46  1  0  0  0  0
 17 47  1  0  0  0  0
 17 48  1  0  0  0  0
 18 49  1  0  0  0  0
 19 20  1  0  0  0  0
 19 50  1  0  0  0  0
 20 21  1  0  0  0  0
 21 22  1  0  0  0  0
 21 51  1  0  0  0  0
 22 23  2  0  0  0  0
 22 24  1  0  0  0  0
 24 25  1  0  0  0  0
 24 52  1  0  0  0  0
 25 26  1  0  0  0  0
 25 35  2  0  0  0  0
 26 27  2  0  0  0  0
 26 53  1  0  0  0  0
 27 28  1  0  0  0  0
 27 29  1  0  0  0  0
 29 30  2  0  0  0  0
 29 54  1  0  0  0  0
 30 31  1  0  0  0  0
 30 35  1  0  0  0  0
 31 32  1  0  0  0  0
 31 33  1  0  0  0  0
 31 34  1  0  0  0  0
 35 55  1  0  0  0  0
M  END
$$$$
