CHEMBL3892135
 OpenBabel04072215373D

 69 72  0  0  0  0  0  0  0  0999 V2000
    1.6927    5.1808   -1.8448 C   0  0  0  0  0  0  0  0  0  0  0  0
    2.6030    4.3268   -2.4338 O   0  0  0  0  0  0  0  0  0  0  0  0
    3.1386    3.2059   -1.8748 C   0  0  0  0  0  0  0  0  0  0  0  0
    2.7151    2.6983   -0.6604 C   0  0  0  0  0  0  0  0  0  0  0  0
    3.3695    1.6009   -0.0874 C   0  0  0  0  0  0  0  0  0  0  0  0
    2.9473    1.0882    1.1018 O   0  0  0  0  0  0  0  0  0  0  0  0
    1.9519    1.6221    1.8994 C   0  0  0  0  0  0  0  0  0  0  0  0
    4.4968    1.0258   -0.7340 C   0  0  0  0  0  0  0  0  0  0  0  0
    5.3576   -0.1704    0.2517 Cl  0  0  0  0  0  0  0  0  0  0  0  0
    4.9258    1.4850   -2.0393 C   0  0  0  0  0  0  0  0  0  0  0  0
    6.0653    0.9006   -2.7906 N   0  0  0  0  0  0  0  0  0  0  0  0
    6.4563   -0.5155   -2.6014 C   0  0  0  0  0  0  0  0  0  0  0  0
    5.3321   -1.5737   -2.5670 C   0  0  0  0  0  0  0  0  0  0  0  0
    4.3932   -1.6132   -3.7740 C   0  0  0  0  0  0  0  0  0  0  0  0
    5.0540   -1.9635   -5.0541 N   0  0  0  0  0  0  0  0  0  0  0  0
    4.0263   -2.0055   -6.1138 C   0  0  0  0  0  0  0  0  0  0  0  0
    3.5286   -3.4426   -6.1388 C   0  0  0  0  0  0  0  0  0  0  0  0
    4.8491   -4.1622   -6.0774 C   0  0  0  0  0  0  0  0  0  0  0  0
    5.6015   -3.3492   -5.0299 C   0  0  0  0  0  0  0  0  0  0  0  0
    7.0554    1.7023   -3.5520 C   0  0  0  0  0  0  0  0  0  0  0  0
    6.7744    2.8946   -4.2860 C   0  0  0  0  0  0  0  0  0  0  0  0
    7.7449    3.6108   -4.9705 C   0  0  0  0  0  0  0  0  0  0  0  0
    9.0487    3.1850   -4.9814 C   0  0  0  0  0  0  0  0  0  0  0  0
    9.9791    3.8948   -5.6592 N   0  0  0  0  0  0  0  0  0  0  0  0
   11.2697    3.4992   -5.6978 C   0  0  0  0  0  0  0  0  0  0  0  0
   11.6522    2.3235   -5.0313 C   0  0  0  0  0  0  0  0  0  0  0  0
   13.0492    1.8613   -5.0695 C   0  0  0  0  0  0  0  0  0  0  0  0
   13.5567    0.6968   -4.5238 C   0  0  0  0  0  0  0  0  0  0  0  0
   14.8812    0.6382   -4.7651 N   0  0  0  0  0  0  0  0  0  0  0  0
   15.2129    1.7228   -5.4523 N   0  0  0  0  0  0  0  0  0  0  0  0
   16.5597    2.0334   -5.9054 C   0  0  0  0  0  0  0  0  0  0  0  0
   14.1258    2.4880   -5.6515 C   0  0  0  0  0  0  0  0  0  0  0  0
   10.7087    1.6133   -4.3445 N   0  0  0  0  0  0  0  0  0  0  0  0
    9.4095    2.0190   -4.3011 C   0  0  0  0  0  0  0  0  0  0  0  0
    8.4332    1.2902   -3.5939 C   0  0  0  0  0  0  0  0  0  0  0  0
    4.1722    2.5743   -2.5504 C   0  0  0  0  0  0  0  0  0  0  0  0
    1.8018   -1.9913   -1.3286 Cl  0  0  0  0  0  0  0  0  0  0  0  0
    1.5771    6.0812   -2.4842 H   0  0  0  0  0  0  0  0  0  0  0  0
    2.0617    5.5196   -0.8507 H   0  0  0  0  0  0  0  0  0  0  0  0
    0.7108    4.6787   -1.7421 H   0  0  0  0  0  0  0  0  0  0  0  0
    1.8832    3.1713   -0.1615 H   0  0  0  0  0  0  0  0  0  0  0  0
    1.7658    0.9491    2.7593 H   0  0  0  0  0  0  0  0  0  0  0  0
    0.9963    1.7289    1.3384 H   0  0  0  0  0  0  0  0  0  0  0  0
    2.2807    2.6129    2.2769 H   0  0  0  0  0  0  0  0  0  0  0  0
    7.1118   -0.6136   -1.7110 H   0  0  0  0  0  0  0  0  0  0  0  0
    7.0592   -0.8480   -3.4764 H   0  0  0  0  0  0  0  0  0  0  0  0
    4.6691   -1.4632   -1.7065 H   0  0  0  0  0  0  0  0  0  0  0  0
    5.8251   -2.5559   -2.4147 H   0  0  0  0  0  0  0  0  0  0  0  0
    3.8946   -0.6230   -3.8528 H   0  0  0  0  0  0  0  0  0  0  0  0
    3.6084   -2.3648   -3.5363 H   0  0  0  0  0  0  0  0  0  0  0  0
    4.5230   -1.7775   -7.0843 H   0  0  0  0  0  0  0  0  0  0  0  0
    3.2064   -1.2628   -5.9866 H   0  0  0  0  0  0  0  0  0  0  0  0
    2.9103   -3.7014   -7.0230 H   0  0  0  0  0  0  0  0  0  0  0  0
    2.9397   -3.6528   -5.2185 H   0  0  0  0  0  0  0  0  0  0  0  0
    5.3473   -4.0277   -7.0622 H   0  0  0  0  0  0  0  0  0  0  0  0
    4.7902   -5.2486   -5.8478 H   0  0  0  0  0  0  0  0  0  0  0  0
    6.6960   -3.3617   -5.2257 H   0  0  0  0  0  0  0  0  0  0  0  0
    5.4187   -3.8501   -4.0576 H   0  0  0  0  0  0  0  0  0  0  0  0
    5.8575    3.3611   -4.4425 H   0  0  0  0  0  0  0  0  0  0  0  0
    7.4689    4.5089   -5.5104 H   0  0  0  0  0  0  0  0  0  0  0  0
   11.9764    4.0953   -6.2559 H   0  0  0  0  0  0  0  0  0  0  0  0
   12.9996   -0.0541   -3.9767 H   0  0  0  0  0  0  0  0  0  0  0  0
   17.2618    1.2298   -5.6021 H   0  0  0  0  0  0  0  0  0  0  0  0
   16.8889    2.9923   -5.4531 H   0  0  0  0  0  0  0  0  0  0  0  0
   16.5705    2.1271   -7.0121 H   0  0  0  0  0  0  0  0  0  0  0  0
   14.1351    3.4265   -6.1958 H   0  0  0  0  0  0  0  0  0  0  0  0
    8.7834    0.4111   -3.0704 H   0  0  0  0  0  0  0  0  0  0  0  0
    4.2997    3.0036   -3.4843 H   0  0  0  0  0  0  0  0  0  0  0  0
    1.9050   -0.7937   -1.9991 H   0  0  0  0  0  0  0  0  0  0  0  0
  1  2  1  0  0  0  0
  1 38  1  0  0  0  0
  1 39  1  0  0  0  0
  1 40  1  0  0  0  0
  2  3  1  0  0  0  0
  3  4  1  0  0  0  0
  3 36  2  0  0  0  0
  4  5  2  0  0  0  0
  4 41  1  0  0  0  0
  5  6  1  0  0  0  0
  5  8  1  0  0  0  0
  6  7  1  0  0  0  0
  7 42  1  0  0  0  0
  7 43  1  0  0  0  0
  7 44  1  0  0  0  0
  8  9  1  0  0  0  0
  8 10  2  0  0  0  0
 10 11  1  0  0  0  0
 10 36  1  0  0  0  0
 11 12  1  0  0  0  0
 11 20  1  0  0  0  0
 12 13  1  0  0  0  0
 12 45  1  0  0  0  0
 12 46  1  0  0  0  0
 13 14  1  0  0  0  0
 13 47  1  0  0  0  0
 13 48  1  0  0  0  0
 14 15  1  0  0  0  0
 14 49  1  0  0  0  0
 14 50  1  0  0  0  0
 15 16  1  0  0  0  0
 15 19  1  0  0  0  0
 16 17  1  0  0  0  0
 16 51  1  0  0  0  0
 16 52  1  0  0  0  0
 17 18  1  0  0  0  0
 17 53  1  0  0  0  0
 17 54  1  0  0  0  0
 18 19  1  0  0  0  0
 18 55  1  0  0  0  0
 18 56  1  0  0  0  0
 19 57  1  0  0  0  0
 19 58  1  0  0  0  0
 20 21  1  0  0  0  0
 20 35  2  0  0  0  0
 21 22  2  0  0  0  0
 21 59  1  0  0  0  0
 22 23  1  0  0  0  0
 22 60  1  0  0  0  0
 23 24  1  0  0  0  0
 23 34  2  0  0  0  0
 24 25  2  0  0  0  0
 25 26  1  0  0  0  0
 25 61  1  0  0  0  0
 26 27  1  0  0  0  0
 26 33  2  0  0  0  0
 27 28  1  0  0  0  0
 27 32  2  0  0  0  0
 28 29  2  0  0  0  0
 28 62  1  0  0  0  0
 29 30  1  0  0  0  0
 30 31  1  0  0  0  0
 30 32  1  0  0  0  0
 31 63  1  0  0  0  0
 31 64  1  0  0  0  0
 31 65  1  0  0  0  0
 32 66  1  0  0  0  0
 33 34  1  0  0  0  0
 34 35  1  0  0  0  0
 35 67  1  0  0  0  0
 36 68  1  0  0  0  0
 37 69  1  0  0  0  0
M  END
$$$$
