CHEMBL3676358
 OpenBabel04072215373D

 54 56  0  0  0  0  0  0  0  0999 V2000
    3.5057    1.1068   -3.8543 C   0  0  0  0  0  0  0  0  0  0  0  0
    3.5640    1.6407   -2.6285 C   0  0  0  0  0  0  0  0  0  0  0  0
    3.7847    0.7547   -1.4522 C   0  0  0  0  0  0  0  0  0  0  0  0
    3.3934   -0.4075   -1.4285 O   0  0  0  0  0  0  0  0  0  0  0  0
    4.4951    1.2793   -0.3961 N   0  0  0  0  0  0  0  0  0  0  0  0
    5.3033    2.4244   -0.5206 C   0  0  0  0  0  0  0  0  0  0  0  0
    6.4167    2.3494   -1.3583 C   0  0  0  0  0  0  0  0  0  0  0  0
    7.0712    3.5260   -1.7776 C   0  0  0  0  0  0  0  0  0  0  0  0
    8.1450    3.5559   -2.6783 C   0  0  0  0  0  0  0  0  0  0  0  0
    8.6153    2.3429   -3.2604 N   0  0  0  0  0  0  0  0  0  0  0  0
    9.8525    2.2509   -3.9442 C   0  0  0  0  0  0  0  0  0  0  0  0
   11.0271    2.7284   -3.3488 C   0  0  0  0  0  0  0  0  0  0  0  0
   12.2308    2.7407   -4.0566 C   0  0  0  0  0  0  0  0  0  0  0  0
   13.6200    3.3848   -3.2574 Cl  0  0  0  0  0  0  0  0  0  0  0  0
   12.2720    2.2548   -5.3688 C   0  0  0  0  0  0  0  0  0  0  0  0
   13.7096    2.3070   -6.3249 Cl  0  0  0  0  0  0  0  0  0  0  0  0
   11.1206    1.7202   -5.9519 C   0  0  0  0  0  0  0  0  0  0  0  0
    9.9285    1.7156   -5.2339 C   0  0  0  0  0  0  0  0  0  0  0  0
    8.8222    1.2199   -5.8107 F   0  0  0  0  0  0  0  0  0  0  0  0
    8.7350    4.7086   -3.0411 N   0  0  0  0  0  0  0  0  0  0  0  0
    8.2332    5.8335   -2.5255 C   0  0  0  0  0  0  0  0  0  0  0  0
    7.2018    5.9211   -1.6741 N   0  0  0  0  0  0  0  0  0  0  0  0
    6.6368    4.7714   -1.2978 C   0  0  0  0  0  0  0  0  0  0  0  0
    5.5697    4.8130   -0.4071 C   0  0  0  0  0  0  0  0  0  0  0  0
    4.9095    3.6525    0.0208 C   0  0  0  0  0  0  0  0  0  0  0  0
    3.8794    3.8621    0.9052 O   0  0  0  0  0  0  0  0  0  0  0  0
    3.6708    2.8089    1.8556 C   0  0  0  0  0  0  0  0  0  0  0  0
    3.1629    3.3648    3.1856 C   0  0  0  0  0  0  0  0  0  0  0  0
    3.0433    2.3209    4.1932 N   0  0  0  0  0  0  0  0  0  0  0  0
    4.1580    1.8576    4.8693 C   0  0  0  0  0  0  0  0  0  0  0  0
    5.2627    2.3877    4.7885 O   0  0  0  0  0  0  0  0  0  0  0  0
    3.8939    0.6345    5.7464 C   0  0  0  0  0  0  0  0  0  0  0  0
    3.4527   -0.4598    4.9465 O   0  0  0  0  0  0  0  0  0  0  0  0
    3.3470   -1.6537    5.7132 C   0  0  0  0  0  0  0  0  0  0  0  0
    3.4016    1.7362   -4.7313 H   0  0  0  0  0  0  0  0  0  0  0  0
    3.5725    0.0329   -4.0057 H   0  0  0  0  0  0  0  0  0  0  0  0
    3.5099    2.7123   -2.4798 H   0  0  0  0  0  0  0  0  0  0  0  0
    4.8646    0.5245    0.1730 H   0  0  0  0  0  0  0  0  0  0  0  0
    6.7393    1.3804   -1.7331 H   0  0  0  0  0  0  0  0  0  0  0  0
    7.8637    1.9236   -3.8062 H   0  0  0  0  0  0  0  0  0  0  0  0
   10.9898    3.1185   -2.3339 H   0  0  0  0  0  0  0  0  0  0  0  0
   11.1358    1.3281   -6.9643 H   0  0  0  0  0  0  0  0  0  0  0  0
    8.6995    6.7639   -2.8313 H   0  0  0  0  0  0  0  0  0  0  0  0
    5.2329    5.7780   -0.0400 H   0  0  0  0  0  0  0  0  0  0  0  0
    4.6004    2.2549    2.0494 H   0  0  0  0  0  0  0  0  0  0  0  0
    2.9172    2.1210    1.4546 H   0  0  0  0  0  0  0  0  0  0  0  0
    2.1778    3.8263    3.0594 H   0  0  0  0  0  0  0  0  0  0  0  0
    3.8410    4.1444    3.5496 H   0  0  0  0  0  0  0  0  0  0  0  0
    2.2436    1.6978    4.1572 H   0  0  0  0  0  0  0  0  0  0  0  0
    3.1256    0.8875    6.4850 H   0  0  0  0  0  0  0  0  0  0  0  0
    4.8244    0.3780    6.2658 H   0  0  0  0  0  0  0  0  0  0  0  0
    3.0822   -2.4752    5.0414 H   0  0  0  0  0  0  0  0  0  0  0  0
    2.5604   -1.5495    6.4661 H   0  0  0  0  0  0  0  0  0  0  0  0
    4.2997   -1.8965    6.1964 H   0  0  0  0  0  0  0  0  0  0  0  0
  1  2  2  0  0  0  0
  1 35  1  0  0  0  0
  1 36  1  0  0  0  0
  2  3  1  0  0  0  0
  2 37  1  0  0  0  0
  3  4  2  0  0  0  0
  3  5  1  0  0  0  0
  5  6  1  0  0  0  0
  5 38  1  0  0  0  0
  6  7  1  0  0  0  0
  6 25  2  0  0  0  0
  7  8  2  0  0  0  0
  7 39  1  0  0  0  0
  8  9  1  0  0  0  0
  8 23  1  0  0  0  0
  9 10  1  0  0  0  0
  9 20  2  0  0  0  0
 10 11  1  0  0  0  0
 10 40  1  0  0  0  0
 11 12  1  0  0  0  0
 11 18  2  0  0  0  0
 12 13  2  0  0  0  0
 12 41  1  0  0  0  0
 13 14  1  0  0  0  0
 13 15  1  0  0  0  0
 15 16  1  0  0  0  0
 15 17  2  0  0  0  0
 17 18  1  0  0  0  0
 17 42  1  0  0  0  0
 18 19  1  0  0  0  0
 20 21  1  0  0  0  0
 21 22  2  0  0  0  0
 21 43  1  0  0  0  0
 22 23  1  0  0  0  0
 23 24  2  0  0  0  0
 24 25  1  0  0  0  0
 24 44  1  0  0  0  0
 25 26  1  0  0  0  0
 26 27  1  0  0  0  0
 27 28  1  0  0  0  0
 27 45  1  0  0  0  0
 27 46  1  0  0  0  0
 28 29  1  0  0  0  0
 28 47  1  0  0  0  0
 28 48  1  0  0  0  0
 29 30  1  0  0  0  0
 29 49  1  0  0  0  0
 30 31  2  0  0  0  0
 30 32  1  0  0  0  0
 32 33  1  0  0  0  0
 32 50  1  0  0  0  0
 32 51  1  0  0  0  0
 33 34  1  0  0  0  0
 34 52  1  0  0  0  0
 34 53  1  0  0  0  0
 34 54  1  0  0  0  0
M  END
$$$$
