CHEMBL4470636
 OpenBabel04072215383D

 52 55  0  0  0  0  0  0  0  0999 V2000
   -2.9709   -0.4252   -0.8835 N   0  0  0  0  0  0  0  0  0  0  0  0
   -1.8290   -0.3554   -0.7101 C   0  0  0  0  0  0  0  0  0  0  0  0
   -0.4107   -0.2800   -0.5029 C   0  0  0  0  0  0  0  0  0  0  0  0
    0.2216    0.9601   -0.3875 C   0  0  0  0  0  0  0  0  0  0  0  0
    1.6076    1.0216   -0.1932 C   0  0  0  0  0  0  0  0  0  0  0  0
    2.3747   -0.1551   -0.1138 C   0  0  0  0  0  0  0  0  0  0  0  0
    3.8559   -0.0475    0.0838 C   0  0  0  0  0  0  0  0  0  0  0  0
    4.3316    1.0857    0.1663 O   0  0  0  0  0  0  0  0  0  0  0  0
    4.6798   -1.3398    0.1673 C   0  0  0  0  0  0  0  0  0  0  0  0
    6.4407   -0.9530    0.3979 S   0  0  0  0  0  0  0  0  0  0  0  0
    7.2195   -2.5464    0.4520 C   0  0  0  0  0  0  0  0  0  0  0  0
    8.5490   -2.4876    0.6358 N   0  0  0  0  0  0  0  0  0  0  0  0
    9.2130   -3.6480    0.6600 C   0  0  0  0  0  0  0  0  0  0  0  0
    8.5977   -4.8635    0.5232 C   0  0  0  0  0  0  0  0  0  0  0  0
    7.2267   -4.8450    0.3420 C   0  0  0  0  0  0  0  0  0  0  0  0
    6.6029   -6.0953    0.1191 N   0  0  0  0  0  0  0  0  0  0  0  0
    5.3820   -6.3375   -0.5215 C   0  0  0  0  0  0  0  0  0  0  0  0
    4.9780   -5.5604   -1.6047 C   0  0  0  0  0  0  0  0  0  0  0  0
    3.7476   -5.7733   -2.2276 C   0  0  0  0  0  0  0  0  0  0  0  0
    2.8604   -6.7624   -1.7902 C   0  0  0  0  0  0  0  0  0  0  0  0
    1.6588   -6.9692   -2.4270 N   0  0  0  0  0  0  0  0  0  0  0  0
    0.9927   -8.2772   -2.4636 C   0  0  0  0  0  0  0  0  0  0  0  0
    0.5585   -8.5695   -3.9100 C   0  0  0  0  0  0  0  0  0  0  0  0
   -0.2885   -7.5296   -4.4287 O   0  0  0  0  0  0  0  0  0  0  0  0
    0.4076   -6.2710   -4.4256 C   0  0  0  0  0  0  0  0  0  0  0  0
    0.8639   -5.8782   -3.0121 C   0  0  0  0  0  0  0  0  0  0  0  0
    3.2785   -7.5406   -0.7008 C   0  0  0  0  0  0  0  0  0  0  0  0
    4.5181   -7.3374   -0.0740 C   0  0  0  0  0  0  0  0  0  0  0  0
    6.5243   -3.6852    0.2937 N   0  0  0  0  0  0  0  0  0  0  0  0
    1.7324   -1.3921   -0.2253 C   0  0  0  0  0  0  0  0  0  0  0  0
    0.3473   -1.4525   -0.4197 C   0  0  0  0  0  0  0  0  0  0  0  0
   -0.3522    1.8845   -0.4478 H   0  0  0  0  0  0  0  0  0  0  0  0
    2.0842    1.9983   -0.1052 H   0  0  0  0  0  0  0  0  0  0  0  0
    4.5541   -1.8973   -0.7656 H   0  0  0  0  0  0  0  0  0  0  0  0
    4.3278   -1.9249    1.0219 H   0  0  0  0  0  0  0  0  0  0  0  0
   10.2885   -3.5664    0.7811 H   0  0  0  0  0  0  0  0  0  0  0  0
    9.1704   -5.7806    0.5196 H   0  0  0  0  0  0  0  0  0  0  0  0
    6.9322   -6.8382    0.7214 H   0  0  0  0  0  0  0  0  0  0  0  0
    5.6406   -4.7948   -2.0003 H   0  0  0  0  0  0  0  0  0  0  0  0
    3.5215   -5.1698   -3.1004 H   0  0  0  0  0  0  0  0  0  0  0  0
    0.1149   -8.2433   -1.8079 H   0  0  0  0  0  0  0  0  0  0  0  0
    1.6416   -9.0940   -2.1314 H   0  0  0  0  0  0  0  0  0  0  0  0
   -0.0022   -9.5081   -3.9481 H   0  0  0  0  0  0  0  0  0  0  0  0
    1.4329   -8.6744   -4.5647 H   0  0  0  0  0  0  0  0  0  0  0  0
   -0.2786   -5.5135   -4.8171 H   0  0  0  0  0  0  0  0  0  0  0  0
    1.2622   -6.3346   -5.1098 H   0  0  0  0  0  0  0  0  0  0  0  0
   -0.0166   -5.7248   -2.3762 H   0  0  0  0  0  0  0  0  0  0  0  0
    1.3929   -4.9210   -3.0513 H   0  0  0  0  0  0  0  0  0  0  0  0
    2.6264   -8.3088   -0.2925 H   0  0  0  0  0  0  0  0  0  0  0  0
    4.7794   -7.9583    0.7792 H   0  0  0  0  0  0  0  0  0  0  0  0
    2.2804   -2.3282   -0.1655 H   0  0  0  0  0  0  0  0  0  0  0  0
   -0.1327   -2.4260   -0.5048 H   0  0  0  0  0  0  0  0  0  0  0  0
  1  2  3  0  0  0  0
  2  3  1  0  0  0  0
  3  4  1  0  0  0  0
  3 31  2  0  0  0  0
  4  5  2  0  0  0  0
  4 32  1  0  0  0  0
  5  6  1  0  0  0  0
  5 33  1  0  0  0  0
  6  7  1  0  0  0  0
  6 30  2  0  0  0  0
  7  8  2  0  0  0  0
  7  9  1  0  0  0  0
  9 10  1  0  0  0  0
  9 34  1  0  0  0  0
  9 35  1  0  0  0  0
 10 11  1  0  0  0  0
 11 12  1  0  0  0  0
 11 29  2  0  0  0  0
 12 13  2  0  0  0  0
 13 14  1  0  0  0  0
 13 36  1  0  0  0  0
 14 15  2  0  0  0  0
 14 37  1  0  0  0  0
 15 16  1  0  0  0  0
 15 29  1  0  0  0  0
 16 17  1  0  0  0  0
 16 38  1  0  0  0  0
 17 18  1  0  0  0  0
 17 28  2  0  0  0  0
 18 19  2  0  0  0  0
 18 39  1  0  0  0  0
 19 20  1  0  0  0  0
 19 40  1  0  0  0  0
 20 21  1  0  0  0  0
 20 27  2  0  0  0  0
 21 22  1  0  0  0  0
 21 26  1  0  0  0  0
 22 23  1  0  0  0  0
 22 41  1  0  0  0  0
 22 42  1  0  0  0  0
 23 24  1  0  0  0  0
 23 43  1  0  0  0  0
 23 44  1  0  0  0  0
 24 25  1  0  0  0  0
 25 26  1  0  0  0  0
 25 45  1  0  0  0  0
 25 46  1  0  0  0  0
 26 47  1  0  0  0  0
 26 48  1  0  0  0  0
 27 28  1  0  0  0  0
 27 49  1  0  0  0  0
 28 50  1  0  0  0  0
 30 31  1  0  0  0  0
 30 51  1  0  0  0  0
 31 52  1  0  0  0  0
M  END
$$$$
