CHEMBL3676365
 OpenBabel04072215373D

 54 56  0  0  0  0  0  0  0  0999 V2000
    3.7242    4.1101    0.1679 C   0  0  0  0  0  0  0  0  0  0  0  0
    3.6839    3.0478    0.9807 C   0  0  0  0  0  0  0  0  0  0  0  0
    3.7952    1.6862    0.3958 C   0  0  0  0  0  0  0  0  0  0  0  0
    3.3644    1.4138   -0.7203 O   0  0  0  0  0  0  0  0  0  0  0  0
    4.4426    0.7322    1.1433 N   0  0  0  0  0  0  0  0  0  0  0  0
    5.2702    1.0342    2.2387 C   0  0  0  0  0  0  0  0  0  0  0  0
    6.4421    1.7548    2.0011 C   0  0  0  0  0  0  0  0  0  0  0  0
    7.1847    2.2829    3.0783 C   0  0  0  0  0  0  0  0  0  0  0  0
    8.2945    3.1316    2.9474 C   0  0  0  0  0  0  0  0  0  0  0  0
    8.6979    3.5880    1.6628 N   0  0  0  0  0  0  0  0  0  0  0  0
    9.5538    4.7014    1.4708 C   0  0  0  0  0  0  0  0  0  0  0  0
    9.3528    5.8880    2.1884 C   0  0  0  0  0  0  0  0  0  0  0  0
   10.2650    6.9379    2.1037 C   0  0  0  0  0  0  0  0  0  0  0  0
   11.3840    6.8267    1.2749 C   0  0  0  0  0  0  0  0  0  0  0  0
   12.6197    8.2691    1.2949 Br  0  0  0  0  0  0  0  0  0  0  0  0
   11.5653    5.6786    0.4949 C   0  0  0  0  0  0  0  0  0  0  0  0
   12.9115    5.4931   -0.5738 Cl  0  0  0  0  0  0  0  0  0  0  0  0
   10.6423    4.6315    0.5937 C   0  0  0  0  0  0  0  0  0  0  0  0
   10.8081    3.5098   -0.1299 F   0  0  0  0  0  0  0  0  0  0  0  0
    8.9548    3.6045    4.0217 N   0  0  0  0  0  0  0  0  0  0  0  0
    8.4916    3.2596    5.2228 C   0  0  0  0  0  0  0  0  0  0  0  0
    7.4171    2.5054    5.4600 N   0  0  0  0  0  0  0  0  0  0  0  0
    6.7699    2.0291    4.3952 C   0  0  0  0  0  0  0  0  0  0  0  0
    5.6228    1.2748    4.6054 C   0  0  0  0  0  0  0  0  0  0  0  0
    4.8735    0.7481    3.5501 C   0  0  0  0  0  0  0  0  0  0  0  0
    3.7694    0.0259    3.9342 O   0  0  0  0  0  0  0  0  0  0  0  0
    3.4314   -1.0654    3.0719 C   0  0  0  0  0  0  0  0  0  0  0  0
    2.8287   -2.2275    3.8659 C   0  0  0  0  0  0  0  0  0  0  0  0
    2.6067   -3.3915    3.0175 N   0  0  0  0  0  0  0  0  0  0  0  0
    3.6532   -4.2130    2.6581 C   0  0  0  0  0  0  0  0  0  0  0  0
    4.7943   -4.0620    3.0885 O   0  0  0  0  0  0  0  0  0  0  0  0
    3.2767   -5.3031    1.6788 C   0  0  0  0  0  0  0  0  0  0  0  0
    4.4557   -6.2233    1.3995 C   0  0  0  0  0  0  0  0  0  0  0  0
    4.8451   -6.9184    2.5827 O   0  0  0  0  0  0  0  0  0  0  0  0
    3.7131    5.1178    0.5676 H   0  0  0  0  0  0  0  0  0  0  0  0
    3.7948    3.9934   -0.9102 H   0  0  0  0  0  0  0  0  0  0  0  0
    3.6382    3.1606    2.0569 H   0  0  0  0  0  0  0  0  0  0  0  0
    4.7559   -0.0188    0.5368 H   0  0  0  0  0  0  0  0  0  0  0  0
    6.7408    1.9624    0.9759 H   0  0  0  0  0  0  0  0  0  0  0  0
    8.9469    2.8059    1.0610 H   0  0  0  0  0  0  0  0  0  0  0  0
    8.4968    5.9833    2.8534 H   0  0  0  0  0  0  0  0  0  0  0  0
   10.1035    7.8255    2.7126 H   0  0  0  0  0  0  0  0  0  0  0  0
    9.0308    3.6398    6.0835 H   0  0  0  0  0  0  0  0  0  0  0  0
    5.2905    1.1069    5.6287 H   0  0  0  0  0  0  0  0  0  0  0  0
    4.3145   -1.4396    2.5402 H   0  0  0  0  0  0  0  0  0  0  0  0
    2.6892   -0.7198    2.3423 H   0  0  0  0  0  0  0  0  0  0  0  0
    1.8688   -1.9391    4.3074 H   0  0  0  0  0  0  0  0  0  0  0  0
    3.4979   -2.5054    4.6885 H   0  0  0  0  0  0  0  0  0  0  0  0
    1.7171   -3.4839    2.5423 H   0  0  0  0  0  0  0  0  0  0  0  0
    2.9533   -4.8300    0.7450 H   0  0  0  0  0  0  0  0  0  0  0  0
    2.4422   -5.8727    2.1008 H   0  0  0  0  0  0  0  0  0  0  0  0
    5.3244   -5.6782    1.0152 H   0  0  0  0  0  0  0  0  0  0  0  0
    4.1728   -6.9734    0.6548 H   0  0  0  0  0  0  0  0  0  0  0  0
    5.2409   -6.2512    3.1767 H   0  0  0  0  0  0  0  0  0  0  0  0
  1  2  2  0  0  0  0
  1 35  1  0  0  0  0
  1 36  1  0  0  0  0
  2  3  1  0  0  0  0
  2 37  1  0  0  0  0
  3  4  2  0  0  0  0
  3  5  1  0  0  0  0
  5  6  1  0  0  0  0
  5 38  1  0  0  0  0
  6  7  1  0  0  0  0
  6 25  2  0  0  0  0
  7  8  2  0  0  0  0
  7 39  1  0  0  0  0
  8  9  1  0  0  0  0
  8 23  1  0  0  0  0
  9 10  1  0  0  0  0
  9 20  2  0  0  0  0
 10 11  1  0  0  0  0
 10 40  1  0  0  0  0
 11 12  1  0  0  0  0
 11 18  2  0  0  0  0
 12 13  2  0  0  0  0
 12 41  1  0  0  0  0
 13 14  1  0  0  0  0
 13 42  1  0  0  0  0
 14 15  1  0  0  0  0
 14 16  2  0  0  0  0
 16 17  1  0  0  0  0
 16 18  1  0  0  0  0
 18 19  1  0  0  0  0
 20 21  1  0  0  0  0
 21 22  2  0  0  0  0
 21 43  1  0  0  0  0
 22 23  1  0  0  0  0
 23 24  2  0  0  0  0
 24 25  1  0  0  0  0
 24 44  1  0  0  0  0
 25 26  1  0  0  0  0
 26 27  1  0  0  0  0
 27 28  1  0  0  0  0
 27 45  1  0  0  0  0
 27 46  1  0  0  0  0
 28 29  1  0  0  0  0
 28 47  1  0  0  0  0
 28 48  1  0  0  0  0
 29 30  1  0  0  0  0
 29 49  1  0  0  0  0
 30 31  2  0  0  0  0
 30 32  1  0  0  0  0
 32 33  1  0  0  0  0
 32 50  1  0  0  0  0
 32 51  1  0  0  0  0
 33 34  1  0  0  0  0
 33 52  1  0  0  0  0
 33 53  1  0  0  0  0
 34 54  1  0  0  0  0
M  END
$$$$
