CHEMBL3891130
 OpenBabel04072215373D

 55 58  0  0  1  0  0  0  0  0999 V2000
    2.6237   -0.8215   -0.7589 C   0  0  0  0  0  0  0  0  0  0  0  0
    2.4079    0.0636    0.3403 O   0  0  0  0  0  0  0  0  0  0  0  0
    3.1728    1.2019    0.4068 C   0  0  0  0  0  0  0  0  0  0  0  0
    4.3129    1.4117   -0.3757 C   0  0  0  0  0  0  0  0  0  0  0  0
    5.0098    2.6451   -0.3469 C   0  0  0  0  0  0  0  0  0  0  0  0
    6.0820    2.9823   -1.1843 C   0  0  0  0  0  0  0  0  0  0  0  0
    6.4550    2.0855   -2.2074 N   0  0  0  0  0  0  0  0  0  0  0  0
    7.7475    1.8469   -2.7091 C   0  0  0  0  0  0  0  0  0  0  0  0
    8.8832    2.0291   -1.9107 C   0  0  0  0  0  0  0  0  0  0  0  0
   10.1376    1.5968   -2.3426 C   0  0  0  0  0  0  0  0  0  0  0  0
   10.2749    0.9650   -3.5815 C   0  0  0  0  0  0  0  0  0  0  0  0
   11.9963    0.2967   -4.0242 Br  0  0  0  0  0  0  0  0  0  0  0  0
    9.1626    0.8109   -4.4141 C   0  0  0  0  0  0  0  0  0  0  0  0
    9.2678    0.0685   -5.9718 Cl  0  0  0  0  0  0  0  0  0  0  0  0
    7.9133    1.2451   -3.9655 C   0  0  0  0  0  0  0  0  0  0  0  0
    6.8227    1.0759   -4.7339 F   0  0  0  0  0  0  0  0  0  0  0  0
    6.7398    4.1534   -1.0821 N   0  0  0  0  0  0  0  0  0  0  0  0
    6.3010    5.0009   -0.1488 C   0  0  0  0  0  0  0  0  0  0  0  0
    5.2882    4.7867    0.6950 N   0  0  0  0  0  0  0  0  0  0  0  0
    4.6506    3.6182    0.5787 C   0  0  0  0  0  0  0  0  0  0  0  0
    3.5711    3.3761    1.4022 C   0  0  0  0  0  0  0  0  0  0  0  0
    2.7763    2.2094    1.3002 C   0  0  0  0  0  0  0  0  0  0  0  0
    1.6058    2.0389    2.0273 O   0  0  0  0  0  0  0  0  0  0  0  0
    1.1354    3.2485    2.6528 C   0  0  0  0  0  0  0  0  0  0  0  0
   -0.2897    3.1658    3.2527 C   0  0  2  0  0  0  0  0  0  0  0  0
   -0.7742    4.6047    3.5674 C   0  0  0  0  0  0  0  0  0  0  0  0
    0.0606    5.2183    4.6157 N   0  0  0  0  0  0  0  0  0  0  0  0
   -0.3951    6.5785    4.9139 C   0  0  0  0  0  0  0  0  0  0  0  0
    0.0259    4.4065    5.8569 C   0  0  0  0  0  0  0  0  0  0  0  0
    0.2058    2.8920    5.6546 C   0  0  0  0  0  0  0  0  0  0  0  0
    0.6472    2.1871    6.5630 O   0  0  0  0  0  0  0  0  0  0  0  0
   -0.3308    2.3664    4.4840 N   0  0  0  0  0  0  0  0  0  0  0  0
   -0.6121    0.9500    4.3776 C   0  0  0  0  0  0  0  0  0  0  0  0
    3.3428   -1.5996   -0.4815 H   0  0  0  0  0  0  0  0  0  0  0  0
    2.9457   -0.3167   -1.6764 H   0  0  0  0  0  0  0  0  0  0  0  0
    1.6707   -1.3040   -0.9961 H   0  0  0  0  0  0  0  0  0  0  0  0
    4.6957    0.6253   -1.0204 H   0  0  0  0  0  0  0  0  0  0  0  0
    5.7252    1.9994   -2.9113 H   0  0  0  0  0  0  0  0  0  0  0  0
    8.7970    2.4895   -0.9269 H   0  0  0  0  0  0  0  0  0  0  0  0
   10.9934    1.7278   -1.6845 H   0  0  0  0  0  0  0  0  0  0  0  0
    6.8096    5.9552   -0.0700 H   0  0  0  0  0  0  0  0  0  0  0  0
    3.3412    4.1554    2.1149 H   0  0  0  0  0  0  0  0  0  0  0  0
    1.1084    4.0329    1.8857 H   0  0  0  0  0  0  0  0  0  0  0  0
    1.8388    3.5185    3.4494 H   0  0  0  0  0  0  0  0  0  0  0  0
   -0.9744    2.7074    2.5288 H   0  0  0  0  0  0  0  0  0  0  0  0
   -1.8271    4.5820    3.8748 H   0  0  0  0  0  0  0  0  0  0  0  0
   -0.7141    5.2102    2.6535 H   0  0  0  0  0  0  0  0  0  0  0  0
   -0.3040    7.2197    4.0308 H   0  0  0  0  0  0  0  0  0  0  0  0
    0.2220    7.0307    5.6988 H   0  0  0  0  0  0  0  0  0  0  0  0
   -1.4395    6.5998    5.2478 H   0  0  0  0  0  0  0  0  0  0  0  0
   -0.9355    4.5275    6.3727 H   0  0  0  0  0  0  0  0  0  0  0  0
    0.8255    4.7489    6.5243 H   0  0  0  0  0  0  0  0  0  0  0  0
   -0.5564    0.4602    5.3539 H   0  0  0  0  0  0  0  0  0  0  0  0
    0.0890    0.4792    3.6884 H   0  0  0  0  0  0  0  0  0  0  0  0
   -1.6347    0.8408    4.0001 H   0  0  0  0  0  0  0  0  0  0  0  0
  1  2  1  0  0  0  0
  1 34  1  0  0  0  0
  1 35  1  0  0  0  0
  1 36  1  0  0  0  0
  2  3  1  0  0  0  0
  3  4  1  0  0  0  0
  3 22  2  0  0  0  0
  4  5  2  0  0  0  0
  4 37  1  0  0  0  0
  5  6  1  0  0  0  0
  5 20  1  0  0  0  0
  6  7  1  0  0  0  0
  6 17  2  0  0  0  0
  7  8  1  0  0  0  0
  7 38  1  0  0  0  0
  8  9  1  0  0  0  0
  8 15  2  0  0  0  0
  9 10  2  0  0  0  0
  9 39  1  0  0  0  0
 10 11  1  0  0  0  0
 10 40  1  0  0  0  0
 11 12  1  0  0  0  0
 11 13  2  0  0  0  0
 13 14  1  0  0  0  0
 13 15  1  0  0  0  0
 15 16  1  0  0  0  0
 17 18  1  0  0  0  0
 18 19  2  0  0  0  0
 18 41  1  0  0  0  0
 19 20  1  0  0  0  0
 20 21  2  0  0  0  0
 21 22  1  0  0  0  0
 21 42  1  0  0  0  0
 22 23  1  0  0  0  0
 23 24  1  0  0  0  0
 24 25  1  0  0  0  0
 24 43  1  0  0  0  0
 24 44  1  0  0  0  0
 25 26  1  0  0  0  0
 25 32  1  0  0  0  0
 25 45  1  6  0  0  0
 26 27  1  0  0  0  0
 26 46  1  0  0  0  0
 26 47  1  0  0  0  0
 27 28  1  0  0  0  0
 27 29  1  0  0  0  0
 28 48  1  0  0  0  0
 28 49  1  0  0  0  0
 28 50  1  0  0  0  0
 29 30  1  0  0  0  0
 29 51  1  0  0  0  0
 29 52  1  0  0  0  0
 30 31  2  0  0  0  0
 30 32  1  0  0  0  0
 32 33  1  0  0  0  0
 33 53  1  0  0  0  0
 33 54  1  0  0  0  0
 33 55  1  0  0  0  0
M  END
$$$$
