CHEMBL4582488
 OpenBabel04072215383D

 47 50  0  0  0  0  0  0  0  0999 V2000
    2.6548    1.3650   -0.2776 O   0  0  0  0  0  0  0  0  0  0  0  0
    2.2644    0.4422    0.4306 C   0  0  0  0  0  0  0  0  0  0  0  0
    0.9213    0.1669    0.6699 N   0  0  0  0  0  0  0  0  0  0  0  0
   -0.1827    0.9193    0.1911 C   0  0  0  0  0  0  0  0  0  0  0  0
   -0.0812    1.9100   -0.7899 C   0  0  0  0  0  0  0  0  0  0  0  0
   -1.2000    2.6643   -1.1587 C   0  0  0  0  0  0  0  0  0  0  0  0
   -2.4335    2.4255   -0.5602 C   0  0  0  0  0  0  0  0  0  0  0  0
   -2.5500    1.4160    0.3935 C   0  0  0  0  0  0  0  0  0  0  0  0
   -1.4274    0.6642    0.7601 C   0  0  0  0  0  0  0  0  0  0  0  0
    3.0919   -0.4231    1.1100 N   0  0  0  0  0  0  0  0  0  0  0  0
    4.5026   -0.3392    1.1933 C   0  0  0  0  0  0  0  0  0  0  0  0
    5.2399    0.7421    0.6939 C   0  0  0  0  0  0  0  0  0  0  0  0
    6.6348    0.7637    0.7625 C   0  0  0  0  0  0  0  0  0  0  0  0
    7.3104   -0.3093    1.3277 C   0  0  0  0  0  0  0  0  0  0  0  0
    8.7863   -0.2853    1.3536 C   0  0  0  0  0  0  0  0  0  0  0  0
    9.3824    0.7198    1.7312 O   0  0  0  0  0  0  0  0  0  0  0  0
    9.3729   -1.4800    0.9619 N   0  0  0  0  0  0  0  0  0  0  0  0
   10.4427   -1.9104    1.6911 N   0  0  0  0  0  0  0  0  0  0  0  0
   10.7443   -3.1624    1.5809 C   0  0  0  0  0  0  0  0  0  0  0  0
   10.2435   -4.2072    0.5829 C   0  0  0  0  0  0  0  0  0  0  0  0
    9.7157   -3.9805   -0.4827 O   0  0  0  0  0  0  0  0  0  0  0  0
   10.3792   -5.4171    1.2345 N   0  0  0  0  0  0  0  0  0  0  0  0
   10.7773   -5.1935    2.5507 C   0  0  0  0  0  0  0  0  0  0  0  0
   10.4850   -5.9730    3.6484 C   0  0  0  0  0  0  0  0  0  0  0  0
   10.7461   -5.4215    4.9135 C   0  0  0  0  0  0  0  0  0  0  0  0
   11.3686   -4.1620    5.0482 C   0  0  0  0  0  0  0  0  0  0  0  0
   11.6846   -3.4533    6.7725 Br  0  0  0  0  0  0  0  0  0  0  0  0
   11.6481   -3.3777    3.9362 C   0  0  0  0  0  0  0  0  0  0  0  0
   11.2758   -3.9032    2.7156 C   0  0  0  0  0  0  0  0  0  0  0  0
    6.5895   -1.3723    1.8923 C   0  0  0  0  0  0  0  0  0  0  0  0
    5.1900   -1.3863    1.8214 C   0  0  0  0  0  0  0  0  0  0  0  0
    0.7170   -0.5054    1.3899 H   0  0  0  0  0  0  0  0  0  0  0  0
    0.8531    2.1303   -1.2918 H   0  0  0  0  0  0  0  0  0  0  0  0
   -1.0942    3.4422   -1.9119 H   0  0  0  0  0  0  0  0  0  0  0  0
   -3.2943    3.0293   -0.8374 H   0  0  0  0  0  0  0  0  0  0  0  0
   -3.5156    1.2272    0.8602 H   0  0  0  0  0  0  0  0  0  0  0  0
   -1.5545   -0.1085    1.5146 H   0  0  0  0  0  0  0  0  0  0  0  0
    2.6695   -1.2579    1.4940 H   0  0  0  0  0  0  0  0  0  0  0  0
    4.7639    1.6021    0.2358 H   0  0  0  0  0  0  0  0  0  0  0  0
    7.1861    1.6121    0.3639 H   0  0  0  0  0  0  0  0  0  0  0  0
    8.7716   -2.1941    0.5506 H   0  0  0  0  0  0  0  0  0  0  0  0
   10.0742   -6.2959    0.8396 H   0  0  0  0  0  0  0  0  0  0  0  0
    9.9247   -6.8981    3.5580 H   0  0  0  0  0  0  0  0  0  0  0  0
   10.3997   -5.9451    5.8028 H   0  0  0  0  0  0  0  0  0  0  0  0
   12.0130   -2.3581    4.0164 H   0  0  0  0  0  0  0  0  0  0  0  0
    7.1059   -2.1785    2.4076 H   0  0  0  0  0  0  0  0  0  0  0  0
    4.6525   -2.2230    2.2616 H   0  0  0  0  0  0  0  0  0  0  0  0
  1  2  2  0  0  0  0
  2  3  1  0  0  0  0
  2 10  1  0  0  0  0
  3  4  1  0  0  0  0
  3 32  1  0  0  0  0
  4  5  1  0  0  0  0
  4  9  2  0  0  0  0
  5  6  2  0  0  0  0
  5 33  1  0  0  0  0
  6  7  1  0  0  0  0
  6 34  1  0  0  0  0
  7  8  2  0  0  0  0
  7 35  1  0  0  0  0
  8  9  1  0  0  0  0
  8 36  1  0  0  0  0
  9 37  1  0  0  0  0
 10 11  1  0  0  0  0
 10 38  1  0  0  0  0
 11 12  1  0  0  0  0
 11 31  2  0  0  0  0
 12 13  2  0  0  0  0
 12 39  1  0  0  0  0
 13 14  1  0  0  0  0
 13 40  1  0  0  0  0
 14 15  1  0  0  0  0
 14 30  2  0  0  0  0
 15 16  2  0  0  0  0
 15 17  1  0  0  0  0
 17 18  1  0  0  0  0
 17 41  1  0  0  0  0
 18 19  2  0  0  0  0
 19 20  1  0  0  0  0
 19 29  1  0  0  0  0
 20 21  2  0  0  0  0
 20 22  1  0  0  0  0
 22 23  1  0  0  0  0
 22 42  1  0  0  0  0
 23 24  1  0  0  0  0
 23 29  2  0  0  0  0
 24 25  2  0  0  0  0
 24 43  1  0  0  0  0
 25 26  1  0  0  0  0
 25 44  1  0  0  0  0
 26 27  1  0  0  0  0
 26 28  2  0  0  0  0
 28 29  1  0  0  0  0
 28 45  1  0  0  0  0
 30 31  1  0  0  0  0
 30 46  1  0  0  0  0
 31 47  1  0  0  0  0
M  END
$$$$
