CHEMBL249192
 OpenBabel04072215363D

 55 58  0  0  0  0  0  0  0  0999 V2000
    0.1327    4.0569    0.6881 C   0  0  0  0  0  0  0  0  0  0  0  0
    0.8405    2.7209    0.8355 C   0  0  0  0  0  0  0  0  0  0  0  0
    2.2460    2.9823    0.9438 O   0  0  0  0  0  0  0  0  0  0  0  0
    2.8952    3.0714   -0.2492 C   0  0  0  0  0  0  0  0  0  0  0  0
    2.4606    2.6426   -1.3118 O   0  0  0  0  0  0  0  0  0  0  0  0
    4.1018    3.8641   -0.1721 C   0  0  0  0  0  0  0  0  0  0  0  0
    4.6914    4.4320    0.9372 C   0  0  0  0  0  0  0  0  0  0  0  0
    5.7552    5.2063    0.5788 O   0  0  0  0  0  0  0  0  0  0  0  0
    5.8651    5.1328   -0.7814 C   0  0  0  0  0  0  0  0  0  0  0  0
    6.8984    5.9224   -1.4420 C   0  0  0  0  0  0  0  0  0  0  0  0
    7.0133    5.8225   -2.8375 C   0  0  0  0  0  0  0  0  0  0  0  0
    7.9753    6.5450   -3.5286 C   0  0  0  0  0  0  0  0  0  0  0  0
    8.8280    7.3897   -2.8336 C   0  0  0  0  0  0  0  0  0  0  0  0
    8.7357    7.5373   -1.4454 C   0  0  0  0  0  0  0  0  0  0  0  0
    9.5652    8.4240   -0.7150 N   0  0  0  0  0  0  0  0  0  0  0  0
   10.5657    9.2225   -1.2422 C   0  0  0  0  0  0  0  0  0  0  0  0
   10.9351    9.2582   -2.4116 O   0  0  0  0  0  0  0  0  0  0  0  0
   11.2411   10.1527   -0.3073 C   0  0  0  0  0  0  0  0  0  0  0  0
   11.6920   11.3668   -0.8546 C   0  0  0  0  0  0  0  0  0  0  0  0
   12.3140   12.3051   -0.0476 C   0  0  0  0  0  0  0  0  0  0  0  0
   12.4674   11.9898    1.2856 C   0  0  0  0  0  0  0  0  0  0  0  0
   12.0924   10.8073    1.8297 N   0  0  0  0  0  0  0  0  0  0  0  0
   11.5105    9.8712    1.0383 C   0  0  0  0  0  0  0  0  0  0  0  0
   11.1301    8.6387    1.6263 N   0  0  0  0  0  0  0  0  0  0  0  0
   11.9216    8.3355    2.8247 C   0  0  0  0  0  0  0  0  0  0  0  0
   11.4299    7.0569    3.4612 C   0  0  0  0  0  0  0  0  0  0  0  0
   12.2578    5.9355    3.5806 C   0  0  0  0  0  0  0  0  0  0  0  0
   11.7715    4.8168    4.2419 C   0  0  0  0  0  0  0  0  0  0  0  0
   10.5363    4.7391    4.7801 N   0  0  0  0  0  0  0  0  0  0  0  0
    9.7494    5.8278    4.6478 C   0  0  0  0  0  0  0  0  0  0  0  0
   10.1439    6.9909    4.0063 C   0  0  0  0  0  0  0  0  0  0  0  0
    7.7660    6.7891   -0.7515 C   0  0  0  0  0  0  0  0  0  0  0  0
    4.8885    4.2882   -1.2714 C   0  0  0  0  0  0  0  0  0  0  0  0
   -0.9518    3.9323    0.6560 H   0  0  0  0  0  0  0  0  0  0  0  0
    0.4551    4.5696   -0.2252 H   0  0  0  0  0  0  0  0  0  0  0  0
    0.3932    4.7166    1.5231 H   0  0  0  0  0  0  0  0  0  0  0  0
    0.6024    2.0491    0.0027 H   0  0  0  0  0  0  0  0  0  0  0  0
    0.5223    2.2231    1.7561 H   0  0  0  0  0  0  0  0  0  0  0  0
    4.4661    4.4137    1.9953 H   0  0  0  0  0  0  0  0  0  0  0  0
    6.3525    5.1819   -3.4131 H   0  0  0  0  0  0  0  0  0  0  0  0
    8.0545    6.4606   -4.6093 H   0  0  0  0  0  0  0  0  0  0  0  0
    9.5540    7.9392   -3.4233 H   0  0  0  0  0  0  0  0  0  0  0  0
    9.3724    8.5117    0.2804 H   0  0  0  0  0  0  0  0  0  0  0  0
   11.5521   11.5775   -1.9139 H   0  0  0  0  0  0  0  0  0  0  0  0
   12.6566   13.2521   -0.4489 H   0  0  0  0  0  0  0  0  0  0  0  0
   12.9132   12.6993    1.9769 H   0  0  0  0  0  0  0  0  0  0  0  0
   11.2710    7.8881    0.9503 H   0  0  0  0  0  0  0  0  0  0  0  0
   11.8584    9.1248    3.5842 H   0  0  0  0  0  0  0  0  0  0  0  0
   12.9769    8.2214    2.5423 H   0  0  0  0  0  0  0  0  0  0  0  0
   13.2687    5.9275    3.1866 H   0  0  0  0  0  0  0  0  0  0  0  0
   12.3852    3.9289    4.3689 H   0  0  0  0  0  0  0  0  0  0  0  0
    8.7631    5.7431    5.0945 H   0  0  0  0  0  0  0  0  0  0  0  0
    9.4685    7.8382    3.9451 H   0  0  0  0  0  0  0  0  0  0  0  0
    7.6757    6.8837    0.3243 H   0  0  0  0  0  0  0  0  0  0  0  0
    4.7093    4.0402   -2.3082 H   0  0  0  0  0  0  0  0  0  0  0  0
  1  2  1  0  0  0  0
  1 34  1  0  0  0  0
  1 35  1  0  0  0  0
  1 36  1  0  0  0  0
  2  3  1  0  0  0  0
  2 37  1  0  0  0  0
  2 38  1  0  0  0  0
  3  4  1  0  0  0  0
  4  5  2  0  0  0  0
  4  6  1  0  0  0  0
  6  7  2  0  0  0  0
  6 33  1  0  0  0  0
  7  8  1  0  0  0  0
  7 39  1  0  0  0  0
  8  9  1  0  0  0  0
  9 10  1  0  0  0  0
  9 33  2  0  0  0  0
 10 11  1  0  0  0  0
 10 32  2  0  0  0  0
 11 12  2  0  0  0  0
 11 40  1  0  0  0  0
 12 13  1  0  0  0  0
 12 41  1  0  0  0  0
 13 14  2  0  0  0  0
 13 42  1  0  0  0  0
 14 15  1  0  0  0  0
 14 32  1  0  0  0  0
 15 16  1  0  0  0  0
 15 43  1  0  0  0  0
 16 17  2  0  0  0  0
 16 18  1  0  0  0  0
 18 19  1  0  0  0  0
 18 23  2  0  0  0  0
 19 20  2  0  0  0  0
 19 44  1  0  0  0  0
 20 21  1  0  0  0  0
 20 45  1  0  0  0  0
 21 22  2  0  0  0  0
 21 46  1  0  0  0  0
 22 23  1  0  0  0  0
 23 24  1  0  0  0  0
 24 25  1  0  0  0  0
 24 47  1  0  0  0  0
 25 26  1  0  0  0  0
 25 48  1  0  0  0  0
 25 49  1  0  0  0  0
 26 27  1  0  0  0  0
 26 31  2  0  0  0  0
 27 28  2  0  0  0  0
 27 50  1  0  0  0  0
 28 29  1  0  0  0  0
 28 51  1  0  0  0  0
 29 30  2  0  0  0  0
 30 31  1  0  0  0  0
 30 52  1  0  0  0  0
 31 53  1  0  0  0  0
 32 54  1  0  0  0  0
 33 55  1  0  0  0  0
M  END
$$$$
