CHEMBL2086735
 OpenBabel04072215363D

 41 45  0  0  0  0  0  0  0  0999 V2000
    1.5350    0.0912    0.2238 O   0  0  0  0  0  0  0  0  0  0  0  0
    2.7295   -0.1381    0.2243 C   0  0  0  0  0  0  0  0  0  0  0  0
    3.7142    0.8339    0.2252 N   0  0  0  0  0  0  0  0  0  0  0  0
    4.9850    0.2776    0.1674 C   0  0  0  0  0  0  0  0  0  0  0  0
    6.1901    0.9630    0.1150 C   0  0  0  0  0  0  0  0  0  0  0  0
    6.2683    2.8488    0.1666 Br  0  0  0  0  0  0  0  0  0  0  0  0
    7.3650    0.2226    0.0081 C   0  0  0  0  0  0  0  0  0  0  0  0
    7.3043   -1.1739   -0.0875 C   0  0  0  0  0  0  0  0  0  0  0  0
    6.0750   -1.8441   -0.0532 C   0  0  0  0  0  0  0  0  0  0  0  0
    4.9071   -1.1205    0.1250 C   0  0  0  0  0  0  0  0  0  0  0  0
    3.4706   -1.4769    0.2221 C   0  0  0  0  0  0  0  0  0  0  0  0
    2.8338   -2.6712    0.3221 C   0  0  0  0  0  0  0  0  0  0  0  0
    1.3451   -2.6972    0.3007 C   0  0  0  0  0  0  0  0  0  0  0  0
    0.6697   -2.8263   -0.9243 C   0  0  0  0  0  0  0  0  0  0  0  0
   -0.7168   -2.9640   -0.9493 C   0  0  0  0  0  0  0  0  0  0  0  0
   -1.4352   -2.9559    0.2439 C   0  0  0  0  0  0  0  0  0  0  0  0
   -0.7720   -2.8170    1.4640 C   0  0  0  0  0  0  0  0  0  0  0  0
    0.6186   -2.6974    1.4967 C   0  0  0  0  0  0  0  0  0  0  0  0
    3.5389   -3.9238    0.4136 C   0  0  0  0  0  0  0  0  0  0  0  0
    4.6887   -4.2911    0.9547 N   0  0  0  0  0  0  0  0  0  0  0  0
    4.8534   -5.6283    0.6517 C   0  0  0  0  0  0  0  0  0  0  0  0
    5.9200   -6.5026    0.9151 C   0  0  0  0  0  0  0  0  0  0  0  0
    5.8310   -7.8266    0.4551 C   0  0  0  0  0  0  0  0  0  0  0  0
    4.7066   -8.2717   -0.2462 C   0  0  0  0  0  0  0  0  0  0  0  0
    3.6323   -7.4176   -0.5041 C   0  0  0  0  0  0  0  0  0  0  0  0
    3.7530   -6.1095   -0.0375 C   0  0  0  0  0  0  0  0  0  0  0  0
    2.9120   -5.0369   -0.1094 N   0  0  0  0  0  0  0  0  0  0  0  0
    3.5059    1.8212    0.2231 H   0  0  0  0  0  0  0  0  0  0  0  0
    8.3335    0.7149   -0.0189 H   0  0  0  0  0  0  0  0  0  0  0  0
    8.2203   -1.7514   -0.1943 H   0  0  0  0  0  0  0  0  0  0  0  0
    6.0743   -2.9186   -0.1774 H   0  0  0  0  0  0  0  0  0  0  0  0
    1.2232   -2.8292   -1.8609 H   0  0  0  0  0  0  0  0  0  0  0  0
   -1.2352   -3.0698   -1.8980 H   0  0  0  0  0  0  0  0  0  0  0  0
   -2.5191   -3.0453    0.2258 H   0  0  0  0  0  0  0  0  0  0  0  0
   -1.3378   -2.7958    2.3913 H   0  0  0  0  0  0  0  0  0  0  0  0
    1.1267   -2.5969    2.4530 H   0  0  0  0  0  0  0  0  0  0  0  0
    6.7960   -6.1571    1.4524 H   0  0  0  0  0  0  0  0  0  0  0  0
    6.6498   -8.5172    0.6441 H   0  0  0  0  0  0  0  0  0  0  0  0
    4.6633   -9.3005   -0.5990 H   0  0  0  0  0  0  0  0  0  0  0  0
    2.7564   -7.7543   -1.0479 H   0  0  0  0  0  0  0  0  0  0  0  0
    1.9862   -5.0553   -0.5097 H   0  0  0  0  0  0  0  0  0  0  0  0
  1  2  2  0  0  0  0
  2  3  1  0  0  0  0
  2 11  1  0  0  0  0
  3  4  1  0  0  0  0
  3 28  1  0  0  0  0
  4  5  1  0  0  0  0
  4 10  2  0  0  0  0
  5  6  1  0  0  0  0
  5  7  2  0  0  0  0
  7  8  1  0  0  0  0
  7 29  1  0  0  0  0
  8  9  2  0  0  0  0
  8 30  1  0  0  0  0
  9 10  1  0  0  0  0
  9 31  1  0  0  0  0
 10 11  1  0  0  0  0
 11 12  2  3  0  0  0
 12 13  1  0  0  0  0
 12 19  1  0  0  0  0
 13 14  1  0  0  0  0
 13 18  2  0  0  0  0
 14 15  2  0  0  0  0
 14 32  1  0  0  0  0
 15 16  1  0  0  0  0
 15 33  1  0  0  0  0
 16 17  2  0  0  0  0
 16 34  1  0  0  0  0
 17 18  1  0  0  0  0
 17 35  1  0  0  0  0
 18 36  1  0  0  0  0
 19 20  2  0  0  0  0
 19 27  1  0  0  0  0
 20 21  1  0  0  0  0
 21 22  1  0  0  0  0
 21 26  2  0  0  0  0
 22 23  2  0  0  0  0
 22 37  1  0  0  0  0
 23 24  1  0  0  0  0
 23 38  1  0  0  0  0
 24 25  2  0  0  0  0
 24 39  1  0  0  0  0
 25 26  1  0  0  0  0
 25 40  1  0  0  0  0
 26 27  1  0  0  0  0
 27 41  1  0  0  0  0
M  END
$$$$
