CHEMBL4088100
 OpenBabel04072215383D

 48 51  0  0  0  0  0  0  0  0999 V2000
    1.6351   -0.5545    1.7366 N   0  0  0  0  0  0  0  0  0  0  0  0
    2.8255   -0.4824    1.0447 C   0  0  0  0  0  0  0  0  0  0  0  0
    3.2846   -1.6086    0.4995 N   0  0  0  0  0  0  0  0  0  0  0  0
    4.4391   -1.5072   -0.1880 C   0  0  0  0  0  0  0  0  0  0  0  0
    5.1537   -0.3265   -0.3261 C   0  0  0  0  0  0  0  0  0  0  0  0
    6.3574   -0.2187   -1.0478 C   0  0  0  0  0  0  0  0  0  0  0  0
    7.0399    0.9957   -1.0764 C   0  0  0  0  0  0  0  0  0  0  0  0
    6.5473    2.1125   -0.3883 C   0  0  0  0  0  0  0  0  0  0  0  0
    7.3345    3.3509   -0.2653 C   0  0  0  0  0  0  0  0  0  0  0  0
    8.1845    3.8360   -1.2750 C   0  0  0  0  0  0  0  0  0  0  0  0
    8.9526    4.9953   -1.0900 C   0  0  0  0  0  0  0  0  0  0  0  0
    8.8783    5.7201    0.1032 C   0  0  0  0  0  0  0  0  0  0  0  0
    9.5941    6.9323    0.1779 N   0  0  0  0  0  0  0  0  0  0  0  0
    9.4418    8.0296    1.0278 C   0  0  0  0  0  0  0  0  0  0  0  0
    8.3101    8.2480    2.2529 S   0  0  0  0  0  0  0  0  0  0  0  0
   10.3144    9.0537    0.6136 N   0  0  0  0  0  0  0  0  0  0  0  0
   10.7070   10.1157    1.4737 C   0  0  0  0  0  0  0  0  0  0  0  0
   11.1697    9.8112    2.7667 C   0  0  0  0  0  0  0  0  0  0  0  0
   11.4626   10.8260    3.6710 C   0  0  0  0  0  0  0  0  0  0  0  0
   11.9135   10.6717    4.9473 O   0  0  0  0  0  0  0  0  0  0  0  0
   12.4019    9.4093    5.3753 C   0  0  0  0  0  0  0  0  0  0  0  0
   13.0135    8.7161    4.3910 F   0  0  0  0  0  0  0  0  0  0  0  0
   13.3191    9.6217    6.3477 F   0  0  0  0  0  0  0  0  0  0  0  0
   11.4023    8.6677    5.8937 F   0  0  0  0  0  0  0  0  0  0  0  0
   11.2746   12.1540    3.2752 C   0  0  0  0  0  0  0  0  0  0  0  0
   10.8794   12.4680    1.9733 C   0  0  0  0  0  0  0  0  0  0  0  0
   10.6229   11.4479    1.0585 C   0  0  0  0  0  0  0  0  0  0  0  0
   10.0736   11.9125   -0.6962 Br  0  0  0  0  0  0  0  0  0  0  0  0
    8.0906    5.2135    1.1242 C   0  0  0  0  0  0  0  0  0  0  0  0
    7.3220    4.0617    0.9432 C   0  0  0  0  0  0  0  0  0  0  0  0
    5.2977    1.9749    0.2627 C   0  0  0  0  0  0  0  0  0  0  0  0
    4.5955    0.7758    0.3186 C   0  0  0  0  0  0  0  0  0  0  0  0
    3.4460    0.7005    1.0028 N   0  0  0  0  0  0  0  0  0  0  0  0
    1.4674   -1.5046    2.0348 H   0  0  0  0  0  0  0  0  0  0  0  0
    1.5955    0.1712    2.4370 H   0  0  0  0  0  0  0  0  0  0  0  0
    4.7908   -2.4360   -0.6231 H   0  0  0  0  0  0  0  0  0  0  0  0
    6.7745   -1.0799   -1.5635 H   0  0  0  0  0  0  0  0  0  0  0  0
    7.9914    1.0442   -1.6029 H   0  0  0  0  0  0  0  0  0  0  0  0
    8.2454    3.3231   -2.2325 H   0  0  0  0  0  0  0  0  0  0  0  0
    9.5861    5.3336   -1.9084 H   0  0  0  0  0  0  0  0  0  0  0  0
   10.2977    7.0650   -0.5377 H   0  0  0  0  0  0  0  0  0  0  0  0
   10.1317    9.3446   -0.3405 H   0  0  0  0  0  0  0  0  0  0  0  0
   11.2657    8.7662    3.0414 H   0  0  0  0  0  0  0  0  0  0  0  0
   11.4456   12.9576    3.9918 H   0  0  0  0  0  0  0  0  0  0  0  0
   10.7563   13.5104    1.6920 H   0  0  0  0  0  0  0  0  0  0  0  0
    8.0497    5.6533    2.1130 H   0  0  0  0  0  0  0  0  0  0  0  0
    6.7189    3.7228    1.7856 H   0  0  0  0  0  0  0  0  0  0  0  0
    4.8588    2.8264    0.7788 H   0  0  0  0  0  0  0  0  0  0  0  0
  1  2  1  0  0  0  0
  1 34  1  0  0  0  0
  1 35  1  0  0  0  0
  2  3  1  0  0  0  0
  2 33  2  0  0  0  0
  3  4  2  0  0  0  0
  4  5  1  0  0  0  0
  4 36  1  0  0  0  0
  5  6  1  0  0  0  0
  5 32  2  0  0  0  0
  6  7  2  0  0  0  0
  6 37  1  0  0  0  0
  7  8  1  0  0  0  0
  7 38  1  0  0  0  0
  8  9  1  0  0  0  0
  8 31  2  0  0  0  0
  9 10  1  0  0  0  0
  9 30  2  0  0  0  0
 10 11  2  0  0  0  0
 10 39  1  0  0  0  0
 11 12  1  0  0  0  0
 11 40  1  0  0  0  0
 12 13  1  0  0  0  0
 12 29  2  0  0  0  0
 13 14  1  0  0  0  0
 13 41  1  0  0  0  0
 14 15  2  0  0  0  0
 14 16  1  0  0  0  0
 16 17  1  0  0  0  0
 16 42  1  0  0  0  0
 17 18  1  0  0  0  0
 17 27  2  0  0  0  0
 18 19  2  0  0  0  0
 18 43  1  0  0  0  0
 19 20  1  0  0  0  0
 19 25  1  0  0  0  0
 20 21  1  0  0  0  0
 21 22  1  0  0  0  0
 21 23  1  0  0  0  0
 21 24  1  0  0  0  0
 25 26  2  0  0  0  0
 25 44  1  0  0  0  0
 26 27  1  0  0  0  0
 26 45  1  0  0  0  0
 27 28  1  0  0  0  0
 29 30  1  0  0  0  0
 29 46  1  0  0  0  0
 30 47  1  0  0  0  0
 31 32  1  0  0  0  0
 31 48  1  0  0  0  0
 32 33  1  0  0  0  0
M  END
$$$$
