CHEMBL4470400
 OpenBabel04072215383D

 44 47  0  0  0  0  0  0  0  0999 V2000
    2.5953   -0.9384   -1.2578 C   0  0  0  0  0  0  0  0  0  0  0  0
    2.4510   -0.0158   -0.1814 O   0  0  0  0  0  0  0  0  0  0  0  0
    3.0840    1.1849   -0.4272 C   0  0  0  0  0  0  0  0  0  0  0  0
    2.9842    2.1557    0.5528 C   0  0  0  0  0  0  0  0  0  0  0  0
    3.6379    3.3724    0.3510 C   0  0  0  0  0  0  0  0  0  0  0  0
    4.3923    3.5970   -0.8124 C   0  0  0  0  0  0  0  0  0  0  0  0
    5.1416    4.8469   -1.0464 C   0  0  0  0  0  0  0  0  0  0  0  0
    5.7432    5.5500    0.0107 C   0  0  0  0  0  0  0  0  0  0  0  0
    6.4807    6.7179   -0.2147 C   0  0  0  0  0  0  0  0  0  0  0  0
    6.6439    7.2209   -1.5068 C   0  0  0  0  0  0  0  0  0  0  0  0
    7.4776    8.4544   -1.7535 C   0  0  0  0  0  0  0  0  0  0  0  0
    8.8839    8.1287   -1.9047 N   0  0  0  0  0  0  0  0  0  0  0  0
    9.4694    7.3512   -2.8612 C   0  0  0  0  0  0  0  0  0  0  0  0
   10.8045    7.3662   -2.5285 C   0  0  0  0  0  0  0  0  0  0  0  0
   11.8647    6.6380   -3.1954 C   0  0  0  0  0  0  0  0  0  0  0  0
   13.1777    7.1248   -3.1606 C   0  0  0  0  0  0  0  0  0  0  0  0
   14.2117    6.4219   -3.7847 C   0  0  0  0  0  0  0  0  0  0  0  0
   13.9443    5.2221   -4.4416 C   0  0  0  0  0  0  0  0  0  0  0  0
   12.6433    4.7250   -4.4793 C   0  0  0  0  0  0  0  0  0  0  0  0
   11.6078    5.4302   -3.8620 C   0  0  0  0  0  0  0  0  0  0  0  0
   10.9885    8.1934   -1.4499 N   0  0  0  0  0  0  0  0  0  0  0  0
    9.8022    8.6573   -1.0750 N   0  0  0  0  0  0  0  0  0  0  0  0
    6.0496    6.5331   -2.5714 C   0  0  0  0  0  0  0  0  0  0  0  0
    5.3098    5.3699   -2.3421 C   0  0  0  0  0  0  0  0  0  0  0  0
    4.4083    2.5405   -1.7272 C   0  0  0  0  0  0  0  0  0  0  0  0
    3.7733    1.3551   -1.5713 N   0  0  0  0  0  0  0  0  0  0  0  0
    2.1572   -1.8910   -0.9457 H   0  0  0  0  0  0  0  0  0  0  0  0
    3.6486   -1.1258   -1.4960 H   0  0  0  0  0  0  0  0  0  0  0  0
    2.0500   -0.5893   -2.1412 H   0  0  0  0  0  0  0  0  0  0  0  0
    2.4148    1.9696    1.4563 H   0  0  0  0  0  0  0  0  0  0  0  0
    3.5491    4.1411    1.1148 H   0  0  0  0  0  0  0  0  0  0  0  0
    5.6684    5.1828    1.0321 H   0  0  0  0  0  0  0  0  0  0  0  0
    6.9437    7.2194    0.6368 H   0  0  0  0  0  0  0  0  0  0  0  0
    7.3692    9.1625   -0.9236 H   0  0  0  0  0  0  0  0  0  0  0  0
    7.1629    8.9698   -2.6680 H   0  0  0  0  0  0  0  0  0  0  0  0
    8.9096    6.8615   -3.6426 H   0  0  0  0  0  0  0  0  0  0  0  0
   13.4031    8.0576   -2.6472 H   0  0  0  0  0  0  0  0  0  0  0  0
   15.2267    6.8096   -3.7518 H   0  0  0  0  0  0  0  0  0  0  0  0
   14.7508    4.6710   -4.9186 H   0  0  0  0  0  0  0  0  0  0  0  0
   12.4345    3.7841   -4.9819 H   0  0  0  0  0  0  0  0  0  0  0  0
   10.6052    5.0113   -3.8874 H   0  0  0  0  0  0  0  0  0  0  0  0
    6.1669    6.8872   -3.5945 H   0  0  0  0  0  0  0  0  0  0  0  0
    4.8608    4.8757   -3.2023 H   0  0  0  0  0  0  0  0  0  0  0  0
    4.9748    2.6052   -2.6524 H   0  0  0  0  0  0  0  0  0  0  0  0
  1  2  1  0  0  0  0
  1 27  1  0  0  0  0
  1 28  1  0  0  0  0
  1 29  1  0  0  0  0
  2  3  1  0  0  0  0
  3  4  1  0  0  0  0
  3 26  2  0  0  0  0
  4  5  2  0  0  0  0
  4 30  1  0  0  0  0
  5  6  1  0  0  0  0
  5 31  1  0  0  0  0
  6  7  1  0  0  0  0
  6 25  2  0  0  0  0
  7  8  1  0  0  0  0
  7 24  2  0  0  0  0
  8  9  2  0  0  0  0
  8 32  1  0  0  0  0
  9 10  1  0  0  0  0
  9 33  1  0  0  0  0
 10 11  1  0  0  0  0
 10 23  2  0  0  0  0
 11 12  1  0  0  0  0
 11 34  1  0  0  0  0
 11 35  1  0  0  0  0
 12 13  1  0  0  0  0
 12 22  1  0  0  0  0
 13 14  2  0  0  0  0
 13 36  1  0  0  0  0
 14 15  1  0  0  0  0
 14 21  1  0  0  0  0
 15 16  1  0  0  0  0
 15 20  2  0  0  0  0
 16 17  2  0  0  0  0
 16 37  1  0  0  0  0
 17 18  1  0  0  0  0
 17 38  1  0  0  0  0
 18 19  2  0  0  0  0
 18 39  1  0  0  0  0
 19 20  1  0  0  0  0
 19 40  1  0  0  0  0
 20 41  1  0  0  0  0
 21 22  2  0  0  0  0
 23 24  1  0  0  0  0
 23 42  1  0  0  0  0
 24 43  1  0  0  0  0
 25 26  1  0  0  0  0
 25 44  1  0  0  0  0
M  END
$$$$
