CHEMBL3900574
 OpenBabel04072215373D

 56 59  0  0  1  0  0  0  0  0999 V2000
    0.8607   -1.7557    4.0722 C   0  0  0  0  0  0  0  0  0  0  0  0
    2.1965   -1.3818    4.3545 O   0  0  0  0  0  0  0  0  0  0  0  0
    2.9749   -1.1558    3.2584 C   0  0  0  0  0  0  0  0  0  0  0  0
    2.6305   -1.2438    1.9642 C   0  0  0  0  0  0  0  0  0  0  0  0
    3.5104   -0.8191    0.9673 C   0  0  0  0  0  0  0  0  0  0  0  0
    3.1642   -0.8113   -0.3543 O   0  0  0  0  0  0  0  0  0  0  0  0
    1.8383   -1.2702   -0.6054 C   0  0  0  0  0  0  0  0  0  0  0  0
    4.7852   -0.3251    1.2766 C   0  0  0  0  0  0  0  0  0  0  0  0
    5.1798   -0.1376    2.5902 C   0  0  0  0  0  0  0  0  0  0  0  0
    6.4584    0.4808    2.8924 N   0  0  0  0  0  0  0  0  0  0  0  0
    7.0051    1.4918    1.9094 C   0  0  0  0  0  0  0  0  0  0  0  0
    6.1317    2.7193    1.6637 C   0  0  3  0  0  0  0  0  0  0  0  0
    5.9103    3.4744    2.9117 O   0  0  0  0  0  0  0  0  0  0  0  0
    6.6464    3.7433    0.7352 C   0  0  0  0  0  0  0  0  0  0  0  0
    7.8477    3.3247    0.2954 F   0  0  0  0  0  0  0  0  0  0  0  0
    5.8124    3.9423   -0.2940 F   0  0  0  0  0  0  0  0  0  0  0  0
    6.8032    4.9131    1.4017 F   0  0  0  0  0  0  0  0  0  0  0  0
    7.5153   -0.1488    3.7110 C   0  0  0  0  0  0  0  0  0  0  0  0
    8.3007    0.7281    4.4029 C   0  0  0  0  0  0  0  0  0  0  0  0
    9.2658    0.1809    5.1353 C   0  0  0  0  0  0  0  0  0  0  0  0
    9.6789   -1.1463    5.1597 C   0  0  0  0  0  0  0  0  0  0  0  0
   10.9097   -1.0093    5.1817 N   0  0  0  0  0  0  0  0  0  0  0  0
   11.2985   -1.0238    6.3982 C   0  0  0  0  0  0  0  0  0  0  0  0
   11.5941   -2.2148    6.7711 C   0  0  0  0  0  0  0  0  0  0  0  0
   13.1132   -1.6894    7.6660 C   0  0  0  0  0  0  0  0  0  0  0  0
   13.7581   -0.5072    8.4470 C   0  0  0  0  0  0  0  0  0  0  0  0
   14.8211   -0.7310    9.2952 N   0  0  0  0  0  0  0  0  0  0  0  0
   15.0075   -2.0545    9.3192 N   0  0  0  0  0  0  0  0  0  0  0  0
   16.0514   -2.6730   10.2251 C   0  0  0  0  0  0  0  0  0  0  0  0
   14.0192   -2.6435    8.4132 C   0  0  0  0  0  0  0  0  0  0  0  0
   10.4891   -3.0750    5.8977 N   0  0  0  0  0  0  0  0  0  0  0  0
    9.2245   -2.3425    4.9029 C   0  0  0  0  0  0  0  0  0  0  0  0
    7.9222   -1.6179    3.8780 C   0  0  0  0  0  0  0  0  0  0  0  0
    4.2311   -0.6702    3.4974 C   0  0  0  0  0  0  0  0  0  0  0  0
    0.3079   -1.8029    5.0149 H   0  0  0  0  0  0  0  0  0  0  0  0
    0.8503   -2.7467    3.6127 H   0  0  0  0  0  0  0  0  0  0  0  0
    0.3569   -1.0254    3.4372 H   0  0  0  0  0  0  0  0  0  0  0  0
    1.6612   -1.6370    1.7535 H   0  0  0  0  0  0  0  0  0  0  0  0
    1.6646   -1.2171   -1.6770 H   0  0  0  0  0  0  0  0  0  0  0  0
    1.0876   -0.6394   -0.1077 H   0  0  0  0  0  0  0  0  0  0  0  0
    1.7260   -2.3159   -0.2923 H   0  0  0  0  0  0  0  0  0  0  0  0
    5.4714   -0.0812    0.4749 H   0  0  0  0  0  0  0  0  0  0  0  0
    7.2286    1.0407    0.9281 H   0  0  0  0  0  0  0  0  0  0  0  0
    7.9252    1.8514    2.3584 H   0  0  0  0  0  0  0  0  0  0  0  0
    5.2265    2.3579    1.1232 H   0  0  0  0  0  0  0  0  0  0  0  0
    6.7248    3.5348    3.4356 H   0  0  0  0  0  0  0  0  0  0  0  0
    8.3166    1.8037    4.3529 H   0  0  0  0  0  0  0  0  0  0  0  0
    9.9921    0.8599    5.6653 H   0  0  0  0  0  0  0  0  0  0  0  0
   11.7462   -0.1185    6.6673 H   0  0  0  0  0  0  0  0  0  0  0  0
   13.5398    0.5532    8.4740 H   0  0  0  0  0  0  0  0  0  0  0  0
   16.7147   -1.9382   10.7412 H   0  0  0  0  0  0  0  0  0  0  0  0
   16.7271   -3.3418    9.6691 H   0  0  0  0  0  0  0  0  0  0  0  0
   15.5776   -3.2563   11.0300 H   0  0  0  0  0  0  0  0  0  0  0  0
   14.1108   -3.7174    8.4427 H   0  0  0  0  0  0  0  0  0  0  0  0
    7.2921   -2.1735    3.1162 H   0  0  0  0  0  0  0  0  0  0  0  0
    4.3163   -0.8589    4.5380 H   0  0  0  0  0  0  0  0  0  0  0  0
  1  2  1  0  0  0  0
  1 35  1  0  0  0  0
  1 36  1  0  0  0  0
  1 37  1  0  0  0  0
  2  3  1  0  0  0  0
  3  4  1  0  0  0  0
  3 34  2  0  0  0  0
  4  5  2  0  0  0  0
  4 38  1  0  0  0  0
  5  6  1  0  0  0  0
  5  8  1  0  0  0  0
  6  7  1  0  0  0  0
  7 39  1  0  0  0  0
  7 40  1  0  0  0  0
  7 41  1  0  0  0  0
  8  9  2  0  0  0  0
  8 42  1  0  0  0  0
  9 10  1  0  0  0  0
  9 34  1  0  0  0  0
 10 11  1  0  0  0  0
 10 18  1  0  0  0  0
 11 12  1  0  0  0  0
 11 43  1  0  0  0  0
 11 44  1  0  0  0  0
 12 13  1  0  0  0  0
 12 14  1  0  0  0  0
 12 45  1  0  0  0  0
 13 46  1  0  0  0  0
 14 15  1  0  0  0  0
 14 16  1  0  0  0  0
 14 17  1  0  0  0  0
 18 19  1  0  0  0  0
 18 33  2  0  0  0  0
 19 20  2  0  0  0  0
 19 47  1  0  0  0  0
 20 21  1  0  0  0  0
 20 48  1  0  0  0  0
 21 22  1  0  0  0  0
 21 32  2  0  0  0  0
 22 23  2  0  0  0  0
 23 24  1  0  0  0  0
 23 49  1  0  0  0  0
 24 25  1  0  0  0  0
 24 31  2  0  0  0  0
 25 26  1  0  0  0  0
 25 30  2  0  0  0  0
 26 27  2  0  0  0  0
 26 50  1  0  0  0  0
 27 28  1  0  0  0  0
 28 29  1  0  0  0  0
 28 30  1  0  0  0  0
 29 51  1  0  0  0  0
 29 52  1  0  0  0  0
 29 53  1  0  0  0  0
 30 54  1  0  0  0  0
 31 32  1  0  0  0  0
 32 33  1  0  0  0  0
 33 55  1  0  0  0  0
 34 56  1  0  0  0  0
M  END
$$$$
