CHEMBL1241588
 OpenBabel04072215363D

 40 43  0  0  0  0  0  0  0  0999 V2000
    2.9207   -0.0908    1.4115 C   0  0  0  0  0  0  0  0  0  0  0  0
    2.5954    0.0753   -0.0721 C   0  0  0  0  0  0  0  0  0  0  0  0
    1.1012   -0.1516   -0.3242 C   0  0  0  0  0  0  0  0  0  0  0  0
    3.0370    1.3678   -0.5760 N   0  0  0  0  0  0  0  0  0  0  0  0
    2.4982    2.4980   -0.0836 N   0  0  0  0  0  0  0  0  0  0  0  0
    3.0428    3.4841   -0.8258 C   0  0  0  0  0  0  0  0  0  0  0  0
    2.5330    4.8538   -0.6851 C   0  0  0  0  0  0  0  0  0  0  0  0
    3.3358    5.9800   -0.8600 C   0  0  0  0  0  0  0  0  0  0  0  0
    2.7539    7.2483   -0.9791 C   0  0  0  0  0  0  0  0  0  0  0  0
    1.3735    7.4016   -0.8496 C   0  0  0  0  0  0  0  0  0  0  0  0
    0.5856    6.3018   -0.5243 C   0  0  0  0  0  0  0  0  0  0  0  0
    1.1590    5.0356   -0.4474 C   0  0  0  0  0  0  0  0  0  0  0  0
   -0.7555    6.3814   -0.2743 O   0  0  0  0  0  0  0  0  0  0  0  0
   -1.3339    7.5453   -0.8586 C   0  0  0  0  0  0  0  0  0  0  0  0
   -0.4895    8.7942   -0.6737 C   0  0  0  0  0  0  0  0  0  0  0  0
    0.8701    8.6493   -1.0884 O   0  0  0  0  0  0  0  0  0  0  0  0
    3.9826    2.9600   -1.7695 C   0  0  0  0  0  0  0  0  0  0  0  0
    4.8308    3.4091   -2.7968 C   0  0  0  0  0  0  0  0  0  0  0  0
    5.0128    4.7307   -3.1824 N   0  0  0  0  0  0  0  0  0  0  0  0
    5.5277    2.5002   -3.5114 N   0  0  0  0  0  0  0  0  0  0  0  0
    5.3762    1.1954   -3.2246 C   0  0  0  0  0  0  0  0  0  0  0  0
    4.6035    0.6480   -2.2770 N   0  0  0  0  0  0  0  0  0  0  0  0
    3.9362    1.5858   -1.5813 C   0  0  0  0  0  0  0  0  0  0  0  0
    2.6278   -1.0857    1.7661 H   0  0  0  0  0  0  0  0  0  0  0  0
    2.3975    0.6505    2.0260 H   0  0  0  0  0  0  0  0  0  0  0  0
    3.9940    0.0288    1.5875 H   0  0  0  0  0  0  0  0  0  0  0  0
    3.1429   -0.6954   -0.6255 H   0  0  0  0  0  0  0  0  0  0  0  0
    0.4811    0.5873    0.1960 H   0  0  0  0  0  0  0  0  0  0  0  0
    0.7927   -1.1477    0.0148 H   0  0  0  0  0  0  0  0  0  0  0  0
    0.8713   -0.0778   -1.3925 H   0  0  0  0  0  0  0  0  0  0  0  0
    4.4153    5.8886   -0.9409 H   0  0  0  0  0  0  0  0  0  0  0  0
    3.3788    8.1145   -1.1812 H   0  0  0  0  0  0  0  0  0  0  0  0
    0.5168    4.1780   -0.2522 H   0  0  0  0  0  0  0  0  0  0  0  0
   -1.5200    7.3381   -1.9180 H   0  0  0  0  0  0  0  0  0  0  0  0
   -2.3097    7.6965   -0.3797 H   0  0  0  0  0  0  0  0  0  0  0  0
   -0.4889    9.1228    0.3699 H   0  0  0  0  0  0  0  0  0  0  0  0
   -0.9245    9.6039   -1.2758 H   0  0  0  0  0  0  0  0  0  0  0  0
    4.1715    5.2918   -3.1508 H   0  0  0  0  0  0  0  0  0  0  0  0
    5.5051    4.7594   -4.0690 H   0  0  0  0  0  0  0  0  0  0  0  0
    5.9403    0.5048   -3.8439 H   0  0  0  0  0  0  0  0  0  0  0  0
  1  2  1  0  0  0  0
  1 24  1  0  0  0  0
  1 25  1  0  0  0  0
  1 26  1  0  0  0  0
  2  3  1  0  0  0  0
  2  4  1  0  0  0  0
  2 27  1  0  0  0  0
  3 28  1  0  0  0  0
  3 29  1  0  0  0  0
  3 30  1  0  0  0  0
  4  5  1  0  0  0  0
  4 23  1  0  0  0  0
  5  6  2  0  0  0  0
  6  7  1  0  0  0  0
  6 17  1  0  0  0  0
  7  8  1  0  0  0  0
  7 12  2  0  0  0  0
  8  9  2  0  0  0  0
  8 31  1  0  0  0  0
  9 10  1  0  0  0  0
  9 32  1  0  0  0  0
 10 11  2  0  0  0  0
 10 16  1  0  0  0  0
 11 12  1  0  0  0  0
 11 13  1  0  0  0  0
 12 33  1  0  0  0  0
 13 14  1  0  0  0  0
 14 15  1  0  0  0  0
 14 34  1  0  0  0  0
 14 35  1  0  0  0  0
 15 16  1  0  0  0  0
 15 36  1  0  0  0  0
 15 37  1  0  0  0  0
 17 18  1  0  0  0  0
 17 23  2  0  0  0  0
 18 19  1  0  0  0  0
 18 20  2  0  0  0  0
 19 38  1  0  0  0  0
 19 39  1  0  0  0  0
 20 21  1  0  0  0  0
 21 22  2  0  0  0  0
 21 40  1  0  0  0  0
 22 23  1  0  0  0  0
M  END
$$$$
