CHEMBL595143
 OpenBabel04072215383D

 70 75  0  0  0  0  0  0  0  0999 V2000
    2.6412   -0.2542   -1.2056 C   0  0  0  0  0  0  0  0  0  0  0  0
    2.3110   -0.2231    0.1752 O   0  0  0  0  0  0  0  0  0  0  0  0
    3.0934    0.4881    1.0401 C   0  0  0  0  0  0  0  0  0  0  0  0
    4.3160    1.0586    0.6742 C   0  0  0  0  0  0  0  0  0  0  0  0
    5.0311    1.8928    1.5620 C   0  0  0  0  0  0  0  0  0  0  0  0
    6.2102    2.5841    1.2526 C   0  0  0  0  0  0  0  0  0  0  0  0
    6.6784    2.5644   -0.0729 O   0  0  0  0  0  0  0  0  0  0  0  0
    7.4309    3.6471   -0.5004 C   0  0  0  0  0  0  0  0  0  0  0  0
    8.5193    3.4262   -1.3498 C   0  0  0  0  0  0  0  0  0  0  0  0
    9.3918    4.4870   -1.6900 C   0  0  0  0  0  0  0  0  0  0  0  0
    9.1841    5.7861   -1.1950 C   0  0  0  0  0  0  0  0  0  0  0  0
   10.1904    6.8719   -1.3786 C   0  0  0  0  0  0  0  0  0  0  0  0
   11.3014    6.8076   -2.0890 N   0  0  0  0  0  0  0  0  0  0  0  0
   12.0782    7.9610   -1.9001 C   0  0  0  0  0  0  0  0  0  0  0  0
   13.3458    8.2517   -2.4532 C   0  0  0  0  0  0  0  0  0  0  0  0
   14.0191    9.4339   -2.1004 C   0  0  0  0  0  0  0  0  0  0  0  0
   13.4471   10.3394   -1.2135 C   0  0  0  0  0  0  0  0  0  0  0  0
   12.1822   10.0988   -0.6798 C   0  0  0  0  0  0  0  0  0  0  0  0
   11.5231    8.9099   -1.0363 C   0  0  0  0  0  0  0  0  0  0  0  0
    9.9868    8.3694   -0.5321 S   0  0  0  0  0  0  0  0  0  0  0  0
    8.0074    5.9974   -0.4530 C   0  0  0  0  0  0  0  0  0  0  0  0
    7.1330    4.9561   -0.1340 C   0  0  0  0  0  0  0  0  0  0  0  0
    6.9034    3.3028    2.1607 N   0  0  0  0  0  0  0  0  0  0  0  0
    6.3461    3.4154    3.3660 C   0  0  0  0  0  0  0  0  0  0  0  0
    5.1827    2.8764    3.7494 N   0  0  0  0  0  0  0  0  0  0  0  0
    4.5417    2.1116    2.8553 C   0  0  0  0  0  0  0  0  0  0  0  0
    3.3440    1.5111    3.2252 C   0  0  0  0  0  0  0  0  0  0  0  0
    2.6266    0.6771    2.3539 C   0  0  0  0  0  0  0  0  0  0  0  0
    1.4962    0.1224    2.9265 O   0  0  0  0  0  0  0  0  0  0  0  0
    1.0993   -1.1401    2.3787 C   0  0  0  0  0  0  0  0  0  0  0  0
    0.3698   -2.0056    3.4088 C   0  0  0  0  0  0  0  0  0  0  0  0
    0.1297   -3.4213    2.8463 C   0  0  0  0  0  0  0  0  0  0  0  0
    1.3668   -4.0873    2.4100 N   0  0  0  0  0  0  0  0  0  0  0  0
    2.3085   -4.3262    3.5174 C   0  0  0  0  0  0  0  0  0  0  0  0
    3.6064   -5.0079    3.0329 C   0  0  0  0  0  0  0  0  0  0  0  0
    3.3980   -6.2844    2.3250 N   0  0  0  0  0  0  0  0  0  0  0  0
    2.9863   -7.3418    3.2450 C   0  0  0  0  0  0  0  0  0  0  0  0
    2.4041   -6.0742    1.2516 C   0  0  0  0  0  0  0  0  0  0  0  0
    1.1038   -5.3401    1.6788 C   0  0  0  0  0  0  0  0  0  0  0  0
    3.2270   -1.1517   -1.4228 H   0  0  0  0  0  0  0  0  0  0  0  0
    3.1572    0.6413   -1.5609 H   0  0  0  0  0  0  0  0  0  0  0  0
    1.7020   -0.3115   -1.7623 H   0  0  0  0  0  0  0  0  0  0  0  0
    4.7612    0.8593   -0.2943 H   0  0  0  0  0  0  0  0  0  0  0  0
    8.7227    2.4247   -1.7217 H   0  0  0  0  0  0  0  0  0  0  0  0
   10.2600    4.2759   -2.3139 H   0  0  0  0  0  0  0  0  0  0  0  0
   13.8046    7.5499   -3.1425 H   0  0  0  0  0  0  0  0  0  0  0  0
   15.0025    9.6424   -2.5164 H   0  0  0  0  0  0  0  0  0  0  0  0
   13.9832   11.2435   -0.9310 H   0  0  0  0  0  0  0  0  0  0  0  0
   11.7236   10.8036    0.0076 H   0  0  0  0  0  0  0  0  0  0  0  0
    7.7528    6.9759   -0.0557 H   0  0  0  0  0  0  0  0  0  0  0  0
    6.2572    5.1825    0.4678 H   0  0  0  0  0  0  0  0  0  0  0  0
    6.8774    4.0102    4.0997 H   0  0  0  0  0  0  0  0  0  0  0  0
    2.9563    1.6879    4.2259 H   0  0  0  0  0  0  0  0  0  0  0  0
    1.9848   -1.6894    2.0453 H   0  0  0  0  0  0  0  0  0  0  0  0
    0.4214   -0.9588    1.5384 H   0  0  0  0  0  0  0  0  0  0  0  0
   -0.5916   -1.5448    3.6681 H   0  0  0  0  0  0  0  0  0  0  0  0
    0.9311   -2.0417    4.3498 H   0  0  0  0  0  0  0  0  0  0  0  0
   -0.5397   -3.3188    1.9818 H   0  0  0  0  0  0  0  0  0  0  0  0
   -0.4016   -4.0318    3.5869 H   0  0  0  0  0  0  0  0  0  0  0  0
    1.8336   -4.9298    4.3004 H   0  0  0  0  0  0  0  0  0  0  0  0
    2.6057   -3.3777    3.9760 H   0  0  0  0  0  0  0  0  0  0  0  0
    4.2848   -5.1507    3.8828 H   0  0  0  0  0  0  0  0  0  0  0  0
    4.1305   -4.3213    2.3535 H   0  0  0  0  0  0  0  0  0  0  0  0
    3.7142   -7.4476    4.0576 H   0  0  0  0  0  0  0  0  0  0  0  0
    2.9595   -8.3047    2.7240 H   0  0  0  0  0  0  0  0  0  0  0  0
    2.0027   -7.1706    3.6937 H   0  0  0  0  0  0  0  0  0  0  0  0
    2.1486   -7.0339    0.7847 H   0  0  0  0  0  0  0  0  0  0  0  0
    2.8900   -5.4855    0.4618 H   0  0  0  0  0  0  0  0  0  0  0  0
    0.4885   -6.0155    2.2862 H   0  0  0  0  0  0  0  0  0  0  0  0
    0.5351   -5.1143    0.7680 H   0  0  0  0  0  0  0  0  0  0  0  0
  1  2  1  0  0  0  0
  1 40  1  0  0  0  0
  1 41  1  0  0  0  0
  1 42  1  0  0  0  0
  2  3  1  0  0  0  0
  3  4  1  0  0  0  0
  3 28  2  0  0  0  0
  4  5  2  0  0  0  0
  4 43  1  0  0  0  0
  5  6  1  0  0  0  0
  5 26  1  0  0  0  0
  6  7  1  0  0  0  0
  6 23  2  0  0  0  0
  7  8  1  0  0  0  0
  8  9  1  0  0  0  0
  8 22  2  0  0  0  0
  9 10  2  0  0  0  0
  9 44  1  0  0  0  0
 10 11  1  0  0  0  0
 10 45  1  0  0  0  0
 11 12  1  0  0  0  0
 11 21  2  0  0  0  0
 12 13  2  0  0  0  0
 12 20  1  0  0  0  0
 13 14  1  0  0  0  0
 14 15  1  0  0  0  0
 14 19  2  0  0  0  0
 15 16  2  0  0  0  0
 15 46  1  0  0  0  0
 16 17  1  0  0  0  0
 16 47  1  0  0  0  0
 17 18  2  0  0  0  0
 17 48  1  0  0  0  0
 18 19  1  0  0  0  0
 18 49  1  0  0  0  0
 19 20  1  0  0  0  0
 21 22  1  0  0  0  0
 21 50  1  0  0  0  0
 22 51  1  0  0  0  0
 23 24  1  0  0  0  0
 24 25  2  0  0  0  0
 24 52  1  0  0  0  0
 25 26  1  0  0  0  0
 26 27  2  0  0  0  0
 27 28  1  0  0  0  0
 27 53  1  0  0  0  0
 28 29  1  0  0  0  0
 29 30  1  0  0  0  0
 30 31  1  0  0  0  0
 30 54  1  0  0  0  0
 30 55  1  0  0  0  0
 31 32  1  0  0  0  0
 31 56  1  0  0  0  0
 31 57  1  0  0  0  0
 32 33  1  0  0  0  0
 32 58  1  0  0  0  0
 32 59  1  0  0  0  0
 33 34  1  0  0  0  0
 33 39  1  0  0  0  0
 34 35  1  0  0  0  0
 34 60  1  0  0  0  0
 34 61  1  0  0  0  0
 35 36  1  0  0  0  0
 35 62  1  0  0  0  0
 35 63  1  0  0  0  0
 36 37  1  0  0  0  0
 36 38  1  0  0  0  0
 37 64  1  0  0  0  0
 37 65  1  0  0  0  0
 37 66  1  0  0  0  0
 38 39  1  0  0  0  0
 38 67  1  0  0  0  0
 38 68  1  0  0  0  0
 39 69  1  0  0  0  0
 39 70  1  0  0  0  0
M  END
$$$$
