CHEMBL180807
 OpenBabel04072215363D

 50 52  0  0  0  0  0  0  0  0999 V2000
    0.9401   -4.6120    0.9870 C   0  0  0  0  0  0  0  0  0  0  0  0
    2.3420   -4.3813    0.9326 O   0  0  0  0  0  0  0  0  0  0  0  0
    2.9746   -5.2110   -0.0388 C   0  0  0  0  0  0  0  0  0  0  0  0
    4.4739   -4.9239   -0.0527 C   0  0  0  0  0  0  0  0  0  0  0  0
    5.0844   -5.2044    1.3177 C   0  0  0  0  0  0  0  0  0  0  0  0
    6.5052   -4.9477    1.3593 N   0  0  0  0  0  0  0  0  0  0  0  0
    6.9884   -3.6954    1.7028 C   0  0  0  0  0  0  0  0  0  0  0  0
    6.2702   -2.7583    1.9844 O   0  0  0  0  0  0  0  0  0  0  0  0
    8.4549   -3.6076    1.7269 C   0  0  0  0  0  0  0  0  0  0  0  0
    9.3183   -4.6354    1.4022 C   0  0  0  0  0  0  0  0  0  0  0  0
   10.5997   -4.1980    1.5316 N   0  0  0  0  0  0  0  0  0  0  0  0
   11.6813   -4.9489    1.2962 N   0  0  0  0  0  0  0  0  0  0  0  0
   12.7968   -4.3230    1.4903 C   0  0  0  0  0  0  0  0  0  0  0  0
   12.9459   -3.0300    1.9049 N   0  0  0  0  0  0  0  0  0  0  0  0
   11.8988   -2.2989    2.1674 C   0  0  0  0  0  0  0  0  0  0  0  0
   12.0436   -1.0014    2.6079 N   0  0  0  0  0  0  0  0  0  0  0  0
   13.0900   -0.5127    3.4079 C   0  0  0  0  0  0  0  0  0  0  0  0
   13.7912   -1.3357    4.2904 C   0  0  0  0  0  0  0  0  0  0  0  0
   14.8344   -0.8251    5.0675 C   0  0  0  0  0  0  0  0  0  0  0  0
   15.1894    0.5282    4.9923 C   0  0  0  0  0  0  0  0  0  0  0  0
   16.3068    1.0421    5.8500 C   0  0  0  0  0  0  0  0  0  0  0  0
   14.4705    1.3524    4.1205 C   0  0  0  0  0  0  0  0  0  0  0  0
   14.7267    2.6880    3.9814 O   0  0  0  0  0  0  0  0  0  0  0  0
   13.4293    0.8437    3.3442 C   0  0  0  0  0  0  0  0  0  0  0  0
   10.6056   -2.8999    1.9549 C   0  0  0  0  0  0  0  0  0  0  0  0
    9.2818   -2.4852    2.1059 C   0  0  0  0  0  0  0  0  0  0  0  0
    8.7329   -1.1875    2.5984 C   0  0  0  0  0  0  0  0  0  0  0  0
    0.5079   -3.9502    1.7422 H   0  0  0  0  0  0  0  0  0  0  0  0
    0.7357   -5.6479    1.2711 H   0  0  0  0  0  0  0  0  0  0  0  0
    0.4808   -4.3881    0.0206 H   0  0  0  0  0  0  0  0  0  0  0  0
    2.5461   -5.0050   -1.0250 H   0  0  0  0  0  0  0  0  0  0  0  0
    2.7962   -6.2624    0.2127 H   0  0  0  0  0  0  0  0  0  0  0  0
    4.6477   -3.8783   -0.3371 H   0  0  0  0  0  0  0  0  0  0  0  0
    4.9615   -5.5389   -0.8226 H   0  0  0  0  0  0  0  0  0  0  0  0
    4.9294   -6.2514    1.5977 H   0  0  0  0  0  0  0  0  0  0  0  0
    4.6118   -4.5803    2.0848 H   0  0  0  0  0  0  0  0  0  0  0  0
    7.1382   -5.7313    1.3579 H   0  0  0  0  0  0  0  0  0  0  0  0
    9.1295   -5.6517    1.0949 H   0  0  0  0  0  0  0  0  0  0  0  0
   13.7338   -4.8817    1.3223 H   0  0  0  0  0  0  0  0  0  0  0  0
   11.1925   -0.5034    2.8067 H   0  0  0  0  0  0  0  0  0  0  0  0
   13.5284   -2.3849    4.3812 H   0  0  0  0  0  0  0  0  0  0  0  0
   15.3701   -1.5042    5.7263 H   0  0  0  0  0  0  0  0  0  0  0  0
   16.7584    0.2420    6.4459 H   0  0  0  0  0  0  0  0  0  0  0  0
   15.9283    1.7990    6.5441 H   0  0  0  0  0  0  0  0  0  0  0  0
   17.0955    1.4770    5.2280 H   0  0  0  0  0  0  0  0  0  0  0  0
   15.4224    2.9494    4.6048 H   0  0  0  0  0  0  0  0  0  0  0  0
   12.8946    1.5174    2.6788 H   0  0  0  0  0  0  0  0  0  0  0  0
    9.4770   -0.4733    2.9347 H   0  0  0  0  0  0  0  0  0  0  0  0
    8.0821   -1.3664    3.4592 H   0  0  0  0  0  0  0  0  0  0  0  0
    8.1603   -0.6823    1.8154 H   0  0  0  0  0  0  0  0  0  0  0  0
  1  2  1  0  0  0  0
  1 28  1  0  0  0  0
  1 29  1  0  0  0  0
  1 30  1  0  0  0  0
  2  3  1  0  0  0  0
  3  4  1  0  0  0  0
  3 31  1  0  0  0  0
  3 32  1  0  0  0  0
  4  5  1  0  0  0  0
  4 33  1  0  0  0  0
  4 34  1  0  0  0  0
  5  6  1  0  0  0  0
  5 35  1  0  0  0  0
  5 36  1  0  0  0  0
  6  7  1  0  0  0  0
  6 37  1  0  0  0  0
  7  8  2  0  0  0  0
  7  9  1  0  0  0  0
  9 10  2  0  0  0  0
  9 26  1  0  0  0  0
 10 11  1  0  0  0  0
 10 38  1  0  0  0  0
 11 12  1  0  0  0  0
 11 25  1  0  0  0  0
 12 13  2  0  0  0  0
 13 14  1  0  0  0  0
 13 39  1  0  0  0  0
 14 15  2  0  0  0  0
 15 16  1  0  0  0  0
 15 25  1  0  0  0  0
 16 17  1  0  0  0  0
 16 40  1  0  0  0  0
 17 18  1  0  0  0  0
 17 24  2  0  0  0  0
 18 19  2  0  0  0  0
 18 41  1  0  0  0  0
 19 20  1  0  0  0  0
 19 42  1  0  0  0  0
 20 21  1  0  0  0  0
 20 22  2  0  0  0  0
 21 43  1  0  0  0  0
 21 44  1  0  0  0  0
 21 45  1  0  0  0  0
 22 23  1  0  0  0  0
 22 24  1  0  0  0  0
 23 46  1  0  0  0  0
 24 47  1  0  0  0  0
 25 26  2  0  0  0  0
 26 27  1  0  0  0  0
 27 48  1  0  0  0  0
 27 49  1  0  0  0  0
 27 50  1  0  0  0  0
M  END
$$$$
