CHEMBL415049
 OpenBabel04072215383D

 72 75  0  0  0  0  0  0  0  0999 V2000
    1.0245   -4.4086   -0.0764 C   0  0  0  0  0  0  0  0  0  0  0  0
    1.4943   -3.0016    0.2795 C   0  0  0  0  0  0  0  0  0  0  0  0
    2.3999   -2.3886   -0.7078 N   0  0  0  0  0  0  0  0  0  0  0  0
    1.8386   -2.3377   -2.0677 C   0  0  0  0  0  0  0  0  0  0  0  0
    0.5812   -1.4773   -2.2126 C   0  0  0  0  0  0  0  0  0  0  0  0
    0.0918   -1.4914   -3.6453 C   0  0  0  0  0  0  0  0  0  0  0  0
   -1.0860   -0.6877   -3.7114 O   0  0  0  0  0  0  0  0  0  0  0  0
   -1.6433   -0.5772   -4.9545 C   0  0  0  0  0  0  0  0  0  0  0  0
   -1.1328   -1.1614   -6.1036 C   0  0  0  0  0  0  0  0  0  0  0  0
   -1.7906   -0.9799   -7.3081 C   0  0  0  0  0  0  0  0  0  0  0  0
   -2.9819   -0.2264   -7.3667 C   0  0  0  0  0  0  0  0  0  0  0  0
   -3.7160   -0.0292   -8.5418 C   0  0  0  0  0  0  0  0  0  0  0  0
   -3.2503   -0.6262   -9.7383 N   0  0  0  0  0  0  0  0  0  0  0  0
   -3.6609   -0.4124  -11.0001 C   0  0  0  0  0  0  0  0  0  0  0  0
   -4.3112    0.7432  -11.4709 C   0  0  0  0  0  0  0  0  0  0  0  0
   -4.6962    0.4447  -12.7567 C   0  0  0  0  0  0  0  0  0  0  0  0
   -5.5899    1.1947  -13.6811 C   0  0  0  0  0  0  0  0  0  0  0  0
   -5.8227    0.4724  -14.9977 C   0  0  0  0  0  0  0  0  0  0  0  0
   -5.9064   -0.7530  -15.0696 O   0  0  0  0  0  0  0  0  0  0  0  0
   -5.8766    1.3262  -16.0873 N   0  0  0  0  0  0  0  0  0  0  0  0
   -6.0719    0.8442  -17.3935 C   0  0  0  0  0  0  0  0  0  0  0  0
   -5.2525    1.3374  -18.4096 C   0  0  0  0  0  0  0  0  0  0  0  0
   -5.3741    0.8395  -19.7078 C   0  0  0  0  0  0  0  0  0  0  0  0
   -6.3551   -0.1062  -20.0001 C   0  0  0  0  0  0  0  0  0  0  0  0
   -7.1968   -0.5589  -18.9898 C   0  0  0  0  0  0  0  0  0  0  0  0
   -8.1596   -1.4435  -19.2817 F   0  0  0  0  0  0  0  0  0  0  0  0
   -7.0550   -0.1065  -17.6840 C   0  0  0  0  0  0  0  0  0  0  0  0
   -4.1497   -0.7853  -13.0172 N   0  0  0  0  0  0  0  0  0  0  0  0
   -3.4920   -1.3105  -11.9709 N   0  0  0  0  0  0  0  0  0  0  0  0
   -4.8162    0.7482   -8.5631 N   0  0  0  0  0  0  0  0  0  0  0  0
   -5.1959    1.2950   -7.4045 C   0  0  0  0  0  0  0  0  0  0  0  0
   -4.5882    1.1428   -6.2227 N   0  0  0  0  0  0  0  0  0  0  0  0
   -3.4871    0.3883   -6.2153 C   0  0  0  0  0  0  0  0  0  0  0  0
   -2.8079    0.1975   -5.0148 C   0  0  0  0  0  0  0  0  0  0  0  0
    2.8365   -1.0415   -0.2858 C   0  0  0  0  0  0  0  0  0  0  0  0
    3.5978   -0.9918    1.0375 C   0  0  0  0  0  0  0  0  0  0  0  0
    3.9181    0.3615    1.3219 O   0  0  0  0  0  0  0  0  0  0  0  0
    4.6231    0.6287    2.7309 P   0  0  0  0  0  0  0  0  0  0  0  0
    5.9565    0.0079    2.9438 O   0  0  0  0  0  0  0  0  0  0  0  0
    4.6018    2.2210    2.8204 O   0  0  0  0  0  0  0  0  0  0  0  0
    3.5132    0.2250    3.8031 O   0  0  0  0  0  0  0  0  0  0  0  0
    0.6359   -4.9024    0.8212 H   0  0  0  0  0  0  0  0  0  0  0  0
    1.8473   -5.0208   -0.4593 H   0  0  0  0  0  0  0  0  0  0  0  0
    0.2218   -4.3905   -0.8193 H   0  0  0  0  0  0  0  0  0  0  0  0
    2.0260   -3.1057    1.2297 H   0  0  0  0  0  0  0  0  0  0  0  0
    0.6232   -2.3643    0.4723 H   0  0  0  0  0  0  0  0  0  0  0  0
    1.6345   -3.3562   -2.4214 H   0  0  0  0  0  0  0  0  0  0  0  0
    2.6134   -1.9661   -2.7531 H   0  0  0  0  0  0  0  0  0  0  0  0
    0.7726   -0.4355   -1.9362 H   0  0  0  0  0  0  0  0  0  0  0  0
   -0.2232   -1.8293   -1.5590 H   0  0  0  0  0  0  0  0  0  0  0  0
   -0.1377   -2.5214   -3.9439 H   0  0  0  0  0  0  0  0  0  0  0  0
    0.8713   -1.0689   -4.2922 H   0  0  0  0  0  0  0  0  0  0  0  0
   -0.2318   -1.7603   -6.1088 H   0  0  0  0  0  0  0  0  0  0  0  0
   -1.3570   -1.4297   -8.1967 H   0  0  0  0  0  0  0  0  0  0  0  0
   -2.9801   -1.5894   -9.5837 H   0  0  0  0  0  0  0  0  0  0  0  0
   -4.5622    1.6324  -10.9120 H   0  0  0  0  0  0  0  0  0  0  0  0
   -5.1721    2.1928  -13.8523 H   0  0  0  0  0  0  0  0  0  0  0  0
   -6.5708    1.3194  -13.2075 H   0  0  0  0  0  0  0  0  0  0  0  0
   -5.3897    2.2095  -15.9939 H   0  0  0  0  0  0  0  0  0  0  0  0
   -4.4698    2.0586  -18.1901 H   0  0  0  0  0  0  0  0  0  0  0  0
   -4.6955    1.1785  -20.4855 H   0  0  0  0  0  0  0  0  0  0  0  0
   -6.4704   -0.4958  -21.0063 H   0  0  0  0  0  0  0  0  0  0  0  0
   -7.7267   -0.4849  -16.9193 H   0  0  0  0  0  0  0  0  0  0  0  0
   -4.2448   -1.3411  -13.8659 H   0  0  0  0  0  0  0  0  0  0  0  0
   -6.0839    1.9167   -7.4282 H   0  0  0  0  0  0  0  0  0  0  0  0
   -3.1917    0.6637   -4.1160 H   0  0  0  0  0  0  0  0  0  0  0  0
    1.9865   -0.3528   -0.2067 H   0  0  0  0  0  0  0  0  0  0  0  0
    3.4936   -0.6144   -1.0567 H   0  0  0  0  0  0  0  0  0  0  0  0
    4.5177   -1.5812    0.9807 H   0  0  0  0  0  0  0  0  0  0  0  0
    2.9782   -1.3670    1.8555 H   0  0  0  0  0  0  0  0  0  0  0  0
    5.1822    2.6125    2.1448 H   0  0  0  0  0  0  0  0  0  0  0  0
    3.8557    0.3175    4.7091 H   0  0  0  0  0  0  0  0  0  0  0  0
  1  2  1  0  0  0  0
  1 42  1  0  0  0  0
  1 43  1  0  0  0  0
  1 44  1  0  0  0  0
  2  3  1  0  0  0  0
  2 45  1  0  0  0  0
  2 46  1  0  0  0  0
  3  4  1  0  0  0  0
  3 35  1  0  0  0  0
  4  5  1  0  0  0  0
  4 47  1  0  0  0  0
  4 48  1  0  0  0  0
  5  6  1  0  0  0  0
  5 49  1  0  0  0  0
  5 50  1  0  0  0  0
  6  7  1  0  0  0  0
  6 51  1  0  0  0  0
  6 52  1  0  0  0  0
  7  8  1  0  0  0  0
  8  9  1  0  0  0  0
  8 34  2  0  0  0  0
  9 10  2  0  0  0  0
  9 53  1  0  0  0  0
 10 11  1  0  0  0  0
 10 54  1  0  0  0  0
 11 12  1  0  0  0  0
 11 33  2  0  0  0  0
 12 13  1  0  0  0  0
 12 30  2  0  0  0  0
 13 14  1  0  0  0  0
 13 55  1  0  0  0  0
 14 15  1  0  0  0  0
 14 29  2  0  0  0  0
 15 16  2  0  0  0  0
 15 56  1  0  0  0  0
 16 17  1  0  0  0  0
 16 28  1  0  0  0  0
 17 18  1  0  0  0  0
 17 57  1  0  0  0  0
 17 58  1  0  0  0  0
 18 19  2  0  0  0  0
 18 20  1  0  0  0  0
 20 21  1  0  0  0  0
 20 59  1  0  0  0  0
 21 22  1  0  0  0  0
 21 27  2  0  0  0  0
 22 23  2  0  0  0  0
 22 60  1  0  0  0  0
 23 24  1  0  0  0  0
 23 61  1  0  0  0  0
 24 25  2  0  0  0  0
 24 62  1  0  0  0  0
 25 26  1  0  0  0  0
 25 27  1  0  0  0  0
 27 63  1  0  0  0  0
 28 29  1  0  0  0  0
 28 64  1  0  0  0  0
 30 31  1  0  0  0  0
 31 32  2  0  0  0  0
 31 65  1  0  0  0  0
 32 33  1  0  0  0  0
 33 34  1  0  0  0  0
 34 66  1  0  0  0  0
 35 36  1  0  0  0  0
 35 67  1  0  0  0  0
 35 68  1  0  0  0  0
 36 37  1  0  0  0  0
 36 69  1  0  0  0  0
 36 70  1  0  0  0  0
 37 38  1  0  0  0  0
 38 39  2  0  0  0  0
 38 40  1  0  0  0  0
 38 41  1  0  0  0  0
 40 71  1  0  0  0  0
 41 72  1  0  0  0  0
M  END
$$$$
