CHEMBL437889
 OpenBabel04072215383D

 45 48  0  0  0  0  0  0  0  0999 V2000
    2.8792   -0.6614    0.8321 O   0  0  0  0  0  0  0  0  0  0  0  0
    2.2084    0.1114    0.1599 C   0  0  0  0  0  0  0  0  0  0  0  0
    0.8377    0.3051    0.2462 N   0  0  0  0  0  0  0  0  0  0  0  0
   -0.0678   -0.3937    1.0798 C   0  0  0  0  0  0  0  0  0  0  0  0
    0.3044   -1.4357    1.9236 C   0  0  0  0  0  0  0  0  0  0  0  0
   -0.6465   -2.0929    2.7079 C   0  0  0  0  0  0  0  0  0  0  0  0
   -1.9948   -1.7259    2.6594 C   0  0  0  0  0  0  0  0  0  0  0  0
   -3.0630   -2.5853    3.7043 Cl  0  0  0  0  0  0  0  0  0  0  0  0
   -2.4078   -0.7029    1.8030 C   0  0  0  0  0  0  0  0  0  0  0  0
   -3.8416   -0.2655    1.6390 C   0  0  0  0  0  0  0  0  0  0  0  0
   -4.7876   -1.0509    2.2141 F   0  0  0  0  0  0  0  0  0  0  0  0
   -4.0493    0.9893    2.1322 F   0  0  0  0  0  0  0  0  0  0  0  0
   -4.1923   -0.1940    0.3209 F   0  0  0  0  0  0  0  0  0  0  0  0
   -1.4223   -0.0309    1.0326 C   0  0  0  0  0  0  0  0  0  0  0  0
    2.9180    0.9583   -0.8396 C   0  0  0  0  0  0  0  0  0  0  0  0
    2.6379    2.3374   -0.8358 C   0  0  0  0  0  0  0  0  0  0  0  0
    3.3294    3.2053   -1.6789 C   0  0  0  0  0  0  0  0  0  0  0  0
    4.3204    2.7105   -2.5185 C   0  0  0  0  0  0  0  0  0  0  0  0
    4.6126    1.3461   -2.5249 C   0  0  0  0  0  0  0  0  0  0  0  0
    3.9190    0.4407   -1.6936 C   0  0  0  0  0  0  0  0  0  0  0  0
    4.2870   -1.0266   -1.7898 C   0  0  0  0  0  0  0  0  0  0  0  0
    3.5267   -1.7259   -2.8237 N   0  0  0  0  0  0  0  0  0  0  0  0
    3.8567   -1.7295   -4.1618 C   0  0  0  0  0  0  0  0  0  0  0  0
    2.9524   -2.5246   -4.8278 C   0  0  0  0  0  0  0  0  0  0  0  0
    2.0508   -3.0530   -3.8653 C   0  0  0  0  0  0  0  0  0  0  0  0
    0.9529   -3.9198   -3.9364 C   0  0  0  0  0  0  0  0  0  0  0  0
    0.2793   -4.2809   -2.8171 N   0  0  0  0  0  0  0  0  0  0  0  0
    0.7009   -3.8032   -1.6280 C   0  0  0  0  0  0  0  0  0  0  0  0
    1.7768   -2.9493   -1.4514 C   0  0  0  0  0  0  0  0  0  0  0  0
    2.4443   -2.5618   -2.6169 C   0  0  0  0  0  0  0  0  0  0  0  0
    0.4303    0.9932   -0.3752 H   0  0  0  0  0  0  0  0  0  0  0  0
    1.3336   -1.7753    2.0004 H   0  0  0  0  0  0  0  0  0  0  0  0
   -0.3216   -2.9029    3.3582 H   0  0  0  0  0  0  0  0  0  0  0  0
   -1.7410    0.7862    0.3856 H   0  0  0  0  0  0  0  0  0  0  0  0
    1.9087    2.7566   -0.1457 H   0  0  0  0  0  0  0  0  0  0  0  0
    3.1110    4.2706   -1.6655 H   0  0  0  0  0  0  0  0  0  0  0  0
    4.8755    3.3876   -3.1638 H   0  0  0  0  0  0  0  0  0  0  0  0
    5.4011    0.9899   -3.1865 H   0  0  0  0  0  0  0  0  0  0  0  0
    4.1867   -1.5723   -0.8503 H   0  0  0  0  0  0  0  0  0  0  0  0
    5.3465   -1.1269   -2.0627 H   0  0  0  0  0  0  0  0  0  0  0  0
    4.7071   -1.1712   -4.5313 H   0  0  0  0  0  0  0  0  0  0  0  0
    2.9501   -2.7236   -5.8911 H   0  0  0  0  0  0  0  0  0  0  0  0
    0.5972   -4.3447   -4.8682 H   0  0  0  0  0  0  0  0  0  0  0  0
    0.1284   -4.1432   -0.7689 H   0  0  0  0  0  0  0  0  0  0  0  0
    2.0737   -2.6241   -0.4659 H   0  0  0  0  0  0  0  0  0  0  0  0
  1  2  2  0  0  0  0
  2  3  1  0  0  0  0
  2 15  1  0  0  0  0
  3  4  1  0  0  0  0
  3 31  1  0  0  0  0
  4  5  1  0  0  0  0
  4 14  2  0  0  0  0
  5  6  2  0  0  0  0
  5 32  1  0  0  0  0
  6  7  1  0  0  0  0
  6 33  1  0  0  0  0
  7  8  1  0  0  0  0
  7  9  2  0  0  0  0
  9 10  1  0  0  0  0
  9 14  1  0  0  0  0
 10 11  1  0  0  0  0
 10 12  1  0  0  0  0
 10 13  1  0  0  0  0
 14 34  1  0  0  0  0
 15 16  1  0  0  0  0
 15 20  2  0  0  0  0
 16 17  2  0  0  0  0
 16 35  1  0  0  0  0
 17 18  1  0  0  0  0
 17 36  1  0  0  0  0
 18 19  2  0  0  0  0
 18 37  1  0  0  0  0
 19 20  1  0  0  0  0
 19 38  1  0  0  0  0
 20 21  1  0  0  0  0
 21 22  1  0  0  0  0
 21 39  1  0  0  0  0
 21 40  1  0  0  0  0
 22 23  1  0  0  0  0
 22 30  1  0  0  0  0
 23 24  2  0  0  0  0
 23 41  1  0  0  0  0
 24 25  1  0  0  0  0
 24 42  1  0  0  0  0
 25 26  1  0  0  0  0
 25 30  2  0  0  0  0
 26 27  2  0  0  0  0
 26 43  1  0  0  0  0
 27 28  1  0  0  0  0
 28 29  2  0  0  0  0
 28 44  1  0  0  0  0
 29 30  1  0  0  0  0
 29 45  1  0  0  0  0
M  END
$$$$
