CHEMBL236205
 OpenBabel04072215363D

 42 44  0  0  0  0  0  0  0  0999 V2000
    2.2408    1.0088   -0.6907 O   0  0  0  0  0  0  0  0  0  0  0  0
    2.1450   -0.0103   -0.0109 C   0  0  0  0  0  0  0  0  0  0  0  0
    1.3238   -1.0837   -0.3247 N   0  0  0  0  0  0  0  0  0  0  0  0
    0.3632   -1.1537   -1.3570 C   0  0  0  0  0  0  0  0  0  0  0  0
    0.0437   -0.0840   -2.1943 C   0  0  0  0  0  0  0  0  0  0  0  0
   -0.9473   -0.2033   -3.1828 C   0  0  0  0  0  0  0  0  0  0  0  0
   -1.6077   -1.4108   -3.3727 C   0  0  0  0  0  0  0  0  0  0  0  0
   -2.5531   -1.6812   -4.3130 O   0  0  0  0  0  0  0  0  0  0  0  0
   -2.6482   -0.8676   -5.4741 C   0  0  0  0  0  0  0  0  0  0  0  0
   -1.5065   -0.2155   -5.7774 F   0  0  0  0  0  0  0  0  0  0  0  0
   -2.9495   -1.6664   -6.5241 F   0  0  0  0  0  0  0  0  0  0  0  0
   -3.6463    0.0281   -5.3274 F   0  0  0  0  0  0  0  0  0  0  0  0
   -1.3135   -2.4772   -2.5178 C   0  0  0  0  0  0  0  0  0  0  0  0
   -0.3340   -2.3519   -1.5220 C   0  0  0  0  0  0  0  0  0  0  0  0
    2.9144   -0.1725    1.2121 C   0  0  0  0  0  0  0  0  0  0  0  0
    2.7303   -1.0440    2.2738 C   0  0  0  0  0  0  0  0  0  0  0  0
    3.7215   -0.7187    3.2116 C   0  0  0  0  0  0  0  0  0  0  0  0
    4.4930    0.2808    2.7941 N   0  0  0  0  0  0  0  0  0  0  0  0
    3.9955    0.6114    1.5800 N   0  0  0  0  0  0  0  0  0  0  0  0
    4.6060    1.7244    0.8489 C   0  0  0  0  0  0  0  0  0  0  0  0
    6.0765    1.9677    1.2281 C   0  0  0  0  0  0  0  0  0  0  0  0
    6.7991    3.1171    0.5603 C   0  0  0  0  0  0  0  0  0  0  0  0
    7.8326    3.7544    1.2616 C   0  0  0  0  0  0  0  0  0  0  0  0
    8.5645    4.7533    0.6374 C   0  0  0  0  0  0  0  0  0  0  0  0
    8.3464    5.1572   -0.6269 N   0  0  0  0  0  0  0  0  0  0  0  0
    7.3547    4.5288   -1.2954 C   0  0  0  0  0  0  0  0  0  0  0  0
    6.5662    3.5187   -0.7567 C   0  0  0  0  0  0  0  0  0  0  0  0
    1.4313   -1.9185    0.2372 H   0  0  0  0  0  0  0  0  0  0  0  0
    0.5410    0.8771   -2.1120 H   0  0  0  0  0  0  0  0  0  0  0  0
   -1.1669    0.6796   -3.7767 H   0  0  0  0  0  0  0  0  0  0  0  0
   -1.8451   -3.4205   -2.6319 H   0  0  0  0  0  0  0  0  0  0  0  0
   -0.1344   -3.2133   -0.8882 H   0  0  0  0  0  0  0  0  0  0  0  0
    1.9596   -1.7917    2.3901 H   0  0  0  0  0  0  0  0  0  0  0  0
    3.9073   -1.1571    4.1824 H   0  0  0  0  0  0  0  0  0  0  0  0
    3.9939    2.6080    1.0641 H   0  0  0  0  0  0  0  0  0  0  0  0
    4.5386    1.4916   -0.2168 H   0  0  0  0  0  0  0  0  0  0  0  0
    6.6538    1.0567    1.0217 H   0  0  0  0  0  0  0  0  0  0  0  0
    6.1300    2.1353    2.3120 H   0  0  0  0  0  0  0  0  0  0  0  0
    8.0780    3.4717    2.2817 H   0  0  0  0  0  0  0  0  0  0  0  0
    9.3748    5.2589    1.1551 H   0  0  0  0  0  0  0  0  0  0  0  0
    7.2101    4.8638   -2.3204 H   0  0  0  0  0  0  0  0  0  0  0  0
    5.8055    3.0584   -1.3764 H   0  0  0  0  0  0  0  0  0  0  0  0
  1  2  2  0  0  0  0
  2  3  1  0  0  0  0
  2 15  1  0  0  0  0
  3  4  1  0  0  0  0
  3 28  1  0  0  0  0
  4  5  1  0  0  0  0
  4 14  2  0  0  0  0
  5  6  2  0  0  0  0
  5 29  1  0  0  0  0
  6  7  1  0  0  0  0
  6 30  1  0  0  0  0
  7  8  1  0  0  0  0
  7 13  2  0  0  0  0
  8  9  1  0  0  0  0
  9 10  1  0  0  0  0
  9 11  1  0  0  0  0
  9 12  1  0  0  0  0
 13 14  1  0  0  0  0
 13 31  1  0  0  0  0
 14 32  1  0  0  0  0
 15 16  2  0  0  0  0
 15 19  1  0  0  0  0
 16 17  1  0  0  0  0
 16 33  1  0  0  0  0
 17 18  2  0  0  0  0
 17 34  1  0  0  0  0
 18 19  1  0  0  0  0
 19 20  1  0  0  0  0
 20 21  1  0  0  0  0
 20 35  1  0  0  0  0
 20 36  1  0  0  0  0
 21 22  1  0  0  0  0
 21 37  1  0  0  0  0
 21 38  1  0  0  0  0
 22 23  1  0  0  0  0
 22 27  2  0  0  0  0
 23 24  2  0  0  0  0
 23 39  1  0  0  0  0
 24 25  1  0  0  0  0
 24 40  1  0  0  0  0
 25 26  2  0  0  0  0
 26 27  1  0  0  0  0
 26 41  1  0  0  0  0
 27 42  1  0  0  0  0
M  END
$$$$
