CHEMBL1278147
 OpenBabel04072215363D

 57 60  0  0  0  0  0  0  0  0999 V2000
    1.1161   -0.8972   -6.0385 C   0  0  0  0  0  0  0  0  0  0  0  0
    2.6133   -0.8657   -5.7411 C   0  0  0  0  0  0  0  0  0  0  0  0
    2.9685   -0.8555   -4.3084 N   0  0  0  0  0  0  0  0  0  0  0  0
    2.3602   -1.9454   -3.5341 C   0  0  0  0  0  0  0  0  0  0  0  0
    2.8658   -3.3488   -3.8518 C   0  0  0  0  0  0  0  0  0  0  0  0
    4.4423   -0.7689   -4.1728 C   0  0  0  0  0  0  0  0  0  0  0  0
    4.9784   -0.6727   -2.7282 C   0  0  0  0  0  0  0  0  0  0  0  0
    6.4422   -0.6248   -2.6760 N   0  0  0  0  0  0  0  0  0  0  0  0
    7.1581   -1.9121   -2.6259 C   0  0  0  0  0  0  0  0  0  0  0  0
    8.7001   -1.9145   -2.6687 C   0  0  0  0  0  0  0  0  0  0  0  0
    9.2478   -0.5459   -2.6184 C   0  0  0  0  0  0  0  0  0  0  0  0
   10.5776   -0.2250   -2.6292 N   0  0  0  0  0  0  0  0  0  0  0  0
   10.7101    1.1433   -2.6523 C   0  0  0  0  0  0  0  0  0  0  0  0
   11.9986    1.7163   -2.7327 C   0  0  0  0  0  0  0  0  0  0  0  0
   12.5887    1.9806   -3.9083 C   0  0  0  0  0  0  0  0  0  0  0  0
   12.0884    1.6140   -5.2884 C   0  0  0  0  0  0  0  0  0  0  0  0
   11.1381    0.9294   -5.6059 O   0  0  0  0  0  0  0  0  0  0  0  0
   12.9999    2.1872   -6.1613 N   0  0  0  0  0  0  0  0  0  0  0  0
   14.0200    2.8389   -5.4813 C   0  0  0  0  0  0  0  0  0  0  0  0
   15.0883    3.5043   -6.0469 C   0  0  0  0  0  0  0  0  0  0  0  0
   16.0011    4.1025   -5.1761 C   0  0  0  0  0  0  0  0  0  0  0  0
   15.8173    4.0202   -3.7835 C   0  0  0  0  0  0  0  0  0  0  0  0
   16.9578    4.7834   -2.7418 Cl  0  0  0  0  0  0  0  0  0  0  0  0
   14.7284    3.3384   -3.2281 C   0  0  0  0  0  0  0  0  0  0  0  0
   13.8321    2.7416   -4.0969 C   0  0  0  0  0  0  0  0  0  0  0  0
    9.4405    1.7014   -2.6198 C   0  0  0  0  0  0  0  0  0  0  0  0
    9.0918    3.1483   -2.6457 C   0  0  0  0  0  0  0  0  0  0  0  0
    8.5094    0.6171   -2.6247 C   0  0  0  0  0  0  0  0  0  0  0  0
    7.0559    0.6304   -2.6757 C   0  0  0  0  0  0  0  0  0  0  0  0
    6.4213    1.6813   -2.7178 O   0  0  0  0  0  0  0  0  0  0  0  0
    0.9442   -0.6781   -7.0980 H   0  0  0  0  0  0  0  0  0  0  0  0
    0.5726   -0.1510   -5.4505 H   0  0  0  0  0  0  0  0  0  0  0  0
    0.6863   -1.8842   -5.8388 H   0  0  0  0  0  0  0  0  0  0  0  0
    3.0084    0.0492   -6.2003 H   0  0  0  0  0  0  0  0  0  0  0  0
    3.0906   -1.7065   -6.2590 H   0  0  0  0  0  0  0  0  0  0  0  0
    1.2710   -1.9214   -3.6524 H   0  0  0  0  0  0  0  0  0  0  0  0
    2.5014   -1.7531   -2.4634 H   0  0  0  0  0  0  0  0  0  0  0  0
    2.8932   -3.5446   -4.9272 H   0  0  0  0  0  0  0  0  0  0  0  0
    2.2025   -4.0931   -3.3998 H   0  0  0  0  0  0  0  0  0  0  0  0
    3.8699   -3.5095   -3.4471 H   0  0  0  0  0  0  0  0  0  0  0  0
    4.7882    0.1246   -4.7101 H   0  0  0  0  0  0  0  0  0  0  0  0
    4.9134   -1.6234   -4.6752 H   0  0  0  0  0  0  0  0  0  0  0  0
    4.6665   -1.5291   -2.1228 H   0  0  0  0  0  0  0  0  0  0  0  0
    4.5654    0.2235   -2.2508 H   0  0  0  0  0  0  0  0  0  0  0  0
    6.7862   -2.5269   -3.4549 H   0  0  0  0  0  0  0  0  0  0  0  0
    6.8327   -2.4106   -1.7043 H   0  0  0  0  0  0  0  0  0  0  0  0
    9.0359   -2.4116   -3.5865 H   0  0  0  0  0  0  0  0  0  0  0  0
    9.0837   -2.5106   -1.8318 H   0  0  0  0  0  0  0  0  0  0  0  0
   11.3431   -0.8855   -2.6771 H   0  0  0  0  0  0  0  0  0  0  0  0
   12.4480    2.0508   -1.8007 H   0  0  0  0  0  0  0  0  0  0  0  0
   12.9070    2.1048   -7.1619 H   0  0  0  0  0  0  0  0  0  0  0  0
   15.2174    3.5671   -7.1213 H   0  0  0  0  0  0  0  0  0  0  0  0
   16.8557    4.6389   -5.5827 H   0  0  0  0  0  0  0  0  0  0  0  0
   14.5941    3.2918   -2.1533 H   0  0  0  0  0  0  0  0  0  0  0  0
    9.9846    3.7803   -2.6412 H   0  0  0  0  0  0  0  0  0  0  0  0
    8.4923    3.4111   -1.7684 H   0  0  0  0  0  0  0  0  0  0  0  0
    8.5181    3.3852   -3.5472 H   0  0  0  0  0  0  0  0  0  0  0  0
  1  2  1  0  0  0  0
  1 31  1  0  0  0  0
  1 32  1  0  0  0  0
  1 33  1  0  0  0  0
  2  3  1  0  0  0  0
  2 34  1  0  0  0  0
  2 35  1  0  0  0  0
  3  4  1  0  0  0  0
  3  6  1  0  0  0  0
  4  5  1  0  0  0  0
  4 36  1  0  0  0  0
  4 37  1  0  0  0  0
  5 38  1  0  0  0  0
  5 39  1  0  0  0  0
  5 40  1  0  0  0  0
  6  7  1  0  0  0  0
  6 41  1  0  0  0  0
  6 42  1  0  0  0  0
  7  8  1  0  0  0  0
  7 43  1  0  0  0  0
  7 44  1  0  0  0  0
  8  9  1  0  0  0  0
  8 29  1  0  0  0  0
  9 10  1  0  0  0  0
  9 45  1  0  0  0  0
  9 46  1  0  0  0  0
 10 11  1  0  0  0  0
 10 47  1  0  0  0  0
 10 48  1  0  0  0  0
 11 12  1  0  0  0  0
 11 28  2  0  0  0  0
 12 13  1  0  0  0  0
 12 49  1  0  0  0  0
 13 14  1  0  0  0  0
 13 26  2  0  0  0  0
 14 15  2  0  0  0  0
 14 50  1  0  0  0  0
 15 16  1  0  0  0  0
 15 25  1  0  0  0  0
 16 17  2  0  0  0  0
 16 18  1  0  0  0  0
 18 19  1  0  0  0  0
 18 51  1  0  0  0  0
 19 20  1  0  0  0  0
 19 25  2  0  0  0  0
 20 21  2  0  0  0  0
 20 52  1  0  0  0  0
 21 22  1  0  0  0  0
 21 53  1  0  0  0  0
 22 23  1  0  0  0  0
 22 24  2  0  0  0  0
 24 25  1  0  0  0  0
 24 54  1  0  0  0  0
 26 27  1  0  0  0  0
 26 28  1  0  0  0  0
 27 55  1  0  0  0  0
 27 56  1  0  0  0  0
 27 57  1  0  0  0  0
 28 29  1  0  0  0  0
 29 30  2  0  0  0  0
M  END
$$$$
