CHEMBL44622
 OpenBabel04072215383D

 37 39  0  0  0  0  0  0  0  0999 V2000
    2.0859    1.2415    1.1464 C   0  0  0  0  0  0  0  0  0  0  0  0
    0.9566    0.4526    0.5556 C   0  0  0  0  0  0  0  0  0  0  0  0
   -0.1419    1.0653   -0.0466 C   0  0  0  0  0  0  0  0  0  0  0  0
   -1.1746    0.2902   -0.5867 C   0  0  0  0  0  0  0  0  0  0  0  0
   -2.3616    0.9392   -1.2342 C   0  0  0  0  0  0  0  0  0  0  0  0
   -1.0855   -1.1111   -0.5351 C   0  0  0  0  0  0  0  0  0  0  0  0
    0.0214   -1.7516    0.0396 C   0  0  0  0  0  0  0  0  0  0  0  0
    0.1012   -3.1517    0.0101 N   0  0  0  0  0  0  0  0  0  0  0  0
    1.1967   -4.0014    0.1529 C   0  0  0  0  0  0  0  0  0  0  0  0
    2.3642   -3.5562    0.6345 N   0  0  0  0  0  0  0  0  0  0  0  0
    3.3913   -4.4106    0.7094 C   0  0  0  0  0  0  0  0  0  0  0  0
    3.3078   -5.7178    0.3150 C   0  0  0  0  0  0  0  0  0  0  0  0
    2.0826   -6.1110   -0.1839 C   0  0  0  0  0  0  0  0  0  0  0  0
    1.9140   -7.4467   -0.6631 N   0  0  0  0  0  0  0  0  0  0  0  0
    2.8286   -8.4804   -0.6020 C   0  0  0  0  0  0  0  0  0  0  0  0
    2.2037   -9.5685   -1.1535 C   0  0  0  0  0  0  0  0  0  0  0  0
    0.9467   -9.2515   -1.5745 N   0  0  0  0  0  0  0  0  0  0  0  0
    0.7932   -7.9781   -1.3022 C   0  0  0  0  0  0  0  0  0  0  0  0
   -0.2961   -7.2503   -1.6150 N   0  0  0  0  0  0  0  0  0  0  0  0
    1.0186   -5.2664   -0.2528 N   0  0  0  0  0  0  0  0  0  0  0  0
    1.0159   -0.9448    0.6010 C   0  0  0  0  0  0  0  0  0  0  0  0
    1.9218    2.3187    1.0486 H   0  0  0  0  0  0  0  0  0  0  0  0
    3.0227    0.9927    0.6361 H   0  0  0  0  0  0  0  0  0  0  0  0
    2.1890    1.0070    2.2108 H   0  0  0  0  0  0  0  0  0  0  0  0
   -0.1938    2.1503   -0.0941 H   0  0  0  0  0  0  0  0  0  0  0  0
   -2.3034    2.0309   -1.1745 H   0  0  0  0  0  0  0  0  0  0  0  0
   -3.2825    0.6250   -0.7330 H   0  0  0  0  0  0  0  0  0  0  0  0
   -2.4125    0.6619   -2.2919 H   0  0  0  0  0  0  0  0  0  0  0  0
   -1.8856   -1.7043   -0.9725 H   0  0  0  0  0  0  0  0  0  0  0  0
   -0.6641   -3.6388   -0.4295 H   0  0  0  0  0  0  0  0  0  0  0  0
    4.3140   -3.9899    1.0968 H   0  0  0  0  0  0  0  0  0  0  0  0
    4.1776   -6.3511    0.3887 H   0  0  0  0  0  0  0  0  0  0  0  0
    3.8149   -8.3827   -0.1757 H   0  0  0  0  0  0  0  0  0  0  0  0
    2.6011  -10.5712   -1.2742 H   0  0  0  0  0  0  0  0  0  0  0  0
   -1.1416   -7.7470   -1.8638 H   0  0  0  0  0  0  0  0  0  0  0  0
   -0.4219   -6.3459   -1.1637 H   0  0  0  0  0  0  0  0  0  0  0  0
    1.8758   -1.3901    1.0907 H   0  0  0  0  0  0  0  0  0  0  0  0
  1  2  1  0  0  0  0
  1 22  1  0  0  0  0
  1 23  1  0  0  0  0
  1 24  1  0  0  0  0
  2  3  1  0  0  0  0
  2 21  2  0  0  0  0
  3  4  2  0  0  0  0
  3 25  1  0  0  0  0
  4  5  1  0  0  0  0
  4  6  1  0  0  0  0
  5 26  1  0  0  0  0
  5 27  1  0  0  0  0
  5 28  1  0  0  0  0
  6  7  2  0  0  0  0
  6 29  1  0  0  0  0
  7  8  1  0  0  0  0
  7 21  1  0  0  0  0
  8  9  1  0  0  0  0
  8 30  1  0  0  0  0
  9 10  1  0  0  0  0
  9 20  2  0  0  0  0
 10 11  2  0  0  0  0
 11 12  1  0  0  0  0
 11 31  1  0  0  0  0
 12 13  2  0  0  0  0
 12 32  1  0  0  0  0
 13 14  1  0  0  0  0
 13 20  1  0  0  0  0
 14 15  1  0  0  0  0
 14 18  1  0  0  0  0
 15 16  2  0  0  0  0
 15 33  1  0  0  0  0
 16 17  1  0  0  0  0
 16 34  1  0  0  0  0
 17 18  2  0  0  0  0
 18 19  1  0  0  0  0
 19 35  1  0  0  0  0
 19 36  1  0  0  0  0
 21 37  1  0  0  0  0
M  END
$$$$
