CHEMBL4216073
 OpenBabel04072215383D

 52 55  0  0  0  0  0  0  0  0999 V2000
    3.1160   -5.5699    2.7336 C   0  0  0  0  0  0  0  0  0  0  0  0
    3.8544   -4.4778    2.0027 C   0  0  0  0  0  0  0  0  0  0  0  0
    3.2910   -3.8427    1.1181 O   0  0  0  0  0  0  0  0  0  0  0  0
    5.1532   -4.3292    2.4532 N   0  0  0  0  0  0  0  0  0  0  0  0
    5.9907   -3.3227    2.0339 C   0  0  0  0  0  0  0  0  0  0  0  0
    7.3385   -3.2381    2.3059 C   0  0  0  0  0  0  0  0  0  0  0  0
    7.7595   -2.0818    1.6906 N   0  0  0  0  0  0  0  0  0  0  0  0
    9.0382   -1.5263    1.6034 C   0  0  0  0  0  0  0  0  0  0  0  0
    9.2081   -0.3524    0.9568 C   0  0  0  0  0  0  0  0  0  0  0  0
   10.5584    0.2384    0.8810 C   0  0  0  0  0  0  0  0  0  0  0  0
   10.9335    1.1511    1.8843 C   0  0  0  0  0  0  0  0  0  0  0  0
   12.1962    1.7493    1.8881 C   0  0  0  0  0  0  0  0  0  0  0  0
   12.5930    2.7326    2.8280 N   0  0  0  0  0  0  0  0  0  0  0  0
   11.7345    3.4699    3.6299 C   0  0  0  0  0  0  0  0  0  0  0  0
   10.5110    3.3908    3.6460 O   0  0  0  0  0  0  0  0  0  0  0  0
   12.3609    4.5034    4.5026 C   0  0  0  0  0  0  0  0  0  0  0  0
   13.6067    4.3185    5.1096 C   0  0  0  0  0  0  0  0  0  0  0  0
   14.1054    5.2917    5.9807 C   0  0  0  0  0  0  0  0  0  0  0  0
   13.3713    6.4527    6.2407 C   0  0  0  0  0  0  0  0  0  0  0  0
   12.1276    6.6621    5.6291 C   0  0  0  0  0  0  0  0  0  0  0  0
   11.3304    7.9206    5.8771 C   0  0  0  0  0  0  0  0  0  0  0  0
   11.9391    8.7874    6.7347 F   0  0  0  0  0  0  0  0  0  0  0  0
   11.1102    8.6261    4.7331 F   0  0  0  0  0  0  0  0  0  0  0  0
   10.1028    7.6714    6.4084 F   0  0  0  0  0  0  0  0  0  0  0  0
   11.6272    5.6723    4.7674 C   0  0  0  0  0  0  0  0  0  0  0  0
   13.1151    1.3729    0.9052 C   0  0  0  0  0  0  0  0  0  0  0  0
   12.7428    0.4915   -0.1178 C   0  0  0  0  0  0  0  0  0  0  0  0
   11.4532   -0.0587   -0.1621 C   0  0  0  0  0  0  0  0  0  0  0  0
   11.0593   -0.9361   -1.3199 C   0  0  0  0  0  0  0  0  0  0  0  0
    8.0242    0.3001    0.3921 C   0  0  0  0  0  0  0  0  0  0  0  0
    6.7978   -0.2531    0.4728 C   0  0  0  0  0  0  0  0  0  0  0  0
    6.6344   -1.5014    1.1271 C   0  0  0  0  0  0  0  0  0  0  0  0
    5.5691   -2.2472    1.3123 N   0  0  0  0  0  0  0  0  0  0  0  0
    2.2140   -5.8329    2.1719 H   0  0  0  0  0  0  0  0  0  0  0  0
    2.8252   -5.2117    3.7245 H   0  0  0  0  0  0  0  0  0  0  0  0
    3.7357   -6.4656    2.8247 H   0  0  0  0  0  0  0  0  0  0  0  0
    5.5389   -5.0101    3.0901 H   0  0  0  0  0  0  0  0  0  0  0  0
    8.0210   -3.8785    2.8452 H   0  0  0  0  0  0  0  0  0  0  0  0
    9.8467   -2.0771    2.0668 H   0  0  0  0  0  0  0  0  0  0  0  0
   10.2105    1.3788    2.6632 H   0  0  0  0  0  0  0  0  0  0  0  0
   13.5556    3.0378    2.7734 H   0  0  0  0  0  0  0  0  0  0  0  0
   14.1808    3.4098    4.9529 H   0  0  0  0  0  0  0  0  0  0  0  0
   15.0638    5.1411    6.4740 H   0  0  0  0  0  0  0  0  0  0  0  0
   13.7729    7.1936    6.9320 H   0  0  0  0  0  0  0  0  0  0  0  0
   10.6504    5.8099    4.3009 H   0  0  0  0  0  0  0  0  0  0  0  0
   14.1180    1.7907    0.8879 H   0  0  0  0  0  0  0  0  0  0  0  0
   13.4646    0.2552   -0.8976 H   0  0  0  0  0  0  0  0  0  0  0  0
   11.8333   -0.9452   -2.0954 H   0  0  0  0  0  0  0  0  0  0  0  0
   10.1449   -0.5591   -1.7912 H   0  0  0  0  0  0  0  0  0  0  0  0
   10.9021   -1.9665   -0.9887 H   0  0  0  0  0  0  0  0  0  0  0  0
    8.1582    1.2629   -0.0925 H   0  0  0  0  0  0  0  0  0  0  0  0
    5.9210    0.2341    0.0625 H   0  0  0  0  0  0  0  0  0  0  0  0
  1  2  1  0  0  0  0
  1 34  1  0  0  0  0
  1 35  1  0  0  0  0
  1 36  1  0  0  0  0
  2  3  2  0  0  0  0
  2  4  1  0  0  0  0
  4  5  1  0  0  0  0
  4 37  1  0  0  0  0
  5  6  2  0  0  0  0
  5 33  1  0  0  0  0
  6  7  1  0  0  0  0
  6 38  1  0  0  0  0
  7  8  1  0  0  0  0
  7 32  1  0  0  0  0
  8  9  2  0  0  0  0
  8 39  1  0  0  0  0
  9 10  1  0  0  0  0
  9 30  1  0  0  0  0
 10 11  1  0  0  0  0
 10 28  2  0  0  0  0
 11 12  2  0  0  0  0
 11 40  1  0  0  0  0
 12 13  1  0  0  0  0
 12 26  1  0  0  0  0
 13 14  1  0  0  0  0
 13 41  1  0  0  0  0
 14 15  2  0  0  0  0
 14 16  1  0  0  0  0
 16 17  1  0  0  0  0
 16 25  2  0  0  0  0
 17 18  2  0  0  0  0
 17 42  1  0  0  0  0
 18 19  1  0  0  0  0
 18 43  1  0  0  0  0
 19 20  2  0  0  0  0
 19 44  1  0  0  0  0
 20 21  1  0  0  0  0
 20 25  1  0  0  0  0
 21 22  1  0  0  0  0
 21 23  1  0  0  0  0
 21 24  1  0  0  0  0
 25 45  1  0  0  0  0
 26 27  2  0  0  0  0
 26 46  1  0  0  0  0
 27 28  1  0  0  0  0
 27 47  1  0  0  0  0
 28 29  1  0  0  0  0
 29 48  1  0  0  0  0
 29 49  1  0  0  0  0
 29 50  1  0  0  0  0
 30 31  2  0  0  0  0
 30 51  1  0  0  0  0
 31 32  1  0  0  0  0
 31 52  1  0  0  0  0
 32 33  2  0  0  0  0
M  END
$$$$
