CHEMBL4459121
 OpenBabel04072215383D

 56 60  0  0  0  0  0  0  0  0999 V2000
    1.2252    1.4059    0.5588 C   0  0  0  0  0  0  0  0  0  0  0  0
    2.6502    0.9446    0.4476 C   0  0  0  0  0  0  0  0  0  0  0  0
    2.9369   -0.2474    0.5157 O   0  0  0  0  0  0  0  0  0  0  0  0
    3.5419    1.9772    0.2628 N   0  0  0  0  0  0  0  0  0  0  0  0
    4.9137    1.7663    0.1184 C   0  0  0  0  0  0  0  0  0  0  0  0
    5.4036    0.7310   -0.6617 C   0  0  0  0  0  0  0  0  0  0  0  0
    6.7801    0.6141   -0.8159 C   0  0  0  0  0  0  0  0  0  0  0  0
    7.3653   -0.3172   -1.6446 O   0  0  0  0  0  0  0  0  0  0  0  0
    6.8234   -0.5215   -2.8953 C   0  0  0  0  0  0  0  0  0  0  0  0
    7.0085   -1.7883   -3.4502 C   0  0  0  0  0  0  0  0  0  0  0  0
    6.5247   -2.0592   -4.7491 C   0  0  0  0  0  0  0  0  0  0  0  0
    5.8448   -1.0729   -5.5096 C   0  0  0  0  0  0  0  0  0  0  0  0
    5.4596   -1.3507   -6.8215 N   0  0  0  0  0  0  0  0  0  0  0  0
    4.4495   -1.0217   -7.7338 C   0  0  0  0  0  0  0  0  0  0  0  0
    4.4339   -2.0500   -8.6451 N   0  0  0  0  0  0  0  0  0  0  0  0
    3.2711   -2.4446   -9.1836 C   0  0  0  0  0  0  0  0  0  0  0  0
    2.0825   -1.9241   -8.7782 C   0  0  0  0  0  0  0  0  0  0  0  0
    2.1263   -0.8194   -7.9302 C   0  0  0  0  0  0  0  0  0  0  0  0
    0.8923   -0.2546   -7.5506 N   0  0  0  0  0  0  0  0  0  0  0  0
    0.8028    1.0632   -7.9096 C   0  0  0  0  0  0  0  0  0  0  0  0
    1.8019    1.9622   -7.9142 C   0  0  0  0  0  0  0  0  0  0  0  0
    1.2728    3.3532   -8.0969 C   0  0  0  0  0  0  0  0  0  0  0  0
    1.4630    4.3488   -7.1339 C   0  0  0  0  0  0  0  0  0  0  0  0
    0.5837    5.4525   -7.0567 C   0  0  0  0  0  0  0  0  0  0  0  0
   -0.4977    5.5697   -7.9445 C   0  0  0  0  0  0  0  0  0  0  0  0
   -1.3863    6.5519   -7.7866 F   0  0  0  0  0  0  0  0  0  0  0  0
   -0.6654    4.6406   -8.9508 C   0  0  0  0  0  0  0  0  0  0  0  0
    0.2408    3.5720   -9.0569 C   0  0  0  0  0  0  0  0  0  0  0  0
    3.1858    1.3715   -7.4951 C   0  0  0  0  0  0  0  0  0  0  0  0
    4.1236    2.1122   -7.1956 O   0  0  0  0  0  0  0  0  0  0  0  0
    3.3252   -0.1938   -7.5666 C   0  0  0  0  0  0  0  0  0  0  0  0
    5.6415    0.1598   -4.9226 C   0  0  0  0  0  0  0  0  0  0  0  0
    6.1616    0.4419   -3.6606 C   0  0  0  0  0  0  0  0  0  0  0  0
    6.0183    1.7025   -3.2152 F   0  0  0  0  0  0  0  0  0  0  0  0
    7.6198    1.4398   -0.0786 C   0  0  0  0  0  0  0  0  0  0  0  0
    7.0358    2.4347    0.6872 C   0  0  0  0  0  0  0  0  0  0  0  0
    5.7032    2.6527    0.7551 N   0  0  0  0  0  0  0  0  0  0  0  0
    0.6260    0.6090    1.0091 H   0  0  0  0  0  0  0  0  0  0  0  0
    0.8425    1.6211   -0.4420 H   0  0  0  0  0  0  0  0  0  0  0  0
    1.1486    2.2949    1.1896 H   0  0  0  0  0  0  0  0  0  0  0  0
    3.3105    2.8906    0.6267 H   0  0  0  0  0  0  0  0  0  0  0  0
    4.7283    0.0726   -1.1948 H   0  0  0  0  0  0  0  0  0  0  0  0
    7.5295   -2.5542   -2.8938 H   0  0  0  0  0  0  0  0  0  0  0  0
    6.6990   -3.0512   -5.1526 H   0  0  0  0  0  0  0  0  0  0  0  0
    5.8419   -2.2272   -7.1752 H   0  0  0  0  0  0  0  0  0  0  0  0
    3.3218   -3.2455   -9.9130 H   0  0  0  0  0  0  0  0  0  0  0  0
    1.1346   -2.2858   -9.1559 H   0  0  0  0  0  0  0  0  0  0  0  0
    0.9146   -0.2418   -6.5196 H   0  0  0  0  0  0  0  0  0  0  0  0
   -0.2288    1.2926   -8.1586 H   0  0  0  0  0  0  0  0  0  0  0  0
    2.2337    4.2545   -6.3770 H   0  0  0  0  0  0  0  0  0  0  0  0
    0.6843    6.1978   -6.2797 H   0  0  0  0  0  0  0  0  0  0  0  0
   -1.5250    4.7153   -9.6126 H   0  0  0  0  0  0  0  0  0  0  0  0
    0.0382    2.8372   -9.8332 H   0  0  0  0  0  0  0  0  0  0  0  0
    5.1370    0.9505   -5.4520 H   0  0  0  0  0  0  0  0  0  0  0  0
    8.6966    1.3260   -0.1139 H   0  0  0  0  0  0  0  0  0  0  0  0
    7.6424    3.1053    1.2890 H   0  0  0  0  0  0  0  0  0  0  0  0
  1  2  1  0  0  0  0
  1 38  1  0  0  0  0
  1 39  1  0  0  0  0
  1 40  1  0  0  0  0
  2  3  2  0  0  0  0
  2  4  1  0  0  0  0
  4  5  1  0  0  0  0
  4 41  1  0  0  0  0
  5  6  1  0  0  0  0
  5 37  2  0  0  0  0
  6  7  2  0  0  0  0
  6 42  1  0  0  0  0
  7  8  1  0  0  0  0
  7 35  1  0  0  0  0
  8  9  1  0  0  0  0
  9 10  1  0  0  0  0
  9 33  2  0  0  0  0
 10 11  2  0  0  0  0
 10 43  1  0  0  0  0
 11 12  1  0  0  0  0
 11 44  1  0  0  0  0
 12 13  1  0  0  0  0
 12 32  2  0  0  0  0
 13 14  1  0  0  0  0
 13 45  1  0  0  0  0
 14 15  1  0  0  0  0
 14 31  2  0  0  0  0
 15 16  2  0  0  0  0
 16 17  1  0  0  0  0
 16 46  1  0  0  0  0
 17 18  2  0  0  0  0
 17 47  1  0  0  0  0
 18 19  1  0  0  0  0
 18 31  1  0  0  0  0
 19 20  1  0  0  0  0
 19 48  1  0  0  0  0
 20 21  2  0  0  0  0
 20 49  1  0  0  0  0
 21 22  1  0  0  0  0
 21 29  1  0  0  0  0
 22 23  1  0  0  0  0
 22 28  2  0  0  0  0
 23 24  2  0  0  0  0
 23 50  1  0  0  0  0
 24 25  1  0  0  0  0
 24 51  1  0  0  0  0
 25 26  1  0  0  0  0
 25 27  2  0  0  0  0
 27 28  1  0  0  0  0
 27 52  1  0  0  0  0
 28 53  1  0  0  0  0
 29 30  2  0  0  0  0
 29 31  1  0  0  0  0
 32 33  1  0  0  0  0
 32 54  1  0  0  0  0
 33 34  1  0  0  0  0
 35 36  2  0  0  0  0
 35 55  1  0  0  0  0
 36 37  1  0  0  0  0
 36 56  1  0  0  0  0
M  END
$$$$
