CHEMBL3966382
 OpenBabel04072215373D

 75 78  0  0  1  0  0  0  0  0999 V2000
   -8.3027   16.3935    1.9287 C   0  0  0  0  0  0  0  0  0  0  0  0
   -8.0002   15.1058    1.2156 C   0  0  0  0  0  0  0  0  0  0  0  0
   -7.6104   15.1509   -0.1260 C   0  0  0  0  0  0  0  0  0  0  0  0
   -7.3015   13.9769   -0.7962 C   0  0  0  0  0  0  0  0  0  0  0  0
   -7.3846   12.7513   -0.1402 C   0  0  0  0  0  0  0  0  0  0  0  0
   -6.9349   11.6981   -0.8316 F   0  0  0  0  0  0  0  0  0  0  0  0
   -7.8155   12.6524    1.1923 C   0  0  0  0  0  0  0  0  0  0  0  0
   -7.9724   11.4209    1.9018 N   0  0  0  0  0  0  0  0  0  0  0  0
   -8.0970   10.1707    1.3147 C   0  0  0  0  0  0  0  0  0  0  0  0
   -8.1147    9.9531    0.1099 O   0  0  0  0  0  0  0  0  0  0  0  0
   -8.2842    9.1475    2.2319 N   0  0  0  0  0  0  0  0  0  0  0  0
   -8.4557    7.8235    1.7298 C   0  0  0  0  0  0  0  0  0  0  0  0
   -7.4934    7.2187    0.9128 C   0  0  0  0  0  0  0  0  0  0  0  0
   -7.7003    5.9210    0.4226 C   0  0  0  0  0  0  0  0  0  0  0  0
   -8.8753    5.2318    0.7305 C   0  0  0  0  0  0  0  0  0  0  0  0
   -9.0187    3.9727    0.1881 O   0  0  0  0  0  0  0  0  0  0  0  0
   -9.7070    3.0045    0.8944 C   0  0  0  0  0  0  0  0  0  0  0  0
   -9.7051    2.9300    2.2861 C   0  0  0  0  0  0  0  0  0  0  0  0
  -10.4079    1.9206    2.9103 C   0  0  0  0  0  0  0  0  0  0  0  0
  -11.0766    0.9430    2.2819 N   0  0  0  0  0  0  0  0  0  0  0  0
  -11.0296    0.9783    0.9239 C   0  0  0  0  0  0  0  0  0  0  0  0
  -11.6021   -0.0039    0.0646 C   0  0  0  0  0  0  0  0  0  0  0  0
  -11.3647    0.2509   -1.2712 C   0  0  0  0  0  0  0  0  0  0  0  0
  -11.7240   -0.5863   -2.4032 C   0  0  0  0  0  0  0  0  0  0  0  0
  -12.2139   -1.6965   -2.2766 O   0  0  0  0  0  0  0  0  0  0  0  0
  -11.4541   -0.0359   -3.6371 N   0  0  0  0  0  0  0  0  0  0  0  0
  -11.7514   -0.6962   -4.9002 C   0  0  1  0  0  0  0  0  0  0  0  0
  -13.2650   -0.9346   -5.0592 C   0  0  0  0  0  0  0  0  0  0  0  0
  -13.6738   -1.6014   -6.3674 C   0  0  0  0  0  0  0  0  0  0  0  0
  -13.0294   -2.9470   -6.5061 C   0  0  0  0  0  0  0  0  0  0  0  0
  -11.8091   -3.0707   -6.5426 O   0  0  0  0  0  0  0  0  0  0  0  0
  -13.9578   -3.9359   -6.6011 O   0  0  0  0  0  0  0  0  0  0  0  0
  -13.5068   -5.3008   -6.7903 C   0  0  0  0  0  0  0  0  0  0  0  0
  -12.7319   -5.7740   -5.5554 C   0  0  0  0  0  0  0  0  0  0  0  0
  -14.7592   -6.1737   -7.0031 C   0  0  0  0  0  0  0  0  0  0  0  0
  -12.6541   -5.4024   -8.0594 C   0  0  0  0  0  0  0  0  0  0  0  0
  -11.2508    0.2196   -6.0309 C   0  0  0  0  0  0  0  0  0  0  0  0
  -11.6004    1.3888   -6.1618 O   0  0  0  0  0  0  0  0  0  0  0  0
  -10.3514   -0.3545   -6.8592 O   0  0  0  0  0  0  0  0  0  0  0  0
  -10.5448    1.7398   -1.4814 S   0  0  0  0  0  0  0  0  0  0  0  0
  -10.3742    1.9809    0.2069 C   0  0  0  0  0  0  0  0  0  0  0  0
   -9.8514    5.8476    1.5167 C   0  0  0  0  0  0  0  0  0  0  0  0
   -9.6240    7.1210    2.0270 C   0  0  0  0  0  0  0  0  0  0  0  0
  -10.5867    7.7024    2.7587 F   0  0  0  0  0  0  0  0  0  0  0  0
   -8.1018   13.8556    1.8695 C   0  0  0  0  0  0  0  0  0  0  0  0
   -8.1470   17.2569    1.2697 H   0  0  0  0  0  0  0  0  0  0  0  0
   -7.6380   16.5172    2.7885 H   0  0  0  0  0  0  0  0  0  0  0  0
   -9.3452   16.4170    2.2582 H   0  0  0  0  0  0  0  0  0  0  0  0
   -7.5255   16.0975   -0.6548 H   0  0  0  0  0  0  0  0  0  0  0  0
   -6.9687   13.9960   -1.8292 H   0  0  0  0  0  0  0  0  0  0  0  0
   -8.1128   11.4770    2.8989 H   0  0  0  0  0  0  0  0  0  0  0  0
   -8.9144    9.3874    2.9848 H   0  0  0  0  0  0  0  0  0  0  0  0
   -6.5831    7.7536    0.6487 H   0  0  0  0  0  0  0  0  0  0  0  0
   -6.9414    5.4522   -0.2009 H   0  0  0  0  0  0  0  0  0  0  0  0
   -9.1837    3.6636    2.8920 H   0  0  0  0  0  0  0  0  0  0  0  0
  -10.4404    1.8812    3.9956 H   0  0  0  0  0  0  0  0  0  0  0  0
  -12.1299   -0.8825    0.4176 H   0  0  0  0  0  0  0  0  0  0  0  0
  -11.0237    0.8845   -3.6717 H   0  0  0  0  0  0  0  0  0  0  0  0
  -11.1831   -1.6296   -4.8799 H   0  0  0  0  0  0  0  0  0  0  0  0
  -13.7912    0.0252   -4.9817 H   0  0  0  0  0  0  0  0  0  0  0  0
  -13.6360   -1.5510   -4.2323 H   0  0  0  0  0  0  0  0  0  0  0  0
  -13.3793   -1.0077   -7.2384 H   0  0  0  0  0  0  0  0  0  0  0  0
  -14.7625   -1.7058   -6.4015 H   0  0  0  0  0  0  0  0  0  0  0  0
  -13.3324   -5.6758   -4.6439 H   0  0  0  0  0  0  0  0  0  0  0  0
  -11.8342   -5.1697   -5.3918 H   0  0  0  0  0  0  0  0  0  0  0  0
  -12.4071   -6.8131   -5.6596 H   0  0  0  0  0  0  0  0  0  0  0  0
  -15.4371   -6.1481   -6.1425 H   0  0  0  0  0  0  0  0  0  0  0  0
  -14.4883   -7.2194   -7.1935 H   0  0  0  0  0  0  0  0  0  0  0  0
  -15.3413   -5.8183   -7.8630 H   0  0  0  0  0  0  0  0  0  0  0  0
  -11.7451   -4.8029   -7.9965 H   0  0  0  0  0  0  0  0  0  0  0  0
  -13.2092   -5.0275   -8.9252 H   0  0  0  0  0  0  0  0  0  0  0  0
  -12.3448   -6.4325   -8.2506 H   0  0  0  0  0  0  0  0  0  0  0  0
  -10.1539   -1.2943   -6.6610 H   0  0  0  0  0  0  0  0  0  0  0  0
  -10.7870    5.3528    1.7591 H   0  0  0  0  0  0  0  0  0  0  0  0
   -8.4291   13.8375    2.9071 H   0  0  0  0  0  0  0  0  0  0  0  0
  1  2  1  0  0  0  0
  1 46  1  0  0  0  0
  1 47  1  0  0  0  0
  1 48  1  0  0  0  0
  2  3  1  0  0  0  0
  2 45  2  0  0  0  0
  3  4  2  0  0  0  0
  3 49  1  0  0  0  0
  4  5  1  0  0  0  0
  4 50  1  0  0  0  0
  5  6  1  0  0  0  0
  5  7  2  0  0  0  0
  7  8  1  0  0  0  0
  7 45  1  0  0  0  0
  8  9  1  0  0  0  0
  8 51  1  0  0  0  0
  9 10  2  0  0  0  0
  9 11  1  0  0  0  0
 11 12  1  0  0  0  0
 11 52  1  0  0  0  0
 12 13  1  0  0  0  0
 12 43  2  0  0  0  0
 13 14  2  0  0  0  0
 13 53  1  0  0  0  0
 14 15  1  0  0  0  0
 14 54  1  0  0  0  0
 15 16  1  0  0  0  0
 15 42  2  0  0  0  0
 16 17  1  0  0  0  0
 17 18  1  0  0  0  0
 17 41  2  0  0  0  0
 18 19  2  0  0  0  0
 18 55  1  0  0  0  0
 19 20  1  0  0  0  0
 19 56  1  0  0  0  0
 20 21  2  0  0  0  0
 21 22  1  0  0  0  0
 21 41  1  0  0  0  0
 22 23  2  0  0  0  0
 22 57  1  0  0  0  0
 23 24  1  0  0  0  0
 23 40  1  0  0  0  0
 24 25  2  0  0  0  0
 24 26  1  0  0  0  0
 26 27  1  0  0  0  0
 26 58  1  0  0  0  0
 27 28  1  0  0  0  0
 27 37  1  0  0  0  0
 27 59  1  6  0  0  0
 28 29  1  0  0  0  0
 28 60  1  0  0  0  0
 28 61  1  0  0  0  0
 29 30  1  0  0  0  0
 29 62  1  0  0  0  0
 29 63  1  0  0  0  0
 30 31  2  0  0  0  0
 30 32  1  0  0  0  0
 32 33  1  0  0  0  0
 33 34  1  0  0  0  0
 33 35  1  0  0  0  0
 33 36  1  0  0  0  0
 34 64  1  0  0  0  0
 34 65  1  0  0  0  0
 34 66  1  0  0  0  0
 35 67  1  0  0  0  0
 35 68  1  0  0  0  0
 35 69  1  0  0  0  0
 36 70  1  0  0  0  0
 36 71  1  0  0  0  0
 36 72  1  0  0  0  0
 37 38  2  0  0  0  0
 37 39  1  0  0  0  0
 39 73  1  0  0  0  0
 40 41  1  0  0  0  0
 42 43  1  0  0  0  0
 42 74  1  0  0  0  0
 43 44  1  0  0  0  0
 45 75  1  0  0  0  0
M  END
$$$$
