CHEMBL360781
 OpenBabel04072215363D

 54 57  0  0  0  0  0  0  0  0999 V2000
    5.2083    0.8476   -1.6589 C   0  0  0  0  0  0  0  0  0  0  0  0
    4.0682    0.0957   -1.2401 O   0  0  0  0  0  0  0  0  0  0  0  0
    4.3220   -1.0345   -0.5097 C   0  0  0  0  0  0  0  0  0  0  0  0
    5.4796   -1.1716    0.2737 C   0  0  0  0  0  0  0  0  0  0  0  0
    5.8240   -2.3656    0.9012 C   0  0  0  0  0  0  0  0  0  0  0  0
    7.0080   -2.4202    1.5300 N   0  0  0  0  0  0  0  0  0  0  0  0
    7.3962   -3.5904    2.0667 C   0  0  0  0  0  0  0  0  0  0  0  0
    6.6525   -4.7496    1.9856 C   0  0  0  0  0  0  0  0  0  0  0  0
    5.4190   -4.7003    1.3381 C   0  0  0  0  0  0  0  0  0  0  0  0
    4.7745   -5.9271    1.3026 O   0  0  0  0  0  0  0  0  0  0  0  0
    3.9833   -6.2788    0.2337 C   0  0  0  0  0  0  0  0  0  0  0  0
    4.2355   -5.9156   -1.0846 C   0  0  0  0  0  0  0  0  0  0  0  0
    3.2402   -6.0944   -2.0521 C   0  0  0  0  0  0  0  0  0  0  0  0
    2.0254   -6.7130   -1.7415 C   0  0  0  0  0  0  0  0  0  0  0  0
    0.9367   -6.7883   -2.6385 N   0  0  0  0  0  0  0  0  0  0  0  0
    0.9050   -6.2926   -3.9287 C   0  0  0  0  0  0  0  0  0  0  0  0
    1.8656   -5.8274   -4.5282 O   0  0  0  0  0  0  0  0  0  0  0  0
   -0.3776   -6.3099   -4.4658 N   0  0  0  0  0  0  0  0  0  0  0  0
   -0.6066   -5.8183   -5.7861 C   0  0  0  0  0  0  0  0  0  0  0  0
    0.2650   -6.2156   -6.8150 C   0  0  0  0  0  0  0  0  0  0  0  0
    0.1362   -5.7139   -8.1114 C   0  0  0  0  0  0  0  0  0  0  0  0
   -0.8805   -4.8144   -8.4126 C   0  0  0  0  0  0  0  0  0  0  0  0
   -1.7805   -4.4278   -7.4189 C   0  0  0  0  0  0  0  0  0  0  0  0
   -1.6540   -4.9337   -6.1092 C   0  0  0  0  0  0  0  0  0  0  0  0
   -2.5948   -4.4445   -5.0914 N   0  3  0  0  0  0  0  0  0  0  0  0
   -2.5071   -4.9076   -3.9418 O   0  0  0  0  0  0  0  0  0  0  0  0
   -3.4352   -3.6017   -5.4352 O   0  5  0  0  0  0  0  0  0  0  0  0
    1.8563   -7.2277   -0.4498 C   0  0  0  0  0  0  0  0  0  0  0  0
    2.8323   -7.0104    0.5334 C   0  0  0  0  0  0  0  0  0  0  0  0
    4.9463   -3.4598    0.8251 C   0  0  0  0  0  0  0  0  0  0  0  0
    3.6885   -3.2307    0.2239 C   0  0  0  0  0  0  0  0  0  0  0  0
    3.3945   -2.0741   -0.5070 C   0  0  0  0  0  0  0  0  0  0  0  0
    2.1997   -2.1901   -1.1572 O   0  0  0  0  0  0  0  0  0  0  0  0
    1.8524   -1.2779   -2.1831 C   0  0  0  0  0  0  0  0  0  0  0  0
    4.9804    1.2990   -2.6293 H   0  0  0  0  0  0  0  0  0  0  0  0
    6.1088    0.2376   -1.7983 H   0  0  0  0  0  0  0  0  0  0  0  0
    5.3984    1.6515   -0.9413 H   0  0  0  0  0  0  0  0  0  0  0  0
    6.1709   -0.3438    0.3867 H   0  0  0  0  0  0  0  0  0  0  0  0
    8.3593   -3.5748    2.5687 H   0  0  0  0  0  0  0  0  0  0  0  0
    7.0257   -5.6743    2.4105 H   0  0  0  0  0  0  0  0  0  0  0  0
    5.1445   -5.3890   -1.3617 H   0  0  0  0  0  0  0  0  0  0  0  0
    3.4402   -5.6764   -3.0336 H   0  0  0  0  0  0  0  0  0  0  0  0
    0.0957   -7.2476   -2.3085 H   0  0  0  0  0  0  0  0  0  0  0  0
   -1.1087   -6.1055   -3.7878 H   0  0  0  0  0  0  0  0  0  0  0  0
    1.0764   -6.9133   -6.6110 H   0  0  0  0  0  0  0  0  0  0  0  0
    0.8461   -6.0163   -8.8782 H   0  0  0  0  0  0  0  0  0  0  0  0
   -0.9652   -4.4077   -9.4176 H   0  0  0  0  0  0  0  0  0  0  0  0
   -2.5595   -3.7124   -7.6769 H   0  0  0  0  0  0  0  0  0  0  0  0
    0.9486   -7.7561   -0.1719 H   0  0  0  0  0  0  0  0  0  0  0  0
    2.6638   -7.3604    1.5485 H   0  0  0  0  0  0  0  0  0  0  0  0
    2.9157   -3.9976    0.2530 H   0  0  0  0  0  0  0  0  0  0  0  0
    1.1020   -1.7713   -2.8122 H   0  0  0  0  0  0  0  0  0  0  0  0
    2.6865   -1.0207   -2.8411 H   0  0  0  0  0  0  0  0  0  0  0  0
    1.3866   -0.3917   -1.7453 H   0  0  0  0  0  0  0  0  0  0  0  0
  1  2  1  0  0  0  0
  1 35  1  0  0  0  0
  1 36  1  0  0  0  0
  1 37  1  0  0  0  0
  2  3  1  0  0  0  0
  3  4  1  0  0  0  0
  3 32  2  0  0  0  0
  4  5  2  0  0  0  0
  4 38  1  0  0  0  0
  5  6  1  0  0  0  0
  5 30  1  0  0  0  0
  6  7  2  0  0  0  0
  7  8  1  0  0  0  0
  7 39  1  0  0  0  0
  8  9  2  0  0  0  0
  8 40  1  0  0  0  0
  9 10  1  0  0  0  0
  9 30  1  0  0  0  0
 10 11  1  0  0  0  0
 11 12  1  0  0  0  0
 11 29  2  0  0  0  0
 12 13  2  0  0  0  0
 12 41  1  0  0  0  0
 13 14  1  0  0  0  0
 13 42  1  0  0  0  0
 14 15  1  0  0  0  0
 14 28  2  0  0  0  0
 15 16  1  0  0  0  0
 15 43  1  0  0  0  0
 16 17  2  0  0  0  0
 16 18  1  0  0  0  0
 18 19  1  0  0  0  0
 18 44  1  0  0  0  0
 19 20  1  0  0  0  0
 19 24  2  0  0  0  0
 20 21  2  0  0  0  0
 20 45  1  0  0  0  0
 21 22  1  0  0  0  0
 21 46  1  0  0  0  0
 22 23  2  0  0  0  0
 22 47  1  0  0  0  0
 23 24  1  0  0  0  0
 23 48  1  0  0  0  0
 24 25  1  0  0  0  0
 25 26  2  0  0  0  0
 25 27  1  0  0  0  0
 28 29  1  0  0  0  0
 28 49  1  0  0  0  0
 29 50  1  0  0  0  0
 30 31  2  0  0  0  0
 31 32  1  0  0  0  0
 31 51  1  0  0  0  0
 32 33  1  0  0  0  0
 33 34  1  0  0  0  0
 34 52  1  0  0  0  0
 34 53  1  0  0  0  0
 34 54  1  0  0  0  0
M  CHG  2  25   1  27  -1
M  END
$$$$
