CHEMBL404639
 OpenBabel04072215373D

 55 59  0  0  0  0  0  0  0  0999 V2000
    4.8983    3.8985   -5.9475 O   0  0  0  0  0  0  0  0  0  0  0  0
    4.2959    3.8214   -4.8764 C   0  0  0  0  0  0  0  0  0  0  0  0
    3.0306    4.5667   -4.5327 C   0  0  0  0  0  0  0  0  0  0  0  0
    2.4952    5.5787   -5.5066 C   0  0  0  0  0  0  0  0  0  0  0  0
    1.1018    5.7285   -5.5975 C   0  0  0  0  0  0  0  0  0  0  0  0
    0.5381    6.7431   -6.3626 C   0  0  0  0  0  0  0  0  0  0  0  0
    1.3632    7.6239   -7.0589 C   0  0  0  0  0  0  0  0  0  0  0  0
    2.7478    7.4776   -6.9918 C   0  0  0  0  0  0  0  0  0  0  0  0
    3.3138    6.4704   -6.2164 C   0  0  0  0  0  0  0  0  0  0  0  0
    4.8058    2.9613   -3.9081 N   0  0  0  0  0  0  0  0  0  0  0  0
    4.3874    2.4432   -2.6788 C   0  0  0  0  0  0  0  0  0  0  0  0
    2.9489    2.6824   -1.8732 S   0  0  0  0  0  0  0  0  0  0  0  0
    5.2646    1.5382   -2.1300 N   0  0  0  0  0  0  0  0  0  0  0  0
    6.6656    1.5500   -2.2011 C   0  0  0  0  0  0  0  0  0  0  0  0
    7.3363    0.3521   -1.9634 C   0  0  0  0  0  0  0  0  0  0  0  0
    8.7281    0.3091   -2.0333 C   0  0  0  0  0  0  0  0  0  0  0  0
    9.4497    1.4586   -2.3767 C   0  0  0  0  0  0  0  0  0  0  0  0
   10.8131    1.4966   -2.5384 O   0  0  0  0  0  0  0  0  0  0  0  0
   11.4670    0.3853   -3.0173 C   0  0  0  0  0  0  0  0  0  0  0  0
   10.9349   -0.4748   -3.9790 C   0  0  0  0  0  0  0  0  0  0  0  0
   11.6495   -1.6005   -4.3342 C   0  0  0  0  0  0  0  0  0  0  0  0
   12.8730   -1.9160   -3.8781 N   0  0  0  0  0  0  0  0  0  0  0  0
   13.4355   -1.0185   -3.0235 C   0  0  0  0  0  0  0  0  0  0  0  0
   14.7471   -1.1164   -2.4822 C   0  0  0  0  0  0  0  0  0  0  0  0
   15.0654   -0.0780   -1.6260 C   0  0  0  0  0  0  0  0  0  0  0  0
   16.3194    0.1362   -0.8938 C   0  0  0  0  0  0  0  0  0  0  0  0
   16.3887    0.8006    0.3282 C   0  0  0  0  0  0  0  0  0  0  0  0
   17.6159    0.8827    0.9808 C   0  0  0  0  0  0  0  0  0  0  0  0
   18.7386    0.3155    0.3929 C   0  0  0  0  0  0  0  0  0  0  0  0
   18.5880   -0.3100   -0.8327 C   0  0  0  0  0  0  0  0  0  0  0  0
   17.4077   -0.4208   -1.4809 N   0  0  0  0  0  0  0  0  0  0  0  0
   13.7571    1.0213   -1.4964 S   0  0  0  0  0  0  0  0  0  0  0  0
   12.7726    0.1191   -2.5753 C   0  0  0  0  0  0  0  0  0  0  0  0
    8.7733    2.6653   -2.5323 C   0  0  0  0  0  0  0  0  0  0  0  0
    9.4497    3.7962   -2.7785 F   0  0  0  0  0  0  0  0  0  0  0  0
    7.3896    2.7205   -2.4439 C   0  0  0  0  0  0  0  0  0  0  0  0
    3.1952    5.0970   -3.5903 H   0  0  0  0  0  0  0  0  0  0  0  0
    2.2626    3.7960   -4.4068 H   0  0  0  0  0  0  0  0  0  0  0  0
    0.4439    5.0623   -5.0373 H   0  0  0  0  0  0  0  0  0  0  0  0
   -0.5404    6.8544   -6.4030 H   0  0  0  0  0  0  0  0  0  0  0  0
    0.9265    8.4268   -7.6440 H   0  0  0  0  0  0  0  0  0  0  0  0
    3.3936    8.1673   -7.5370 H   0  0  0  0  0  0  0  0  0  0  0  0
    4.3997    6.3892   -6.1654 H   0  0  0  0  0  0  0  0  0  0  0  0
    5.6293    2.5069   -4.2841 H   0  0  0  0  0  0  0  0  0  0  0  0
    4.8403    0.8574   -1.5061 H   0  0  0  0  0  0  0  0  0  0  0  0
    6.7871   -0.5662   -1.7677 H   0  0  0  0  0  0  0  0  0  0  0  0
    9.2306   -0.6354   -1.8440 H   0  0  0  0  0  0  0  0  0  0  0  0
    9.9662   -0.2941   -4.4304 H   0  0  0  0  0  0  0  0  0  0  0  0
   11.2249   -2.3178   -5.0327 H   0  0  0  0  0  0  0  0  0  0  0  0
   15.4303   -1.9245   -2.7104 H   0  0  0  0  0  0  0  0  0  0  0  0
   15.5076    1.2302    0.7916 H   0  0  0  0  0  0  0  0  0  0  0  0
   17.6882    1.3778    1.9448 H   0  0  0  0  0  0  0  0  0  0  0  0
   19.7064    0.3562    0.8797 H   0  0  0  0  0  0  0  0  0  0  0  0
   19.4378   -0.7590   -1.3392 H   0  0  0  0  0  0  0  0  0  0  0  0
    6.9118    3.6906   -2.5361 H   0  0  0  0  0  0  0  0  0  0  0  0
  1  2  2  0  0  0  0
  2  3  1  0  0  0  0
  2 10  1  0  0  0  0
  3  4  1  0  0  0  0
  3 37  1  0  0  0  0
  3 38  1  0  0  0  0
  4  5  1  0  0  0  0
  4  9  2  0  0  0  0
  5  6  2  0  0  0  0
  5 39  1  0  0  0  0
  6  7  1  0  0  0  0
  6 40  1  0  0  0  0
  7  8  2  0  0  0  0
  7 41  1  0  0  0  0
  8  9  1  0  0  0  0
  8 42  1  0  0  0  0
  9 43  1  0  0  0  0
 10 11  1  0  0  0  0
 10 44  1  0  0  0  0
 11 12  2  0  0  0  0
 11 13  1  0  0  0  0
 13 14  1  0  0  0  0
 13 45  1  0  0  0  0
 14 15  1  0  0  0  0
 14 36  2  0  0  0  0
 15 16  2  0  0  0  0
 15 46  1  0  0  0  0
 16 17  1  0  0  0  0
 16 47  1  0  0  0  0
 17 18  1  0  0  0  0
 17 34  2  0  0  0  0
 18 19  1  0  0  0  0
 19 20  1  0  0  0  0
 19 33  2  0  0  0  0
 20 21  2  0  0  0  0
 20 48  1  0  0  0  0
 21 22  1  0  0  0  0
 21 49  1  0  0  0  0
 22 23  2  0  0  0  0
 23 24  1  0  0  0  0
 23 33  1  0  0  0  0
 24 25  2  0  0  0  0
 24 50  1  0  0  0  0
 25 26  1  0  0  0  0
 25 32  1  0  0  0  0
 26 27  1  0  0  0  0
 26 31  2  0  0  0  0
 27 28  2  0  0  0  0
 27 51  1  0  0  0  0
 28 29  1  0  0  0  0
 28 52  1  0  0  0  0
 29 30  2  0  0  0  0
 29 53  1  0  0  0  0
 30 31  1  0  0  0  0
 30 54  1  0  0  0  0
 32 33  1  0  0  0  0
 34 35  1  0  0  0  0
 34 36  1  0  0  0  0
 36 55  1  0  0  0  0
M  END
$$$$
