CHEMBL3690518
 OpenBabel04072215373D

 48 52  0  0  0  0  0  0  0  0999 V2000
    2.9113    1.1608   -2.3034 N   0  0  0  0  0  0  0  0  0  0  0  0
    3.4086    0.6070   -1.1203 C   0  0  0  0  0  0  0  0  0  0  0  0
    4.0439   -0.5739   -1.2296 N   0  0  0  0  0  0  0  0  0  0  0  0
    4.5691   -1.0890   -0.0982 C   0  0  0  0  0  0  0  0  0  0  0  0
    5.2551   -2.4040   -0.1957 C   0  0  0  0  0  0  0  0  0  0  0  0
    5.7171   -3.0050   -1.4715 C   0  0  0  0  0  0  0  0  0  0  0  0
    6.6022   -4.0291   -1.4512 C   0  0  0  0  0  0  0  0  0  0  0  0
    6.8887   -4.6358   -0.2152 N   0  0  0  0  0  0  0  0  0  0  0  0
    7.5334   -5.8323    0.1501 C   0  0  0  0  0  0  0  0  0  0  0  0
    8.7387   -5.8877    1.0583 C   0  0  0  0  0  0  0  0  0  0  0  0
    9.5304   -4.7548    1.2829 C   0  0  0  0  0  0  0  0  0  0  0  0
   10.4459   -4.7289    2.3385 C   0  0  0  0  0  0  0  0  0  0  0  0
   10.5856   -5.8306    3.1845 C   0  0  0  0  0  0  0  0  0  0  0  0
    9.8308   -6.9864    2.9851 C   0  0  0  0  0  0  0  0  0  0  0  0
    9.8948   -8.1093    3.8593 N   0  0  0  0  0  0  0  0  0  0  0  0
   10.4170   -8.0906    5.1388 C   0  0  0  0  0  0  0  0  0  0  0  0
   10.8355   -7.0943    5.7203 O   0  0  0  0  0  0  0  0  0  0  0  0
   10.4275   -9.3299    5.7573 N   0  0  0  0  0  0  0  0  0  0  0  0
   10.8724   -9.4601    7.1155 C   0  0  0  0  0  0  0  0  0  0  0  0
   12.3182   -9.7537    7.4169 C   0  0  0  0  0  0  0  0  0  0  0  0
   11.2652  -10.7765    7.7236 C   0  0  0  0  0  0  0  0  0  0  0  0
    8.9440   -7.0198    1.8938 C   0  0  0  0  0  0  0  0  0  0  0  0
    6.3553   -6.4879    0.5323 C   0  0  0  0  0  0  0  0  0  0  0  0
    5.5515   -5.5994    1.2220 N   0  0  0  0  0  0  0  0  0  0  0  0
    6.0182   -4.4126    0.8482 C   0  0  0  0  0  0  0  0  0  0  0  0
    5.4637   -3.1125    0.9448 C   0  0  0  0  0  0  0  0  0  0  0  0
    4.5000   -0.5012    1.1171 N   0  0  0  0  0  0  0  0  0  0  0  0
    3.8691    0.6874    1.1748 C   0  0  0  0  0  0  0  0  0  0  0  0
    3.3099    1.2901    0.0791 C   0  0  0  0  0  0  0  0  0  0  0  0
    2.6836    2.4699    0.1795 F   0  0  0  0  0  0  0  0  0  0  0  0
    2.9792    0.4730   -3.0470 H   0  0  0  0  0  0  0  0  0  0  0  0
    1.9788    1.5446   -2.1906 H   0  0  0  0  0  0  0  0  0  0  0  0
    5.3070   -2.6115   -2.3982 H   0  0  0  0  0  0  0  0  0  0  0  0
    6.9759   -4.5133   -2.3440 H   0  0  0  0  0  0  0  0  0  0  0  0
    9.4033   -3.8505    0.6948 H   0  0  0  0  0  0  0  0  0  0  0  0
   11.0227   -3.8297    2.5443 H   0  0  0  0  0  0  0  0  0  0  0  0
   11.2920   -5.7471    4.0053 H   0  0  0  0  0  0  0  0  0  0  0  0
    9.3364   -8.9100    3.6114 H   0  0  0  0  0  0  0  0  0  0  0  0
   10.0272  -10.1267    5.2898 H   0  0  0  0  0  0  0  0  0  0  0  0
   10.3783   -8.7529    7.7811 H   0  0  0  0  0  0  0  0  0  0  0  0
   12.7737   -9.2161    8.2414 H   0  0  0  0  0  0  0  0  0  0  0  0
   12.9942   -9.9484    6.5928 H   0  0  0  0  0  0  0  0  0  0  0  0
   11.0254  -10.9414    8.7692 H   0  0  0  0  0  0  0  0  0  0  0  0
   11.2464  -11.6732    7.1187 H   0  0  0  0  0  0  0  0  0  0  0  0
    8.3300   -7.9054    1.7497 H   0  0  0  0  0  0  0  0  0  0  0  0
    6.2019   -7.5538    0.6490 H   0  0  0  0  0  0  0  0  0  0  0  0
    5.1948   -2.7474    1.9332 H   0  0  0  0  0  0  0  0  0  0  0  0
    3.8248    1.1550    2.1521 H   0  0  0  0  0  0  0  0  0  0  0  0
  1  2  1  0  0  0  0
  1 31  1  0  0  0  0
  1 32  1  0  0  0  0
  2  3  1  0  0  0  0
  2 29  2  0  0  0  0
  3  4  2  0  0  0  0
  4  5  1  0  0  0  0
  4 27  1  0  0  0  0
  5  6  1  0  0  0  0
  5 26  2  0  0  0  0
  6  7  2  0  0  0  0
  6 33  1  0  0  0  0
  7  8  1  0  0  0  0
  7 34  1  0  0  0  0
  8  9  1  0  0  0  0
  8 25  1  0  0  0  0
  9 10  1  0  0  0  0
  9 23  2  0  0  0  0
 10 11  1  0  0  0  0
 10 22  2  0  0  0  0
 11 12  2  0  0  0  0
 11 35  1  0  0  0  0
 12 13  1  0  0  0  0
 12 36  1  0  0  0  0
 13 14  2  0  0  0  0
 13 37  1  0  0  0  0
 14 15  1  0  0  0  0
 14 22  1  0  0  0  0
 15 16  1  0  0  0  0
 15 38  1  0  0  0  0
 16 17  2  0  0  0  0
 16 18  1  0  0  0  0
 18 19  1  0  0  0  0
 18 39  1  0  0  0  0
 19 20  1  0  0  0  0
 19 21  1  0  0  0  0
 19 40  1  0  0  0  0
 20 21  1  0  0  0  0
 20 41  1  0  0  0  0
 20 42  1  0  0  0  0
 21 43  1  0  0  0  0
 21 44  1  0  0  0  0
 22 45  1  0  0  0  0
 23 24  1  0  0  0  0
 23 46  1  0  0  0  0
 24 25  2  0  0  0  0
 25 26  1  0  0  0  0
 26 47  1  0  0  0  0
 27 28  2  0  0  0  0
 28 29  1  0  0  0  0
 28 48  1  0  0  0  0
 29 30  1  0  0  0  0
M  END
$$$$
