CHEMBL69071
 OpenBabel04072215383D

 61 65  0  0  1  0  0  0  0  0999 V2000
    2.2136    0.6264    0.0429 C   0  0  0  0  0  0  0  0  0  0  0  0
    0.7497    0.3751    0.1315 C   0  0  0  0  0  0  0  0  0  0  0  0
   -0.2328    1.4000    0.1494 C   0  0  0  0  0  0  0  0  0  0  0  0
   -1.4835    0.8158    0.1527 C   0  0  0  0  0  0  0  0  0  0  0  0
   -2.7535    1.5154    0.0826 C   0  0  0  0  0  0  0  0  0  0  0  0
   -2.8706    2.6271    0.6004 O   0  0  0  0  0  0  0  0  0  0  0  0
   -3.8084    0.9540   -0.6315 N   0  0  0  0  0  0  0  0  0  0  0  0
   -3.7980   -0.3203   -1.3545 C   0  0  0  0  0  0  0  0  0  0  0  0
   -4.4101   -0.2212   -2.7685 C   0  0  3  0  0  0  0  0  0  0  0  0
   -4.5419   -1.6272   -3.3531 C   0  0  0  0  0  0  0  0  0  0  0  0
   -5.7213    0.4563   -2.7922 N   0  0  0  0  0  0  0  0  0  0  0  0
   -5.6009    1.7826   -2.1434 C   0  0  3  0  0  0  0  0  0  0  0  0
   -6.9592    2.4769   -2.1780 C   0  0  0  0  0  0  0  0  0  0  0  0
   -5.0836    1.6720   -0.6901 C   0  0  0  0  0  0  0  0  0  0  0  0
   -1.2628   -0.5351    0.3077 N   0  0  0  0  0  0  0  0  0  0  0  0
    0.0742   -0.8415    0.1859 C   0  0  0  0  0  0  0  0  0  0  0  0
    0.5601   -2.1830    0.1652 C   0  0  0  0  0  0  0  0  0  0  0  0
   -0.1062   -3.3531    0.1600 C   0  0  0  0  0  0  0  0  0  0  0  0
   -1.5911   -3.6323    0.1259 C   0  0  0  0  0  0  0  0  0  0  0  0
   -2.5070   -2.8329    0.1551 O   0  0  0  0  0  0  0  0  0  0  0  0
   -1.7102   -5.0025    0.0469 N   0  0  0  0  0  0  0  0  0  0  0  0
   -0.4744   -5.6244    0.0541 C   0  0  0  0  0  0  0  0  0  0  0  0
   -0.3351   -6.9475   -0.0093 N   0  0  0  0  0  0  0  0  0  0  0  0
    0.9409   -7.3411    0.0107 C   0  0  0  0  0  0  0  0  0  0  0  0
    2.0135   -6.5322    0.0869 N   0  0  0  0  0  0  0  0  0  0  0  0
    1.8106   -5.1943    0.1506 C   0  0  0  0  0  0  0  0  0  0  0  0
    2.9317   -4.3437    0.2509 N   0  0  0  0  0  0  0  0  0  0  0  0
    4.2171   -4.6328   -0.2519 C   0  0  0  0  0  0  0  0  0  0  0  0
    5.3493   -4.0736    0.3545 C   0  0  0  0  0  0  0  0  0  0  0  0
    6.6251   -4.3253   -0.1615 C   0  0  0  0  0  0  0  0  0  0  0  0
    6.7708   -5.1121   -1.2986 C   0  0  0  0  0  0  0  0  0  0  0  0
    8.0047   -5.3437   -1.7688 F   0  0  0  0  0  0  0  0  0  0  0  0
    5.6556   -5.6382   -1.9395 C   0  0  0  0  0  0  0  0  0  0  0  0
    5.8174   -6.5926   -3.3628 Cl  0  0  0  0  0  0  0  0  0  0  0  0
    4.3847   -5.3876   -1.4253 C   0  0  0  0  0  0  0  0  0  0  0  0
    0.5364   -4.6839    0.1393 C   0  0  0  0  0  0  0  0  0  0  0  0
    2.4243    1.7016    0.0830 H   0  0  0  0  0  0  0  0  0  0  0  0
    2.6143    0.2440   -0.9006 H   0  0  0  0  0  0  0  0  0  0  0  0
    2.7417    0.1526    0.8751 H   0  0  0  0  0  0  0  0  0  0  0  0
   -0.0558    2.4694    0.1126 H   0  0  0  0  0  0  0  0  0  0  0  0
   -4.3622   -1.0294   -0.7369 H   0  0  0  0  0  0  0  0  0  0  0  0
   -2.7869   -0.6991   -1.4852 H   0  0  0  0  0  0  0  0  0  0  0  0
   -3.7214    0.3492   -3.4059 H   0  0  0  0  0  0  0  0  0  0  0  0
   -5.2384   -2.2400   -2.7693 H   0  0  0  0  0  0  0  0  0  0  0  0
   -3.5709   -2.1366   -3.3496 H   0  0  0  0  0  0  0  0  0  0  0  0
   -4.8975   -1.5944   -4.3874 H   0  0  0  0  0  0  0  0  0  0  0  0
   -6.3930   -0.1041   -2.2674 H   0  0  0  0  0  0  0  0  0  0  0  0
   -4.8956    2.3897   -2.7269 H   0  0  0  0  0  0  0  0  0  0  0  0
   -7.7144    1.9123   -1.6204 H   0  0  0  0  0  0  0  0  0  0  0  0
   -7.3126    2.5929   -3.2085 H   0  0  0  0  0  0  0  0  0  0  0  0
   -6.8915    3.4770   -1.7364 H   0  0  0  0  0  0  0  0  0  0  0  0
   -5.7939    1.1111   -0.0700 H   0  0  0  0  0  0  0  0  0  0  0  0
   -4.9982    2.6735   -0.2552 H   0  0  0  0  0  0  0  0  0  0  0  0
   -2.0064   -1.2159    0.4135 H   0  0  0  0  0  0  0  0  0  0  0  0
    1.6449   -2.2273    0.1211 H   0  0  0  0  0  0  0  0  0  0  0  0
   -2.5797   -5.5085   -0.0074 H   0  0  0  0  0  0  0  0  0  0  0  0
    1.1385   -8.4074   -0.0360 H   0  0  0  0  0  0  0  0  0  0  0  0
    2.9467   -3.9002    1.1648 H   0  0  0  0  0  0  0  0  0  0  0  0
    5.2558   -3.4513    1.2412 H   0  0  0  0  0  0  0  0  0  0  0  0
    7.5073   -3.9108    0.3184 H   0  0  0  0  0  0  0  0  0  0  0  0
    3.5170   -5.7862   -1.9455 H   0  0  0  0  0  0  0  0  0  0  0  0
  1  2  1  0  0  0  0
  1 37  1  0  0  0  0
  1 38  1  0  0  0  0
  1 39  1  0  0  0  0
  2  3  1  0  0  0  0
  2 16  2  0  0  0  0
  3  4  2  0  0  0  0
  3 40  1  0  0  0  0
  4  5  1  0  0  0  0
  4 15  1  0  0  0  0
  5  6  2  0  0  0  0
  5  7  1  0  0  0  0
  7  8  1  0  0  0  0
  7 14  1  0  0  0  0
  8  9  1  0  0  0  0
  8 41  1  0  0  0  0
  8 42  1  0  0  0  0
  9 10  1  0  0  0  0
  9 11  1  0  0  0  0
  9 43  1  0  0  0  0
 10 44  1  0  0  0  0
 10 45  1  0  0  0  0
 10 46  1  0  0  0  0
 11 12  1  0  0  0  0
 11 47  1  0  0  0  0
 12 13  1  0  0  0  0
 12 14  1  0  0  0  0
 12 48  1  0  0  0  0
 13 49  1  0  0  0  0
 13 50  1  0  0  0  0
 13 51  1  0  0  0  0
 14 52  1  0  0  0  0
 14 53  1  0  0  0  0
 15 16  1  0  0  0  0
 15 54  1  0  0  0  0
 16 17  1  0  0  0  0
 17 18  2  0  0  0  0
 17 55  1  0  0  0  0
 18 19  1  0  0  0  0
 18 36  1  0  0  0  0
 19 20  2  0  0  0  0
 19 21  1  0  0  0  0
 21 22  1  0  0  0  0
 21 56  1  0  0  0  0
 22 23  1  0  0  0  0
 22 36  2  0  0  0  0
 23 24  2  0  0  0  0
 24 25  1  0  0  0  0
 24 57  1  0  0  0  0
 25 26  2  0  0  0  0
 26 27  1  0  0  0  0
 26 36  1  0  0  0  0
 27 28  1  0  0  0  0
 27 58  1  0  0  0  0
 28 29  1  0  0  0  0
 28 35  2  0  0  0  0
 29 30  2  0  0  0  0
 29 59  1  0  0  0  0
 30 31  1  0  0  0  0
 30 60  1  0  0  0  0
 31 32  1  0  0  0  0
 31 33  2  0  0  0  0
 33 34  1  0  0  0  0
 33 35  1  0  0  0  0
 35 61  1  0  0  0  0
M  END
$$$$
