CHEMBL4225562
 OpenBabel04072215383D

 45 47  0  0  0  0  0  0  0  0999 V2000
    3.7717    3.2956    4.4843 C   0  0  0  0  0  0  0  0  0  0  0  0
    4.7997    2.7001    3.6687 N   0  0  0  0  0  0  0  0  0  0  0  0
    4.5595    2.3926    2.3403 C   0  0  0  0  0  0  0  0  0  0  0  0
    3.4835    2.5786    1.7822 O   0  0  0  0  0  0  0  0  0  0  0  0
    5.7118    1.8488    1.5865 C   0  0  0  0  0  0  0  0  0  0  0  0
    6.7297    1.0996    2.1756 C   0  0  0  0  0  0  0  0  0  0  0  0
    7.8005    0.6515    1.3932 C   0  0  0  0  0  0  0  0  0  0  0  0
    7.8192    0.9592    0.0301 C   0  0  0  0  0  0  0  0  0  0  0  0
    9.1735    0.5413   -1.0481 S   0  0  0  0  0  0  0  0  0  0  0  0
    9.8434   -0.9542   -0.3569 C   0  0  0  0  0  0  0  0  0  0  0  0
    9.3621   -2.1992   -0.7740 C   0  0  0  0  0  0  0  0  0  0  0  0
    9.9397   -3.3724   -0.2899 C   0  0  0  0  0  0  0  0  0  0  0  0
   11.0164   -3.3028    0.5928 C   0  0  0  0  0  0  0  0  0  0  0  0
   11.5084   -2.0630    1.0125 C   0  0  0  0  0  0  0  0  0  0  0  0
   12.6844   -2.0642    1.7793 N   0  0  0  0  0  0  0  0  0  0  0  0
   13.2521   -1.0711    2.5485 C   0  0  0  0  0  0  0  0  0  0  0  0
   12.4425   -0.0885    3.6264 S   0  0  0  0  0  0  0  0  0  0  0  0
   14.6335   -1.0682    2.5013 N   0  0  0  0  0  0  0  0  0  0  0  0
   15.3942   -1.3168    1.3383 C   0  0  0  0  0  0  0  0  0  0  0  0
   14.8580   -1.0881    0.0632 C   0  0  0  0  0  0  0  0  0  0  0  0
   15.5611   -1.4490   -1.0829 C   0  0  0  0  0  0  0  0  0  0  0  0
   16.8201   -2.0221   -0.9548 C   0  0  0  0  0  0  0  0  0  0  0  0
   17.6507   -2.5640   -2.3587 Cl  0  0  0  0  0  0  0  0  0  0  0  0
   17.4010   -2.1726    0.3061 C   0  0  0  0  0  0  0  0  0  0  0  0
   16.6972   -1.7960    1.4569 C   0  0  0  0  0  0  0  0  0  0  0  0
   10.9216   -0.8902    0.5356 C   0  0  0  0  0  0  0  0  0  0  0  0
    6.8266    1.6663   -0.5551 N   0  0  0  0  0  0  0  0  0  0  0  0
    5.7957    2.0852    0.2239 C   0  0  0  0  0  0  0  0  0  0  0  0
    4.1994    3.5383    5.4627 H   0  0  0  0  0  0  0  0  0  0  0  0
    2.9535    2.5777    4.6065 H   0  0  0  0  0  0  0  0  0  0  0  0
    3.3961    4.1998    4.0061 H   0  0  0  0  0  0  0  0  0  0  0  0
    5.7472    2.7038    4.0217 H   0  0  0  0  0  0  0  0  0  0  0  0
    6.7069    0.8431    3.2294 H   0  0  0  0  0  0  0  0  0  0  0  0
    8.5940    0.0894    1.8604 H   0  0  0  0  0  0  0  0  0  0  0  0
    8.5510   -2.2647   -1.4962 H   0  0  0  0  0  0  0  0  0  0  0  0
    9.5664   -4.3397   -0.6168 H   0  0  0  0  0  0  0  0  0  0  0  0
   11.4657   -4.2272    0.9484 H   0  0  0  0  0  0  0  0  0  0  0  0
   13.2420   -2.9096    1.7295 H   0  0  0  0  0  0  0  0  0  0  0  0
   15.1200   -0.7985    3.3497 H   0  0  0  0  0  0  0  0  0  0  0  0
   13.8890   -0.6105   -0.0583 H   0  0  0  0  0  0  0  0  0  0  0  0
   15.1113   -1.2908   -2.0598 H   0  0  0  0  0  0  0  0  0  0  0  0
   18.3934   -2.6058    0.3981 H   0  0  0  0  0  0  0  0  0  0  0  0
   17.1540   -1.9447    2.4311 H   0  0  0  0  0  0  0  0  0  0  0  0
   11.3392    0.0796    0.7908 H   0  0  0  0  0  0  0  0  0  0  0  0
    5.0282    2.6536   -0.2986 H   0  0  0  0  0  0  0  0  0  0  0  0
  1  2  1  0  0  0  0
  1 29  1  0  0  0  0
  1 30  1  0  0  0  0
  1 31  1  0  0  0  0
  2  3  1  0  0  0  0
  2 32  1  0  0  0  0
  3  4  2  0  0  0  0
  3  5  1  0  0  0  0
  5  6  1  0  0  0  0
  5 28  2  0  0  0  0
  6  7  2  0  0  0  0
  6 33  1  0  0  0  0
  7  8  1  0  0  0  0
  7 34  1  0  0  0  0
  8  9  1  0  0  0  0
  8 27  2  0  0  0  0
  9 10  1  0  0  0  0
 10 11  1  0  0  0  0
 10 26  2  0  0  0  0
 11 12  2  0  0  0  0
 11 35  1  0  0  0  0
 12 13  1  0  0  0  0
 12 36  1  0  0  0  0
 13 14  2  0  0  0  0
 13 37  1  0  0  0  0
 14 15  1  0  0  0  0
 14 26  1  0  0  0  0
 15 16  1  0  0  0  0
 15 38  1  0  0  0  0
 16 17  2  0  0  0  0
 16 18  1  0  0  0  0
 18 19  1  0  0  0  0
 18 39  1  0  0  0  0
 19 20  1  0  0  0  0
 19 25  2  0  0  0  0
 20 21  2  0  0  0  0
 20 40  1  0  0  0  0
 21 22  1  0  0  0  0
 21 41  1  0  0  0  0
 22 23  1  0  0  0  0
 22 24  2  0  0  0  0
 24 25  1  0  0  0  0
 24 42  1  0  0  0  0
 25 43  1  0  0  0  0
 26 44  1  0  0  0  0
 27 28  1  0  0  0  0
 28 45  1  0  0  0  0
M  END
$$$$
