CHEMBL403522
 OpenBabel04072215373D

 74 80  0  0  0  0  0  0  0  0999 V2000
   -0.2324   -6.6238    5.3201 C   0  0  0  0  0  0  0  0  0  0  0  0
    0.5734   -5.5590    5.8086 O   0  0  0  0  0  0  0  0  0  0  0  0
    1.4499   -4.9945    4.9136 C   0  0  0  0  0  0  0  0  0  0  0  0
    1.2528   -5.1261    3.5313 C   0  0  0  0  0  0  0  0  0  0  0  0
    2.1449   -4.6215    2.6065 C   0  0  0  0  0  0  0  0  0  0  0  0
    2.0295   -4.9134    1.2427 N   0  0  0  0  0  0  0  0  0  0  0  0
    0.9199   -5.2337    0.4533 C   0  0  0  0  0  0  0  0  0  0  0  0
    1.0725   -4.6120   -0.7222 N   0  0  0  0  0  0  0  0  0  0  0  0
    0.0140   -4.5579   -1.5140 C   0  0  0  0  0  0  0  0  0  0  0  0
   -1.1729   -5.1576   -1.1724 C   0  0  0  0  0  0  0  0  0  0  0  0
   -2.1451   -5.2101   -2.2440 C   0  0  0  0  0  0  0  0  0  0  0  0
   -2.5200   -4.1511   -2.7336 O   0  0  0  0  0  0  0  0  0  0  0  0
   -2.4761   -6.4741   -2.6504 N   0  0  0  0  0  0  0  0  0  0  0  0
   -3.7399   -6.7465   -3.2393 C   0  0  0  0  0  0  0  0  0  0  0  0
   -3.7758   -7.6709   -4.3007 C   0  0  0  0  0  0  0  0  0  0  0  0
   -2.5278   -8.2741   -4.8924 C   0  0  0  0  0  0  0  0  0  0  0  0
   -5.0077   -8.0244   -4.8622 C   0  0  0  0  0  0  0  0  0  0  0  0
   -6.1918   -7.4636   -4.4008 C   0  0  0  0  0  0  0  0  0  0  0  0
   -6.1683   -6.5307   -3.3658 C   0  0  0  0  0  0  0  0  0  0  0  0
   -4.9532   -6.1583   -2.7593 C   0  0  0  0  0  0  0  0  0  0  0  0
   -5.0756   -5.1630   -1.6267 C   0  0  0  0  0  0  0  0  0  0  0  0
   -1.9023   -7.5047   -1.8825 C   0  0  0  0  0  0  0  0  0  0  0  0
   -1.8872   -8.8000   -2.0460 N   0  0  0  0  0  0  0  0  0  0  0  0
   -2.8910   -9.1233   -1.1989 C   0  0  0  0  0  0  0  0  0  0  0  0
   -3.8568  -10.0869   -1.5176 C   0  0  0  0  0  0  0  0  0  0  0  0
   -5.1544   -9.8116   -1.1081 C   0  0  0  0  0  0  0  0  0  0  0  0
   -5.3984   -8.7572   -0.2218 C   0  0  0  0  0  0  0  0  0  0  0  0
   -4.3570   -7.9268    0.3163 C   0  0  0  0  0  0  0  0  0  0  0  0
   -3.0625   -8.0871   -0.2456 C   0  0  0  0  0  0  0  0  0  0  0  0
   -1.8786   -7.2896   -0.4919 N   0  0  0  0  0  0  0  0  0  0  0  0
   -1.2259   -6.0353   -0.1078 C   0  0  0  0  0  0  0  0  0  0  0  0
   -0.1683   -6.0260    0.7759 N   0  0  0  0  0  0  0  0  0  0  0  0
    3.2337   -3.8868    3.0889 C   0  0  0  0  0  0  0  0  0  0  0  0
    3.4363   -3.7274    4.4665 C   0  0  0  0  0  0  0  0  0  0  0  0
    2.5814   -4.3120    5.4211 C   0  0  0  0  0  0  0  0  0  0  0  0
    2.9070   -4.2680    6.7673 N   0  0  0  0  0  0  0  0  0  0  0  0
    4.3032   -4.2925    7.2294 C   0  0  0  0  0  0  0  0  0  0  0  0
    4.4684   -5.2869    8.4070 C   0  0  0  0  0  0  0  0  0  0  0  0
    3.5275   -5.0247    9.5188 N   0  0  0  0  0  0  0  0  0  0  0  0
    3.7127   -5.9946   10.5944 C   0  0  0  0  0  0  0  0  0  0  0  0
    2.1433   -5.0759    8.9874 C   0  0  0  0  0  0  0  0  0  0  0  0
    1.9194   -4.0634    7.8367 C   0  0  0  0  0  0  0  0  0  0  0  0
   -0.8336   -6.9928    6.1537 H   0  0  0  0  0  0  0  0  0  0  0  0
    0.3957   -7.4438    4.9570 H   0  0  0  0  0  0  0  0  0  0  0  0
   -0.9361   -6.2904    4.5500 H   0  0  0  0  0  0  0  0  0  0  0  0
    0.4008   -5.6650    3.1472 H   0  0  0  0  0  0  0  0  0  0  0  0
    2.5931   -4.2953    0.6624 H   0  0  0  0  0  0  0  0  0  0  0  0
    0.1773   -4.1008   -2.4894 H   0  0  0  0  0  0  0  0  0  0  0  0
   -1.6027   -7.9222   -4.4275 H   0  0  0  0  0  0  0  0  0  0  0  0
   -2.4507   -7.9966   -5.9456 H   0  0  0  0  0  0  0  0  0  0  0  0
   -2.5536   -9.3626   -4.7887 H   0  0  0  0  0  0  0  0  0  0  0  0
   -5.0449   -8.7389   -5.6787 H   0  0  0  0  0  0  0  0  0  0  0  0
   -7.1403   -7.7461   -4.8463 H   0  0  0  0  0  0  0  0  0  0  0  0
   -7.1123   -6.1138   -3.0171 H   0  0  0  0  0  0  0  0  0  0  0  0
   -6.0890   -5.1560   -1.2032 H   0  0  0  0  0  0  0  0  0  0  0  0
   -4.8751   -4.1480   -1.9796 H   0  0  0  0  0  0  0  0  0  0  0  0
   -4.4114   -5.3925   -0.7917 H   0  0  0  0  0  0  0  0  0  0  0  0
   -3.6668  -10.7950   -2.3193 H   0  0  0  0  0  0  0  0  0  0  0  0
   -5.9752  -10.3586   -1.5809 H   0  0  0  0  0  0  0  0  0  0  0  0
   -6.4451   -8.5233   -0.0232 H   0  0  0  0  0  0  0  0  0  0  0  0
   -4.6453   -7.0688    0.9127 H   0  0  0  0  0  0  0  0  0  0  0  0
    3.9485   -3.4240    2.4097 H   0  0  0  0  0  0  0  0  0  0  0  0
    4.2896   -3.1332    4.7988 H   0  0  0  0  0  0  0  0  0  0  0  0
    4.5959   -3.2846    7.5463 H   0  0  0  0  0  0  0  0  0  0  0  0
    4.9936   -4.6097    6.4391 H   0  0  0  0  0  0  0  0  0  0  0  0
    5.4998   -5.2150    8.7734 H   0  0  0  0  0  0  0  0  0  0  0  0
    4.3279   -6.3092    8.0283 H   0  0  0  0  0  0  0  0  0  0  0  0
    4.7303   -5.9280   10.9962 H   0  0  0  0  0  0  0  0  0  0  0  0
    3.5398   -7.0256   10.2660 H   0  0  0  0  0  0  0  0  0  0  0  0
    3.0336   -5.7783   11.4264 H   0  0  0  0  0  0  0  0  0  0  0  0
    1.4372   -4.8420    9.7935 H   0  0  0  0  0  0  0  0  0  0  0  0
    1.9102   -6.0885    8.6300 H   0  0  0  0  0  0  0  0  0  0  0  0
    2.0445   -3.0456    8.2268 H   0  0  0  0  0  0  0  0  0  0  0  0
    0.8806   -4.1185    7.5042 H   0  0  0  0  0  0  0  0  0  0  0  0
  1  2  1  0  0  0  0
  1 43  1  0  0  0  0
  1 44  1  0  0  0  0
  1 45  1  0  0  0  0
  2  3  1  0  0  0  0
  3  4  1  0  0  0  0
  3 35  2  0  0  0  0
  4  5  2  0  0  0  0
  4 46  1  0  0  0  0
  5  6  1  0  0  0  0
  5 33  1  0  0  0  0
  6  7  1  0  0  0  0
  6 47  1  0  0  0  0
  7  8  1  0  0  0  0
  7 32  2  0  0  0  0
  8  9  2  0  0  0  0
  9 10  1  0  0  0  0
  9 48  1  0  0  0  0
 10 11  1  0  0  0  0
 10 31  2  0  0  0  0
 11 12  2  0  0  0  0
 11 13  1  0  0  0  0
 13 14  1  0  0  0  0
 13 22  1  0  0  0  0
 14 15  1  0  0  0  0
 14 20  2  0  0  0  0
 15 16  1  0  0  0  0
 15 17  2  0  0  0  0
 16 49  1  0  0  0  0
 16 50  1  0  0  0  0
 16 51  1  0  0  0  0
 17 18  1  0  0  0  0
 17 52  1  0  0  0  0
 18 19  2  0  0  0  0
 18 53  1  0  0  0  0
 19 20  1  0  0  0  0
 19 54  1  0  0  0  0
 20 21  1  0  0  0  0
 21 55  1  0  0  0  0
 21 56  1  0  0  0  0
 21 57  1  0  0  0  0
 22 23  2  0  0  0  0
 22 30  1  0  0  0  0
 23 24  1  0  0  0  0
 24 25  1  0  0  0  0
 24 29  2  0  0  0  0
 25 26  2  0  0  0  0
 25 58  1  0  0  0  0
 26 27  1  0  0  0  0
 26 59  1  0  0  0  0
 27 28  2  0  0  0  0
 27 60  1  0  0  0  0
 28 29  1  0  0  0  0
 28 61  1  0  0  0  0
 29 30  1  0  0  0  0
 30 31  1  0  0  0  0
 31 32  1  0  0  0  0
 33 34  2  0  0  0  0
 33 62  1  0  0  0  0
 34 35  1  0  0  0  0
 34 63  1  0  0  0  0
 35 36  1  0  0  0  0
 36 37  1  0  0  0  0
 36 42  1  0  0  0  0
 37 38  1  0  0  0  0
 37 64  1  0  0  0  0
 37 65  1  0  0  0  0
 38 39  1  0  0  0  0
 38 66  1  0  0  0  0
 38 67  1  0  0  0  0
 39 40  1  0  0  0  0
 39 41  1  0  0  0  0
 40 68  1  0  0  0  0
 40 69  1  0  0  0  0
 40 70  1  0  0  0  0
 41 42  1  0  0  0  0
 41 71  1  0  0  0  0
 41 72  1  0  0  0  0
 42 73  1  0  0  0  0
 42 74  1  0  0  0  0
M  END
$$$$
