CHEMBL2006873
 OpenBabel04072215363D

 55 59  0  0  0  0  0  0  0  0999 V2000
    2.1772    2.0932   -0.4278 N   0  0  0  0  0  0  0  0  0  0  0  0
    1.8414    1.1863    0.5345 C   0  0  0  0  0  0  0  0  0  0  0  0
    0.7246    0.6810    0.5695 O   0  0  0  0  0  0  0  0  0  0  0  0
    2.8850    0.8225    1.5204 C   0  0  0  0  0  0  0  0  0  0  0  0
    2.6264   -0.1641    2.4918 C   0  0  0  0  0  0  0  0  0  0  0  0
    3.6095   -0.5526    3.4034 C   0  0  0  0  0  0  0  0  0  0  0  0
    4.8873    0.0175    3.3837 C   0  0  0  0  0  0  0  0  0  0  0  0
    5.1232    0.9901    2.4124 C   0  0  0  0  0  0  0  0  0  0  0  0
    6.2390    1.7184    2.0911 N   0  0  0  0  0  0  0  0  0  0  0  0
    5.9551    2.5031    0.9999 C   0  0  0  0  0  0  0  0  0  0  0  0
    6.9323    3.3389    0.3145 C   0  0  0  0  0  0  0  0  0  0  0  0
    8.2773    2.9580    0.2146 C   0  0  0  0  0  0  0  0  0  0  0  0
    9.1894    3.7460   -0.4935 C   0  0  0  0  0  0  0  0  0  0  0  0
    8.7634    4.9475   -1.0657 C   0  0  0  0  0  0  0  0  0  0  0  0
    9.7014    5.8122   -1.6837 N   0  0  0  0  0  0  0  0  0  0  0  0
   10.8934    5.4642   -2.2778 C   0  0  0  0  0  0  0  0  0  0  0  0
   11.5430    6.6146   -2.6739 C   0  0  0  0  0  0  0  0  0  0  0  0
   10.7416    7.7195   -2.2775 C   0  0  0  0  0  0  0  0  0  0  0  0
   11.0640    9.1750   -2.3839 C   0  0  0  0  0  0  0  0  0  0  0  0
   11.2888    9.5813   -3.7810 N   0  0  0  0  0  0  0  0  0  0  0  0
   10.0477    9.4877   -4.5700 C   0  0  0  0  0  0  0  0  0  0  0  0
   10.2339    9.9947   -6.0011 C   0  0  0  0  0  0  0  0  0  0  0  0
   10.7709   11.4183   -6.0136 C   0  0  0  0  0  0  0  0  0  0  0  0
   12.0551   11.4870   -5.2004 C   0  0  0  0  0  0  0  0  0  0  0  0
   11.8385   10.9476   -3.7876 C   0  0  0  0  0  0  0  0  0  0  0  0
    9.5982    7.1874   -1.7183 C   0  0  0  0  0  0  0  0  0  0  0  0
    7.4201    5.3307   -0.9791 C   0  0  0  0  0  0  0  0  0  0  0  0
    6.5092    4.5198   -0.3042 C   0  0  0  0  0  0  0  0  0  0  0  0
    4.6871    2.3748    0.6620 N   0  0  0  0  0  0  0  0  0  0  0  0
    4.1622    1.4096    1.4962 C   0  0  0  0  0  0  0  0  0  0  0  0
    1.5023    2.3381   -1.1382 H   0  0  0  0  0  0  0  0  0  0  0  0
    3.1119    2.5001   -0.4630 H   0  0  0  0  0  0  0  0  0  0  0  0
    1.6456   -0.6361    2.5223 H   0  0  0  0  0  0  0  0  0  0  0  0
    3.3806   -1.3250    4.1352 H   0  0  0  0  0  0  0  0  0  0  0  0
    5.6538   -0.2969    4.0837 H   0  0  0  0  0  0  0  0  0  0  0  0
    7.1331    1.6660    2.5570 H   0  0  0  0  0  0  0  0  0  0  0  0
    8.6326    2.0361    0.6671 H   0  0  0  0  0  0  0  0  0  0  0  0
   10.2287    3.4309   -0.5330 H   0  0  0  0  0  0  0  0  0  0  0  0
   11.1747    4.4289   -2.4122 H   0  0  0  0  0  0  0  0  0  0  0  0
   12.4982    6.6634   -3.1803 H   0  0  0  0  0  0  0  0  0  0  0  0
   11.9699    9.3477   -1.7881 H   0  0  0  0  0  0  0  0  0  0  0  0
   10.2658    9.7737   -1.9243 H   0  0  0  0  0  0  0  0  0  0  0  0
    9.2355   10.0496   -4.0904 H   0  0  0  0  0  0  0  0  0  0  0  0
    9.7228    8.4429   -4.6393 H   0  0  0  0  0  0  0  0  0  0  0  0
    9.2774    9.9546   -6.5343 H   0  0  0  0  0  0  0  0  0  0  0  0
   10.9280    9.3357   -6.5380 H   0  0  0  0  0  0  0  0  0  0  0  0
   10.0242   12.0992   -5.5861 H   0  0  0  0  0  0  0  0  0  0  0  0
   10.9566   11.7445   -7.0421 H   0  0  0  0  0  0  0  0  0  0  0  0
   12.4066   12.5235   -5.1492 H   0  0  0  0  0  0  0  0  0  0  0  0
   12.8395   10.9058   -5.7008 H   0  0  0  0  0  0  0  0  0  0  0  0
   11.1823   11.6343   -3.2362 H   0  0  0  0  0  0  0  0  0  0  0  0
   12.8096   10.9485   -3.2768 H   0  0  0  0  0  0  0  0  0  0  0  0
    8.7599    7.6935   -1.2612 H   0  0  0  0  0  0  0  0  0  0  0  0
    7.0516    6.2334   -1.4602 H   0  0  0  0  0  0  0  0  0  0  0  0
    5.4614    4.8168   -0.2618 H   0  0  0  0  0  0  0  0  0  0  0  0
  1  2  1  0  0  0  0
  1 31  1  0  0  0  0
  1 32  1  0  0  0  0
  2  3  2  0  0  0  0
  2  4  1  0  0  0  0
  4  5  1  0  0  0  0
  4 30  2  0  0  0  0
  5  6  2  0  0  0  0
  5 33  1  0  0  0  0
  6  7  1  0  0  0  0
  6 34  1  0  0  0  0
  7  8  2  0  0  0  0
  7 35  1  0  0  0  0
  8  9  1  0  0  0  0
  8 30  1  0  0  0  0
  9 10  1  0  0  0  0
  9 36  1  0  0  0  0
 10 11  1  0  0  0  0
 10 29  2  0  0  0  0
 11 12  1  0  0  0  0
 11 28  2  0  0  0  0
 12 13  2  0  0  0  0
 12 37  1  0  0  0  0
 13 14  1  0  0  0  0
 13 38  1  0  0  0  0
 14 15  1  0  0  0  0
 14 27  2  0  0  0  0
 15 16  1  0  0  0  0
 15 26  1  0  0  0  0
 16 17  2  0  0  0  0
 16 39  1  0  0  0  0
 17 18  1  0  0  0  0
 17 40  1  0  0  0  0
 18 19  1  0  0  0  0
 18 26  2  0  0  0  0
 19 20  1  0  0  0  0
 19 41  1  0  0  0  0
 19 42  1  0  0  0  0
 20 21  1  0  0  0  0
 20 25  1  0  0  0  0
 21 22  1  0  0  0  0
 21 43  1  0  0  0  0
 21 44  1  0  0  0  0
 22 23  1  0  0  0  0
 22 45  1  0  0  0  0
 22 46  1  0  0  0  0
 23 24  1  0  0  0  0
 23 47  1  0  0  0  0
 23 48  1  0  0  0  0
 24 25  1  0  0  0  0
 24 49  1  0  0  0  0
 24 50  1  0  0  0  0
 25 51  1  0  0  0  0
 25 52  1  0  0  0  0
 26 53  1  0  0  0  0
 27 28  1  0  0  0  0
 27 54  1  0  0  0  0
 28 55  1  0  0  0  0
 29 30  1  0  0  0  0
M  END
$$$$
