CHEMBL3975598
 OpenBabel04072215373D

 72 75  0  0  0  0  0  0  0  0999 V2000
    6.1159    1.3096   -5.7471 C   0  0  0  0  0  0  0  0  0  0  0  0
    7.1501    0.9769   -4.7940 O   0  0  0  0  0  0  0  0  0  0  0  0
    7.0544   -0.2812   -4.2808 C   0  0  0  0  0  0  0  0  0  0  0  0
    6.1746   -1.0808   -4.5862 O   0  0  0  0  0  0  0  0  0  0  0  0
    8.1531   -0.6456   -3.2598 C   0  0  0  0  0  0  0  0  0  0  0  0
    7.9921   -2.0269   -2.7393 N   0  0  0  0  0  0  0  0  0  0  0  0
    8.8579   -2.5890   -1.8068 C   0  0  0  0  0  0  0  0  0  0  0  0
    9.8143   -1.9721   -1.3529 O   0  0  0  0  0  0  0  0  0  0  0  0
    8.6251   -4.0294   -1.4090 C   0  0  0  0  0  0  0  0  0  0  0  0
    8.0604   -4.8876   -2.3424 C   0  0  0  0  0  0  0  0  0  0  0  0
    7.9435   -6.2618   -2.1282 C   0  0  0  0  0  0  0  0  0  0  0  0
    8.3636   -6.8950   -0.9940 C   0  0  0  0  0  0  0  0  0  0  0  0
    8.1668   -8.3120   -0.9860 N   0  0  0  0  0  0  0  0  0  0  0  0
    7.5904   -9.5269   -1.8848 C   0  0  0  0  0  0  0  0  0  0  0  0
    6.4268   -9.7945   -3.0452 N   0  0  0  0  0  0  0  0  0  0  0  0
    6.1145  -10.9708   -3.6310 C   0  0  0  0  0  0  0  0  0  0  0  0
    6.9833  -11.3328   -2.8454 N   0  0  0  0  0  0  0  0  0  0  0  0
    7.8795  -11.7341   -2.0398 C   0  0  0  0  0  0  0  0  0  0  0  0
    8.0216  -13.0229   -1.9432 C   0  0  0  0  0  0  0  0  0  0  0  0
    8.9897  -13.3714   -1.0917 C   0  0  0  0  0  0  0  0  0  0  0  0
    9.2716  -14.6878   -1.0724 O   0  0  0  0  0  0  0  0  0  0  0  0
    8.4940  -15.4915   -1.9593 C   0  0  0  0  0  0  0  0  0  0  0  0
    9.0083  -16.8616   -1.7270 C   0  0  0  0  0  0  0  0  0  0  0  0
    8.2694  -17.8334   -2.6143 C   0  0  0  0  0  0  0  0  0  0  0  0
    8.4889  -17.4432   -3.9966 N   0  0  0  0  0  0  0  0  0  0  0  0
    9.9222  -17.4635   -4.3431 C   0  0  0  0  0  0  0  0  0  0  0  0
   10.1267  -16.9542   -5.7709 C   0  0  0  0  0  0  0  0  0  0  0  0
    9.3941  -17.7371   -6.7827 N   0  0  0  0  0  0  0  0  0  0  0  0
   10.0199  -19.0506   -6.9184 C   0  0  0  0  0  0  0  0  0  0  0  0
    7.9807  -17.8987   -6.3687 C   0  0  0  0  0  0  0  0  0  0  0  0
    7.7871  -18.3528   -4.9078 C   0  0  0  0  0  0  0  0  0  0  0  0
    9.6908  -12.3935   -0.3367 C   0  0  0  0  0  0  0  0  0  0  0  0
   10.6507  -12.6889    0.5938 O   0  0  0  0  0  0  0  0  0  0  0  0
   10.4512  -13.9489    1.2355 C   0  0  0  0  0  0  0  0  0  0  0  0
    9.4347  -11.0222   -0.5386 C   0  0  0  0  0  0  0  0  0  0  0  0
    8.3813  -10.6716   -1.4207 C   0  0  0  0  0  0  0  0  0  0  0  0
    9.0114   -6.0366   -0.0211 C   0  0  0  0  0  0  0  0  0  0  0  0
    9.0822   -4.5989   -0.2105 C   0  0  0  0  0  0  0  0  0  0  0  0
    6.2765    2.3340   -6.1014 H   0  0  0  0  0  0  0  0  0  0  0  0
    5.1217    1.2688   -5.2853 H   0  0  0  0  0  0  0  0  0  0  0  0
    6.1511    0.6454   -6.6192 H   0  0  0  0  0  0  0  0  0  0  0  0
    8.1017    0.0358   -2.4064 H   0  0  0  0  0  0  0  0  0  0  0  0
    9.1345   -0.5815   -3.7392 H   0  0  0  0  0  0  0  0  0  0  0  0
    7.1795   -2.5427   -3.0638 H   0  0  0  0  0  0  0  0  0  0  0  0
    7.7248   -4.5272   -3.3027 H   0  0  0  0  0  0  0  0  0  0  0  0
    7.5406   -6.9033   -2.8943 H   0  0  0  0  0  0  0  0  0  0  0  0
    8.1647   -8.6296   -0.0196 H   0  0  0  0  0  0  0  0  0  0  0  0
    6.0874  -12.0774   -3.9315 H   0  0  0  0  0  0  0  0  0  0  0  0
    7.3718  -13.6290   -2.5465 H   0  0  0  0  0  0  0  0  0  0  0  0
    8.6295  -15.2076   -3.0160 H   0  0  0  0  0  0  0  0  0  0  0  0
    7.4275  -15.4497   -1.6794 H   0  0  0  0  0  0  0  0  0  0  0  0
    8.8637  -17.0391   -0.6624 H   0  0  0  0  0  0  0  0  0  0  0  0
   10.0893  -16.8924   -1.8978 H   0  0  0  0  0  0  0  0  0  0  0  0
    7.2003  -17.7793   -2.3711 H   0  0  0  0  0  0  0  0  0  0  0  0
    8.5960  -18.8638   -2.4353 H   0  0  0  0  0  0  0  0  0  0  0  0
   10.3255  -18.4759   -4.2147 H   0  0  0  0  0  0  0  0  0  0  0  0
   10.5237  -16.8112   -3.7092 H   0  0  0  0  0  0  0  0  0  0  0  0
   11.2009  -16.9644   -5.9898 H   0  0  0  0  0  0  0  0  0  0  0  0
    9.8133  -15.9026   -5.8172 H   0  0  0  0  0  0  0  0  0  0  0  0
   11.0727  -18.9400   -7.1927 H   0  0  0  0  0  0  0  0  0  0  0  0
    9.5217  -19.6181   -7.7070 H   0  0  0  0  0  0  0  0  0  0  0  0
    9.9766  -19.6435   -5.9995 H   0  0  0  0  0  0  0  0  0  0  0  0
    7.4903  -18.6218   -7.0295 H   0  0  0  0  0  0  0  0  0  0  0  0
    7.4576  -16.9439   -6.5108 H   0  0  0  0  0  0  0  0  0  0  0  0
    8.1666  -19.3752   -4.7802 H   0  0  0  0  0  0  0  0  0  0  0  0
    6.7167  -18.3753   -4.6787 H   0  0  0  0  0  0  0  0  0  0  0  0
   11.1926  -14.0717    2.0231 H   0  0  0  0  0  0  0  0  0  0  0  0
   10.6053  -14.7628    0.5201 H   0  0  0  0  0  0  0  0  0  0  0  0
    9.4620  -14.0107    1.7126 H   0  0  0  0  0  0  0  0  0  0  0  0
   10.0502  -10.2709   -0.0529 H   0  0  0  0  0  0  0  0  0  0  0  0
    9.5174   -6.3858    0.8911 H   0  0  0  0  0  0  0  0  0  0  0  0
    9.4758   -3.9230    0.5593 H   0  0  0  0  0  0  0  0  0  0  0  0
  1  2  1  0  0  0  0
  1 39  1  0  0  0  0
  1 40  1  0  0  0  0
  1 41  1  0  0  0  0
  2  3  1  0  0  0  0
  3  4  2  0  0  0  0
  3  5  1  0  0  0  0
  5  6  1  0  0  0  0
  5 42  1  0  0  0  0
  5 43  1  0  0  0  0
  6  7  1  0  0  0  0
  6 44  1  0  0  0  0
  7  8  2  0  0  0  0
  7  9  1  0  0  0  0
  9 10  1  0  0  0  0
  9 38  2  0  0  0  0
 10 11  2  0  0  0  0
 10 45  1  0  0  0  0
 11 12  1  0  0  0  0
 11 46  1  0  0  0  0
 12 13  1  0  0  0  0
 12 37  2  0  0  0  0
 13 14  1  0  0  0  0
 13 47  1  0  0  0  0
 14 15  1  0  0  0  0
 14 36  2  0  0  0  0
 15 16  2  0  0  0  0
 16 17  1  0  0  0  0
 16 48  1  0  0  0  0
 17 18  2  0  0  0  0
 18 19  1  0  0  0  0
 18 36  1  0  0  0  0
 19 20  2  0  0  0  0
 19 49  1  0  0  0  0
 20 21  1  0  0  0  0
 20 32  1  0  0  0  0
 21 22  1  0  0  0  0
 22 23  1  0  0  0  0
 22 50  1  0  0  0  0
 22 51  1  0  0  0  0
 23 24  1  0  0  0  0
 23 52  1  0  0  0  0
 23 53  1  0  0  0  0
 24 25  1  0  0  0  0
 24 54  1  0  0  0  0
 24 55  1  0  0  0  0
 25 26  1  0  0  0  0
 25 31  1  0  0  0  0
 26 27  1  0  0  0  0
 26 56  1  0  0  0  0
 26 57  1  0  0  0  0
 27 28  1  0  0  0  0
 27 58  1  0  0  0  0
 27 59  1  0  0  0  0
 28 29  1  0  0  0  0
 28 30  1  0  0  0  0
 29 60  1  0  0  0  0
 29 61  1  0  0  0  0
 29 62  1  0  0  0  0
 30 31  1  0  0  0  0
 30 63  1  0  0  0  0
 30 64  1  0  0  0  0
 31 65  1  0  0  0  0
 31 66  1  0  0  0  0
 32 33  1  0  0  0  0
 32 35  2  0  0  0  0
 33 34  1  0  0  0  0
 34 67  1  0  0  0  0
 34 68  1  0  0  0  0
 34 69  1  0  0  0  0
 35 36  1  0  0  0  0
 35 70  1  0  0  0  0
 37 38  1  0  0  0  0
 37 71  1  0  0  0  0
 38 72  1  0  0  0  0
M  END
$$$$
