CHEMBL246151
 OpenBabel04072215363D

 59 62  0  0  0  0  0  0  0  0999 V2000
    4.1275    7.6674    7.0447 C   0  0  0  0  0  0  0  0  0  0  0  0
    3.2980    7.3445    8.1845 N   0  0  0  0  0  0  0  0  0  0  0  0
    2.3092    6.3839    8.0294 C   0  0  0  0  0  0  0  0  0  0  0  0
    2.4901    5.2303    7.2655 C   0  0  0  0  0  0  0  0  0  0  0  0
    1.4524    4.2964    7.1221 C   0  0  0  0  0  0  0  0  0  0  0  0
    1.6061    3.0777    6.2879 C   0  0  0  0  0  0  0  0  0  0  0  0
    1.0236    1.8661    6.7194 C   0  0  0  0  0  0  0  0  0  0  0  0
    1.1146    0.7021    5.9594 C   0  0  0  0  0  0  0  0  0  0  0  0
    1.8408    0.7489    4.7907 C   0  0  0  0  0  0  0  0  0  0  0  0
    2.4456    1.8630    4.3406 N   0  0  0  0  0  0  0  0  0  0  0  0
    2.2890    3.0116    5.0569 C   0  0  0  0  0  0  0  0  0  0  0  0
    2.8362    4.1800    4.5079 O   0  0  0  0  0  0  0  0  0  0  0  0
    2.9964    4.2256    3.1325 C   0  0  0  0  0  0  0  0  0  0  0  0
    2.0061    3.7805    2.2610 C   0  0  0  0  0  0  0  0  0  0  0  0
    2.2526    3.7521    0.8920 C   0  0  0  0  0  0  0  0  0  0  0  0
    3.4627    4.2273    0.3648 C   0  0  0  0  0  0  0  0  0  0  0  0
    3.7216    3.8230   -1.2969 Cl  0  0  0  0  0  0  0  0  0  0  0  0
    4.4253    4.8114    1.2129 C   0  0  0  0  0  0  0  0  0  0  0  0
    5.6778    5.3753    0.8218 N   0  0  0  0  0  0  0  0  0  0  0  0
    6.0437    5.8982   -0.4089 C   0  0  0  0  0  0  0  0  0  0  0  0
    5.3146    6.1548   -1.3574 O   0  0  0  0  0  0  0  0  0  0  0  0
    7.4956    6.2099   -0.5540 C   0  0  0  0  0  0  0  0  0  0  0  0
    8.1909    6.9278    0.4238 C   0  0  0  0  0  0  0  0  0  0  0  0
    9.5527    7.1751    0.2598 C   0  0  0  0  0  0  0  0  0  0  0  0
   10.2294    6.7023   -0.8701 C   0  0  0  0  0  0  0  0  0  0  0  0
    9.5463    5.9928   -1.8710 C   0  0  0  0  0  0  0  0  0  0  0  0
   10.2700    5.3969   -3.0687 C   0  0  0  0  0  0  0  0  0  0  0  0
   11.1310    6.4047   -3.8369 C   0  0  0  0  0  0  0  0  0  0  0  0
   11.1159    4.1959   -2.6319 C   0  0  0  0  0  0  0  0  0  0  0  0
    8.1667    5.7699   -1.7067 C   0  0  0  0  0  0  0  0  0  0  0  0
    4.1778    4.7770    2.6087 C   0  0  0  0  0  0  0  0  0  0  0  0
    0.2816    4.5514    7.8449 C   0  0  0  0  0  0  0  0  0  0  0  0
    0.1970    5.6968    8.6200 C   0  0  0  0  0  0  0  0  0  0  0  0
    1.1768    6.6151    8.7103 N   0  0  0  0  0  0  0  0  0  0  0  0
    4.7460    8.5379    7.2827 H   0  0  0  0  0  0  0  0  0  0  0  0
    3.5306    7.9069    6.1582 H   0  0  0  0  0  0  0  0  0  0  0  0
    4.8116    6.8450    6.8099 H   0  0  0  0  0  0  0  0  0  0  0  0
    2.8499    8.1399    8.6354 H   0  0  0  0  0  0  0  0  0  0  0  0
    3.4463    5.0539    6.7909 H   0  0  0  0  0  0  0  0  0  0  0  0
    0.4858    1.8113    7.6636 H   0  0  0  0  0  0  0  0  0  0  0  0
    0.6346   -0.2162    6.2802 H   0  0  0  0  0  0  0  0  0  0  0  0
    1.9526   -0.1282    4.1603 H   0  0  0  0  0  0  0  0  0  0  0  0
    1.0694    3.3802    2.6397 H   0  0  0  0  0  0  0  0  0  0  0  0
    1.5111    3.2977    0.2387 H   0  0  0  0  0  0  0  0  0  0  0  0
    6.3577    5.4679    1.5636 H   0  0  0  0  0  0  0  0  0  0  0  0
    7.6794    7.3202    1.2972 H   0  0  0  0  0  0  0  0  0  0  0  0
   10.0990    7.7336    1.0174 H   0  0  0  0  0  0  0  0  0  0  0  0
   11.2978    6.8847   -0.9567 H   0  0  0  0  0  0  0  0  0  0  0  0
    9.5176    5.0263   -3.7780 H   0  0  0  0  0  0  0  0  0  0  0  0
   11.9253    6.8332   -3.2173 H   0  0  0  0  0  0  0  0  0  0  0  0
   10.5206    7.2292   -4.2204 H   0  0  0  0  0  0  0  0  0  0  0  0
   11.6122    5.9205   -4.6952 H   0  0  0  0  0  0  0  0  0  0  0  0
   11.9236    4.4941   -1.9546 H   0  0  0  0  0  0  0  0  0  0  0  0
   11.5696    3.7050   -3.4995 H   0  0  0  0  0  0  0  0  0  0  0  0
   10.5010    3.4531   -2.1112 H   0  0  0  0  0  0  0  0  0  0  0  0
    7.6072    5.2310   -2.4696 H   0  0  0  0  0  0  0  0  0  0  0  0
    4.9111    5.1751    3.3049 H   0  0  0  0  0  0  0  0  0  0  0  0
   -0.5661    3.8754    7.8239 H   0  0  0  0  0  0  0  0  0  0  0  0
   -0.6899    5.9046    9.2144 H   0  0  0  0  0  0  0  0  0  0  0  0
  1  2  1  0  0  0  0
  1 35  1  0  0  0  0
  1 36  1  0  0  0  0
  1 37  1  0  0  0  0
  2  3  1  0  0  0  0
  2 38  1  0  0  0  0
  3  4  1  0  0  0  0
  3 34  2  0  0  0  0
  4  5  2  0  0  0  0
  4 39  1  0  0  0  0
  5  6  1  0  0  0  0
  5 32  1  0  0  0  0
  6  7  1  0  0  0  0
  6 11  2  0  0  0  0
  7  8  2  0  0  0  0
  7 40  1  0  0  0  0
  8  9  1  0  0  0  0
  8 41  1  0  0  0  0
  9 10  2  0  0  0  0
  9 42  1  0  0  0  0
 10 11  1  0  0  0  0
 11 12  1  0  0  0  0
 12 13  1  0  0  0  0
 13 14  1  0  0  0  0
 13 31  2  0  0  0  0
 14 15  2  0  0  0  0
 14 43  1  0  0  0  0
 15 16  1  0  0  0  0
 15 44  1  0  0  0  0
 16 17  1  0  0  0  0
 16 18  2  0  0  0  0
 18 19  1  0  0  0  0
 18 31  1  0  0  0  0
 19 20  1  0  0  0  0
 19 45  1  0  0  0  0
 20 21  2  0  0  0  0
 20 22  1  0  0  0  0
 22 23  1  0  0  0  0
 22 30  2  0  0  0  0
 23 24  2  0  0  0  0
 23 46  1  0  0  0  0
 24 25  1  0  0  0  0
 24 47  1  0  0  0  0
 25 26  2  0  0  0  0
 25 48  1  0  0  0  0
 26 27  1  0  0  0  0
 26 30  1  0  0  0  0
 27 28  1  0  0  0  0
 27 29  1  0  0  0  0
 27 49  1  0  0  0  0
 28 50  1  0  0  0  0
 28 51  1  0  0  0  0
 28 52  1  0  0  0  0
 29 53  1  0  0  0  0
 29 54  1  0  0  0  0
 29 55  1  0  0  0  0
 30 56  1  0  0  0  0
 31 57  1  0  0  0  0
 32 33  2  0  0  0  0
 32 58  1  0  0  0  0
 33 34  1  0  0  0  0
 33 59  1  0  0  0  0
M  END
$$$$
