CHEMBL509101
 OpenBabel04072215383D

 50 54  0  0  0  0  0  0  0  0999 V2000
    1.0967   -0.1918   -0.5698 O   0  0  0  0  0  0  0  0  0  0  0  0
    2.2622   -0.1289   -0.1858 C   0  0  0  0  0  0  0  0  0  0  0  0
    2.8611   -1.0091    0.6918 N   0  0  0  0  0  0  0  0  0  0  0  0
    2.2498   -2.0864    1.3660 C   0  0  0  0  0  0  0  0  0  0  0  0
    0.8877   -2.3812    1.2735 C   0  0  0  0  0  0  0  0  0  0  0  0
    0.3340   -3.4395    1.9974 C   0  0  0  0  0  0  0  0  0  0  0  0
    1.1344   -4.2216    2.8264 C   0  0  0  0  0  0  0  0  0  0  0  0
    0.4813   -5.2442    3.4648 O   0  0  0  0  0  0  0  0  0  0  0  0
    0.8072   -5.6041    4.7481 C   0  0  0  0  0  0  0  0  0  0  0  0
    1.4170   -4.7748    5.6937 C   0  0  0  0  0  0  0  0  0  0  0  0
    1.7197   -5.2864    6.9490 C   0  0  0  0  0  0  0  0  0  0  0  0
    1.4284   -6.5306    7.3890 N   0  0  0  0  0  0  0  0  0  0  0  0
    0.7736   -7.2632    6.4706 C   0  0  0  0  0  0  0  0  0  0  0  0
    0.3277   -8.5401    6.6765 N   0  0  0  0  0  0  0  0  0  0  0  0
   -0.3275   -8.9909    5.5591 C   0  0  0  0  0  0  0  0  0  0  0  0
   -0.2718   -7.9926    4.6100 C   0  0  0  0  0  0  0  0  0  0  0  0
    0.4289   -6.8900    5.1783 C   0  0  0  0  0  0  0  0  0  0  0  0
    2.5051   -3.9673    2.8709 C   0  0  0  0  0  0  0  0  0  0  0  0
    3.3310   -4.7434    3.5879 F   0  0  0  0  0  0  0  0  0  0  0  0
    3.0587   -2.8916    2.1739 C   0  0  0  0  0  0  0  0  0  0  0  0
    3.1345    0.9861   -0.6698 C   0  0  0  0  0  0  0  0  0  0  0  0
    2.5607    1.9129   -1.4601 C   0  0  0  0  0  0  0  0  0  0  0  0
    3.2822    3.0717   -1.9059 C   0  0  0  0  0  0  0  0  0  0  0  0
    4.5525    3.2492   -1.5311 C   0  0  0  0  0  0  0  0  0  0  0  0
    5.2196    2.3047   -0.7640 N   0  0  0  0  0  0  0  0  0  0  0  0
    6.6009    2.4766   -0.4645 C   0  0  0  0  0  0  0  0  0  0  0  0
    7.5244    1.4921   -0.8449 C   0  0  0  0  0  0  0  0  0  0  0  0
    8.8835    1.6711   -0.5910 C   0  0  0  0  0  0  0  0  0  0  0  0
    9.3088    2.8161    0.0715 C   0  0  0  0  0  0  0  0  0  0  0  0
   10.6119    2.9805    0.3314 F   0  0  0  0  0  0  0  0  0  0  0  0
    8.4042    3.7950    0.4692 C   0  0  0  0  0  0  0  0  0  0  0  0
    7.0473    3.6371    0.1826 C   0  0  0  0  0  0  0  0  0  0  0  0
    4.5771    1.1392   -0.3041 C   0  0  0  0  0  0  0  0  0  0  0  0
    5.1105    0.2753    0.3975 O   0  0  0  0  0  0  0  0  0  0  0  0
    3.8540   -0.8592    0.8832 H   0  0  0  0  0  0  0  0  0  0  0  0
    0.2138   -1.8034    0.6498 H   0  0  0  0  0  0  0  0  0  0  0  0
   -0.7292   -3.6489    1.9081 H   0  0  0  0  0  0  0  0  0  0  0  0
    1.6794   -3.7479    5.4702 H   0  0  0  0  0  0  0  0  0  0  0  0
    2.2396   -4.6640    7.6740 H   0  0  0  0  0  0  0  0  0  0  0  0
    0.4602   -9.0435    7.5403 H   0  0  0  0  0  0  0  0  0  0  0  0
   -0.7749   -9.9761    5.5373 H   0  0  0  0  0  0  0  0  0  0  0  0
   -0.7028   -8.0361    3.6177 H   0  0  0  0  0  0  0  0  0  0  0  0
    4.1252   -2.7096    2.2697 H   0  0  0  0  0  0  0  0  0  0  0  0
    1.5202    1.8333   -1.7659 H   0  0  0  0  0  0  0  0  0  0  0  0
    2.7715    3.7893   -2.5404 H   0  0  0  0  0  0  0  0  0  0  0  0
    5.1180    4.1150   -1.8641 H   0  0  0  0  0  0  0  0  0  0  0  0
    7.1938    0.5989   -1.3696 H   0  0  0  0  0  0  0  0  0  0  0  0
    9.6075    0.9263   -0.9049 H   0  0  0  0  0  0  0  0  0  0  0  0
    8.7620    4.6685    1.0048 H   0  0  0  0  0  0  0  0  0  0  0  0
    6.3411    4.3946    0.5127 H   0  0  0  0  0  0  0  0  0  0  0  0
  1  2  2  0  0  0  0
  2  3  1  0  0  0  0
  2 21  1  0  0  0  0
  3  4  1  0  0  0  0
  3 35  1  0  0  0  0
  4  5  1  0  0  0  0
  4 20  2  0  0  0  0
  5  6  2  0  0  0  0
  5 36  1  0  0  0  0
  6  7  1  0  0  0  0
  6 37  1  0  0  0  0
  7  8  1  0  0  0  0
  7 18  2  0  0  0  0
  8  9  1  0  0  0  0
  9 10  1  0  0  0  0
  9 17  2  0  0  0  0
 10 11  2  0  0  0  0
 10 38  1  0  0  0  0
 11 12  1  0  0  0  0
 11 39  1  0  0  0  0
 12 13  2  0  0  0  0
 13 14  1  0  0  0  0
 13 17  1  0  0  0  0
 14 15  1  0  0  0  0
 14 40  1  0  0  0  0
 15 16  2  0  0  0  0
 15 41  1  0  0  0  0
 16 17  1  0  0  0  0
 16 42  1  0  0  0  0
 18 19  1  0  0  0  0
 18 20  1  0  0  0  0
 20 43  1  0  0  0  0
 21 22  2  0  0  0  0
 21 33  1  0  0  0  0
 22 23  1  0  0  0  0
 22 44  1  0  0  0  0
 23 24  2  0  0  0  0
 23 45  1  0  0  0  0
 24 25  1  0  0  0  0
 24 46  1  0  0  0  0
 25 26  1  0  0  0  0
 25 33  1  0  0  0  0
 26 27  1  0  0  0  0
 26 32  2  0  0  0  0
 27 28  2  0  0  0  0
 27 47  1  0  0  0  0
 28 29  1  0  0  0  0
 28 48  1  0  0  0  0
 29 30  1  0  0  0  0
 29 31  2  0  0  0  0
 31 32  1  0  0  0  0
 31 49  1  0  0  0  0
 32 50  1  0  0  0  0
 33 34  2  0  0  0  0
M  END
$$$$
