CHEMBL3114023
 OpenBabel04072215363D

 52 55  0  0  0  0  0  0  0  0999 V2000
   -4.3414   -1.9970   -1.9052 C   0  0  0  0  0  0  0  0  0  0  0  0
   -3.3915   -3.0364   -1.3858 C   0  0  0  0  0  0  0  0  0  0  0  0
   -3.7241   -4.3959   -1.4405 C   0  0  0  0  0  0  0  0  0  0  0  0
   -2.8362   -5.3641   -0.9644 C   0  0  0  0  0  0  0  0  0  0  0  0
   -3.1680   -6.8251   -1.0096 C   0  0  0  0  0  0  0  0  0  0  0  0
   -1.5990   -4.9577   -0.4495 C   0  0  0  0  0  0  0  0  0  0  0  0
   -1.2238   -3.6081   -0.4187 C   0  0  0  0  0  0  0  0  0  0  0  0
    0.0211   -3.1928    0.1026 N   0  0  0  0  0  0  0  0  0  0  0  0
    1.2053   -3.9450    0.0486 C   0  0  0  0  0  0  0  0  0  0  0  0
    1.4112   -4.7570   -0.9973 N   0  0  0  0  0  0  0  0  0  0  0  0
    2.5448   -5.4573   -1.0103 C   0  0  0  0  0  0  0  0  0  0  0  0
    3.4865   -5.3771   -0.0186 C   0  0  0  0  0  0  0  0  0  0  0  0
    3.2178   -4.5354    1.0498 C   0  0  0  0  0  0  0  0  0  0  0  0
    4.1255   -4.4190    2.1297 N   0  0  0  0  0  0  0  0  0  0  0  0
    4.9461   -5.5889    2.4663 C   0  0  0  0  0  0  0  0  0  0  0  0
    4.3859   -3.2416    2.9029 C   0  0  0  0  0  0  0  0  0  0  0  0
    4.1547   -1.9415    2.3147 C   0  0  0  0  0  0  0  0  0  0  0  0
    4.4335   -0.6948    2.9273 C   0  0  0  0  0  0  0  0  0  0  0  0
    4.9679   -0.8679    4.1980 C   0  0  0  0  0  0  0  0  0  0  0  0
    5.3843    0.1275    5.0517 C   0  0  0  0  0  0  0  0  0  0  0  0
    5.4205    1.6039    4.9264 C   0  0  0  0  0  0  0  0  0  0  0  0
    5.8213   -0.5526    6.1652 N   0  0  0  0  0  0  0  0  0  0  0  0
    6.3644   -0.0060    7.3874 C   0  0  0  0  0  0  0  0  0  0  0  0
    5.7274   -1.8944    6.0701 N   0  0  0  0  0  0  0  0  0  0  0  0
    5.2068   -2.1195    4.8546 C   0  0  0  0  0  0  0  0  0  0  0  0
    4.9131   -3.3391    4.2211 C   0  0  0  0  0  0  0  0  0  0  0  0
    2.0746   -3.8084    1.0635 N   0  0  0  0  0  0  0  0  0  0  0  0
   -2.1474   -2.6525   -0.8558 C   0  0  0  0  0  0  0  0  0  0  0  0
   -5.2677   -2.4483   -2.2757 H   0  0  0  0  0  0  0  0  0  0  0  0
   -3.8835   -1.4459   -2.7332 H   0  0  0  0  0  0  0  0  0  0  0  0
   -4.6064   -1.2961   -1.1074 H   0  0  0  0  0  0  0  0  0  0  0  0
   -4.6807   -4.7028   -1.8588 H   0  0  0  0  0  0  0  0  0  0  0  0
   -4.1726   -6.9999   -1.4071 H   0  0  0  0  0  0  0  0  0  0  0  0
   -3.1258   -7.2508   -0.0016 H   0  0  0  0  0  0  0  0  0  0  0  0
   -2.4535   -7.3527   -1.6505 H   0  0  0  0  0  0  0  0  0  0  0  0
   -0.9128   -5.7168   -0.0810 H   0  0  0  0  0  0  0  0  0  0  0  0
   -0.0410   -2.8017    1.0329 H   0  0  0  0  0  0  0  0  0  0  0  0
    2.6820   -6.1052   -1.8711 H   0  0  0  0  0  0  0  0  0  0  0  0
    4.4010   -5.9427   -0.1131 H   0  0  0  0  0  0  0  0  0  0  0  0
    4.7109   -6.4863    1.8854 H   0  0  0  0  0  0  0  0  0  0  0  0
    4.7958   -5.9035    3.5043 H   0  0  0  0  0  0  0  0  0  0  0  0
    6.0077   -5.3662    2.3074 H   0  0  0  0  0  0  0  0  0  0  0  0
    3.7590   -1.8968    1.2990 H   0  0  0  0  0  0  0  0  0  0  0  0
    4.2555    0.2495    2.4342 H   0  0  0  0  0  0  0  0  0  0  0  0
    5.0505    1.9376    3.9530 H   0  0  0  0  0  0  0  0  0  0  0  0
    6.4461    1.9730    5.0323 H   0  0  0  0  0  0  0  0  0  0  0  0
    4.7993    2.0715    5.6963 H   0  0  0  0  0  0  0  0  0  0  0  0
    6.3933    1.0832    7.3397 H   0  0  0  0  0  0  0  0  0  0  0  0
    7.3772   -0.3969    7.5163 H   0  0  0  0  0  0  0  0  0  0  0  0
    5.7257   -0.3219    8.2163 H   0  0  0  0  0  0  0  0  0  0  0  0
    5.0920   -4.2617    4.7488 H   0  0  0  0  0  0  0  0  0  0  0  0
   -1.8782   -1.5988   -0.8270 H   0  0  0  0  0  0  0  0  0  0  0  0
  1  2  1  0  0  0  0
  1 29  1  0  0  0  0
  1 30  1  0  0  0  0
  1 31  1  0  0  0  0
  2  3  1  0  0  0  0
  2 28  2  0  0  0  0
  3  4  2  0  0  0  0
  3 32  1  0  0  0  0
  4  5  1  0  0  0  0
  4  6  1  0  0  0  0
  5 33  1  0  0  0  0
  5 34  1  0  0  0  0
  5 35  1  0  0  0  0
  6  7  2  0  0  0  0
  6 36  1  0  0  0  0
  7  8  1  0  0  0  0
  7 28  1  0  0  0  0
  8  9  1  0  0  0  0
  8 37  1  0  0  0  0
  9 10  1  0  0  0  0
  9 27  2  0  0  0  0
 10 11  2  0  0  0  0
 11 12  1  0  0  0  0
 11 38  1  0  0  0  0
 12 13  2  0  0  0  0
 12 39  1  0  0  0  0
 13 14  1  0  0  0  0
 13 27  1  0  0  0  0
 14 15  1  0  0  0  0
 14 16  1  0  0  0  0
 15 40  1  0  0  0  0
 15 41  1  0  0  0  0
 15 42  1  0  0  0  0
 16 17  1  0  0  0  0
 16 26  2  0  0  0  0
 17 18  2  0  0  0  0
 17 43  1  0  0  0  0
 18 19  1  0  0  0  0
 18 44  1  0  0  0  0
 19 20  2  0  0  0  0
 19 25  1  0  0  0  0
 20 21  1  0  0  0  0
 20 22  1  0  0  0  0
 21 45  1  0  0  0  0
 21 46  1  0  0  0  0
 21 47  1  0  0  0  0
 22 23  1  0  0  0  0
 22 24  1  0  0  0  0
 23 48  1  0  0  0  0
 23 49  1  0  0  0  0
 23 50  1  0  0  0  0
 24 25  2  0  0  0  0
 25 26  1  0  0  0  0
 26 51  1  0  0  0  0
 28 52  1  0  0  0  0
M  END
$$$$
