CHEMBL384939
 OpenBabel04072215373D

 65 70  0  0  0  0  0  0  0  0999 V2000
    1.9499    0.0292   -1.0365 C   0  0  0  0  0  0  0  0  0  0  0  0
    0.5036    0.2206   -1.0780 N   0  0  0  0  0  0  0  0  0  0  0  0
   -0.2014   -1.0200   -0.7178 C   0  0  0  0  0  0  0  0  0  0  0  0
   -1.7323   -0.8119   -0.7148 C   0  0  0  0  0  0  0  0  0  0  0  0
   -2.2005    0.2301    0.2266 N   0  0  0  0  0  0  0  0  0  0  0  0
   -2.0154   -0.1159    1.6494 C   0  0  0  0  0  0  0  0  0  0  0  0
   -2.7260   -1.3861    2.0856 C   0  0  0  0  0  0  0  0  0  0  0  0
   -2.0499   -2.6317    1.9869 C   0  0  0  0  0  0  0  0  0  0  0  0
   -2.6806   -3.8406    2.2754 C   0  0  0  0  0  0  0  0  0  0  0  0
   -3.9757   -3.7688    2.7170 C   0  0  0  0  0  0  0  0  0  0  0  0
   -4.6626   -2.5389    2.9049 C   0  0  0  0  0  0  0  0  0  0  0  0
   -4.0475   -1.3429    2.5653 C   0  0  0  0  0  0  0  0  0  0  0  0
   -6.0662   -2.7241    3.5156 C   0  0  0  0  0  0  0  0  0  0  0  0
   -6.0479   -4.2150    3.5895 C   0  0  0  0  0  0  0  0  0  0  0  0
   -6.7995   -5.3038    4.0535 C   0  0  0  0  0  0  0  0  0  0  0  0
   -8.1215   -5.2453    4.7499 C   0  0  0  0  0  0  0  0  0  0  0  0
   -8.7937   -6.3469    5.2355 C   0  0  0  0  0  0  0  0  0  0  0  0
  -10.0267   -5.9916    5.8599 C   0  0  0  0  0  0  0  0  0  0  0  0
  -10.2583   -4.6312    5.8207 C   0  0  0  0  0  0  0  0  0  0  0  0
  -11.4397   -3.8672    6.3142 C   0  0  0  0  0  0  0  0  0  0  0  0
  -12.4238   -3.8469    5.2638 N   0  0  0  0  0  0  0  0  0  0  0  0
  -13.5510   -3.0868    5.3830 C   0  0  0  0  0  0  0  0  0  0  0  0
  -13.9032   -2.5099    6.3988 O   0  0  0  0  0  0  0  0  0  0  0  0
  -14.1736   -3.0162    4.1498 O   0  0  0  0  0  0  0  0  0  0  0  0
  -14.5568   -1.7236    3.7666 C   0  0  0  0  0  0  0  0  0  0  0  0
  -13.6912   -0.6381    3.9400 C   0  0  0  0  0  0  0  0  0  0  0  0
  -14.0512    0.6129    3.4452 C   0  0  0  0  0  0  0  0  0  0  0  0
  -15.2546    0.7688    2.7628 C   0  0  0  0  0  0  0  0  0  0  0  0
  -16.1021   -0.3239    2.5665 C   0  0  0  0  0  0  0  0  0  0  0  0
  -15.7513   -1.5802    3.0665 C   0  0  0  0  0  0  0  0  0  0  0  0
   -8.9721   -3.8002    5.0599 S   0  0  0  0  0  0  0  0  0  0  0  0
   -6.1542   -6.4700    3.8220 N   0  0  0  0  0  0  0  0  0  0  0  0
   -4.9777   -6.1025    3.2543 N   0  0  0  0  0  0  0  0  0  0  0  0
   -4.8904   -4.7687    3.1256 C   0  0  0  0  0  0  0  0  0  0  0  0
   -1.4651    1.4753   -0.1067 C   0  0  0  0  0  0  0  0  0  0  0  0
    0.0796    1.3255   -0.1962 C   0  0  0  0  0  0  0  0  0  0  0  0
    2.2487   -0.7920   -1.6982 H   0  0  0  0  0  0  0  0  0  0  0  0
    2.3110   -0.1980   -0.0270 H   0  0  0  0  0  0  0  0  0  0  0  0
    2.4649    0.9263   -1.3959 H   0  0  0  0  0  0  0  0  0  0  0  0
    0.1390   -1.3760    0.2614 H   0  0  0  0  0  0  0  0  0  0  0  0
    0.0383   -1.8071   -1.4423 H   0  0  0  0  0  0  0  0  0  0  0  0
   -2.2467   -1.7631   -0.5461 H   0  0  0  0  0  0  0  0  0  0  0  0
   -2.0417   -0.5174   -1.7280 H   0  0  0  0  0  0  0  0  0  0  0  0
   -2.4123    0.7067    2.2603 H   0  0  0  0  0  0  0  0  0  0  0  0
   -0.9579   -0.1974    1.9268 H   0  0  0  0  0  0  0  0  0  0  0  0
   -1.0156   -2.6608    1.6571 H   0  0  0  0  0  0  0  0  0  0  0  0
   -2.1613   -4.7838    2.1647 H   0  0  0  0  0  0  0  0  0  0  0  0
   -4.5721   -0.3978    2.6711 H   0  0  0  0  0  0  0  0  0  0  0  0
   -6.8426   -2.3445    2.8475 H   0  0  0  0  0  0  0  0  0  0  0  0
   -6.1124   -2.2700    4.5091 H   0  0  0  0  0  0  0  0  0  0  0  0
   -8.4177   -7.3600    5.1471 H   0  0  0  0  0  0  0  0  0  0  0  0
  -10.7136   -6.7030    6.3026 H   0  0  0  0  0  0  0  0  0  0  0  0
  -11.1770   -2.8370    6.5839 H   0  0  0  0  0  0  0  0  0  0  0  0
  -11.8831   -4.3406    7.1956 H   0  0  0  0  0  0  0  0  0  0  0  0
  -12.1445   -4.0546    4.3156 H   0  0  0  0  0  0  0  0  0  0  0  0
  -12.7395   -0.7559    4.4461 H   0  0  0  0  0  0  0  0  0  0  0  0
  -13.3831    1.4585    3.5866 H   0  0  0  0  0  0  0  0  0  0  0  0
  -15.5291    1.7463    2.3705 H   0  0  0  0  0  0  0  0  0  0  0  0
  -17.0306   -0.1975    2.0162 H   0  0  0  0  0  0  0  0  0  0  0  0
  -16.4012   -2.4349    2.9000 H   0  0  0  0  0  0  0  0  0  0  0  0
   -4.3032   -6.8194    3.0098 H   0  0  0  0  0  0  0  0  0  0  0  0
   -1.7174    2.2672    0.6092 H   0  0  0  0  0  0  0  0  0  0  0  0
   -1.8331    1.8319   -1.0784 H   0  0  0  0  0  0  0  0  0  0  0  0
    0.4843    1.1854    0.8144 H   0  0  0  0  0  0  0  0  0  0  0  0
    0.4920    2.2665   -0.5793 H   0  0  0  0  0  0  0  0  0  0  0  0
  1  2  1  0  0  0  0
  1 37  1  0  0  0  0
  1 38  1  0  0  0  0
  1 39  1  0  0  0  0
  2  3  1  0  0  0  0
  2 36  1  0  0  0  0
  3  4  1  0  0  0  0
  3 40  1  0  0  0  0
  3 41  1  0  0  0  0
  4  5  1  0  0  0  0
  4 42  1  0  0  0  0
  4 43  1  0  0  0  0
  5  6  1  0  0  0  0
  5 35  1  0  0  0  0
  6  7  1  0  0  0  0
  6 44  1  0  0  0  0
  6 45  1  0  0  0  0
  7  8  1  0  0  0  0
  7 12  2  0  0  0  0
  8  9  2  0  0  0  0
  8 46  1  0  0  0  0
  9 10  1  0  0  0  0
  9 47  1  0  0  0  0
 10 11  2  0  0  0  0
 10 34  1  0  0  0  0
 11 12  1  0  0  0  0
 11 13  1  0  0  0  0
 12 48  1  0  0  0  0
 13 14  1  0  0  0  0
 13 49  1  0  0  0  0
 13 50  1  0  0  0  0
 14 15  1  0  0  0  0
 14 34  2  0  0  0  0
 15 16  1  0  0  0  0
 15 32  2  0  0  0  0
 16 17  2  0  0  0  0
 16 31  1  0  0  0  0
 17 18  1  0  0  0  0
 17 51  1  0  0  0  0
 18 19  2  0  0  0  0
 18 52  1  0  0  0  0
 19 20  1  0  0  0  0
 19 31  1  0  0  0  0
 20 21  1  0  0  0  0
 20 53  1  0  0  0  0
 20 54  1  0  0  0  0
 21 22  1  0  0  0  0
 21 55  1  0  0  0  0
 22 23  2  0  0  0  0
 22 24  1  0  0  0  0
 24 25  1  0  0  0  0
 25 26  1  0  0  0  0
 25 30  2  0  0  0  0
 26 27  2  0  0  0  0
 26 56  1  0  0  0  0
 27 28  1  0  0  0  0
 27 57  1  0  0  0  0
 28 29  2  0  0  0  0
 28 58  1  0  0  0  0
 29 30  1  0  0  0  0
 29 59  1  0  0  0  0
 30 60  1  0  0  0  0
 32 33  1  0  0  0  0
 33 34  1  0  0  0  0
 33 61  1  0  0  0  0
 35 36  1  0  0  0  0
 35 62  1  0  0  0  0
 35 63  1  0  0  0  0
 36 64  1  0  0  0  0
 36 65  1  0  0  0  0
M  END
$$$$
