CHEMBL3690525
 OpenBabel04072215373D

 51 54  0  0  0  0  0  0  0  0999 V2000
    1.8474   -1.2118   -0.6611 C   0  0  0  0  0  0  0  0  0  0  0  0
    1.9027    0.1438   -0.2315 O   0  0  0  0  0  0  0  0  0  0  0  0
    2.7185    0.9779   -0.9347 C   0  0  0  0  0  0  0  0  0  0  0  0
    3.3089    1.9974   -0.2161 C   0  0  0  0  0  0  0  0  0  0  0  0
    4.0947    2.9549   -0.7491 N   0  0  0  0  0  0  0  0  0  0  0  0
    4.2950    2.8841   -2.0750 C   0  0  0  0  0  0  0  0  0  0  0  0
    5.0977    3.9561   -2.7344 C   0  0  0  0  0  0  0  0  0  0  0  0
    5.3313    3.9731   -4.1870 C   0  0  0  0  0  0  0  0  0  0  0  0
    6.0306    4.9698   -4.7534 C   0  0  0  0  0  0  0  0  0  0  0  0
    6.5179    6.0166   -3.9659 N   0  0  0  0  0  0  0  0  0  0  0  0
    7.1802    7.2011   -4.3078 C   0  0  0  0  0  0  0  0  0  0  0  0
    7.4265    7.7187   -5.6646 C   0  0  0  0  0  0  0  0  0  0  0  0
    6.4878    7.4915   -6.6778 C   0  0  0  0  0  0  0  0  0  0  0  0
    6.7140    7.9309   -7.9768 C   0  0  0  0  0  0  0  0  0  0  0  0
    7.8458    8.6809   -8.2661 C   0  0  0  0  0  0  0  0  0  0  0  0
    8.7625    9.0215   -7.2700 C   0  0  0  0  0  0  0  0  0  0  0  0
    9.8762    9.8693   -7.5208 N   0  0  0  0  0  0  0  0  0  0  0  0
   10.1511   10.5064   -8.7129 C   0  0  0  0  0  0  0  0  0  0  0  0
    9.4867   10.4652   -9.7470 O   0  0  0  0  0  0  0  0  0  0  0  0
   11.3361   11.2083   -8.6963 N   0  0  0  0  0  0  0  0  0  0  0  0
   11.7308   11.9179   -9.9236 C   0  0  0  0  0  0  0  0  0  0  0  0
   11.0297   13.2591  -10.1956 C   0  0  0  0  0  0  0  0  0  0  0  0
   10.2733   13.6616   -9.1491 F   0  0  0  0  0  0  0  0  0  0  0  0
   11.9590   14.2276  -10.4001 F   0  0  0  0  0  0  0  0  0  0  0  0
   10.2472   13.2215  -11.2940 F   0  0  0  0  0  0  0  0  0  0  0  0
    8.5586    8.5084   -5.9709 C   0  0  0  0  0  0  0  0  0  0  0  0
    7.4703    7.7758   -3.0780 C   0  0  0  0  0  0  0  0  0  0  0  0
    6.9713    7.0494   -2.0305 N   0  0  0  0  0  0  0  0  0  0  0  0
    6.3712    6.0170   -2.5801 C   0  0  0  0  0  0  0  0  0  0  0  0
    5.6287    4.9536   -1.9845 C   0  0  0  0  0  0  0  0  0  0  0  0
    3.7736    1.9279   -2.8703 N   0  0  0  0  0  0  0  0  0  0  0  0
    2.9856    1.0007   -2.2955 C   0  0  0  0  0  0  0  0  0  0  0  0
    2.4397    0.0851   -3.1980 N   0  0  0  0  0  0  0  0  0  0  0  0
    1.3577   -1.7853    0.1328 H   0  0  0  0  0  0  0  0  0  0  0  0
    2.8470   -1.6323   -0.8108 H   0  0  0  0  0  0  0  0  0  0  0  0
    1.2232   -1.3251   -1.5504 H   0  0  0  0  0  0  0  0  0  0  0  0
    3.1577    2.0758    0.8572 H   0  0  0  0  0  0  0  0  0  0  0  0
    4.9262    3.1641   -4.7887 H   0  0  0  0  0  0  0  0  0  0  0  0
    6.2305    4.9847   -5.8154 H   0  0  0  0  0  0  0  0  0  0  0  0
    5.5517    6.9791   -6.4797 H   0  0  0  0  0  0  0  0  0  0  0  0
    5.9998    7.7073   -8.7617 H   0  0  0  0  0  0  0  0  0  0  0  0
    7.9663    8.9965   -9.2981 H   0  0  0  0  0  0  0  0  0  0  0  0
   10.5016   10.0412   -6.7521 H   0  0  0  0  0  0  0  0  0  0  0  0
   11.6105   11.6192   -7.8157 H   0  0  0  0  0  0  0  0  0  0  0  0
   11.5582   11.2527  -10.7795 H   0  0  0  0  0  0  0  0  0  0  0  0
   12.8116   12.0727   -9.8556 H   0  0  0  0  0  0  0  0  0  0  0  0
    9.2788    8.7320   -5.1879 H   0  0  0  0  0  0  0  0  0  0  0  0
    7.9813    8.7129   -2.8967 H   0  0  0  0  0  0  0  0  0  0  0  0
    5.4992    4.9954   -0.9078 H   0  0  0  0  0  0  0  0  0  0  0  0
    2.7614    0.3533   -4.1251 H   0  0  0  0  0  0  0  0  0  0  0  0
    1.4261    0.0999   -3.1483 H   0  0  0  0  0  0  0  0  0  0  0  0
  1  2  1  0  0  0  0
  1 34  1  0  0  0  0
  1 35  1  0  0  0  0
  1 36  1  0  0  0  0
  2  3  1  0  0  0  0
  3  4  1  0  0  0  0
  3 32  2  0  0  0  0
  4  5  2  0  0  0  0
  4 37  1  0  0  0  0
  5  6  1  0  0  0  0
  6  7  1  0  0  0  0
  6 31  2  0  0  0  0
  7  8  1  0  0  0  0
  7 30  2  0  0  0  0
  8  9  2  0  0  0  0
  8 38  1  0  0  0  0
  9 10  1  0  0  0  0
  9 39  1  0  0  0  0
 10 11  1  0  0  0  0
 10 29  1  0  0  0  0
 11 12  1  0  0  0  0
 11 27  2  0  0  0  0
 12 13  1  0  0  0  0
 12 26  2  0  0  0  0
 13 14  2  0  0  0  0
 13 40  1  0  0  0  0
 14 15  1  0  0  0  0
 14 41  1  0  0  0  0
 15 16  2  0  0  0  0
 15 42  1  0  0  0  0
 16 17  1  0  0  0  0
 16 26  1  0  0  0  0
 17 18  1  0  0  0  0
 17 43  1  0  0  0  0
 18 19  2  0  0  0  0
 18 20  1  0  0  0  0
 20 21  1  0  0  0  0
 20 44  1  0  0  0  0
 21 22  1  0  0  0  0
 21 45  1  0  0  0  0
 21 46  1  0  0  0  0
 22 23  1  0  0  0  0
 22 24  1  0  0  0  0
 22 25  1  0  0  0  0
 26 47  1  0  0  0  0
 27 28  1  0  0  0  0
 27 48  1  0  0  0  0
 28 29  2  0  0  0  0
 29 30  1  0  0  0  0
 30 49  1  0  0  0  0
 31 32  1  0  0  0  0
 32 33  1  0  0  0  0
 33 50  1  0  0  0  0
 33 51  1  0  0  0  0
M  END
$$$$
