CHEMBL4080062
 OpenBabel04072215383D

 48 51  0  0  0  0  0  0  0  0999 V2000
    1.0310   -0.1209    0.0593 O   0  0  0  0  0  0  0  0  0  0  0  0
    2.2667   -0.2151    0.0050 C   0  0  0  0  0  0  0  0  0  0  0  0
    2.9707   -0.7529    1.0461 N   0  0  0  0  0  0  0  0  0  0  0  0
    2.2493   -1.1943    2.1768 C   0  0  0  0  0  0  0  0  0  0  0  0
    2.3482   -2.5484    2.5359 C   0  0  0  0  0  0  0  0  0  0  0  0
    1.8643   -3.0230    3.7398 C   0  0  0  0  0  0  0  0  0  0  0  0
    1.2611   -2.1428    4.6105 C   0  0  0  0  0  0  0  0  0  0  0  0
    1.1759   -0.7821    4.2827 C   0  0  0  0  0  0  0  0  0  0  0  0
    0.7848    0.1850    5.3570 C   0  0  0  0  0  0  0  0  0  0  0  0
    0.5646   -0.4532    6.5406 F   0  0  0  0  0  0  0  0  0  0  0  0
    1.7303    1.1265    5.5917 F   0  0  0  0  0  0  0  0  0  0  0  0
   -0.3709    0.8523    5.0819 F   0  0  0  0  0  0  0  0  0  0  0  0
    1.5881   -0.3171    3.0203 C   0  0  0  0  0  0  0  0  0  0  0  0
    2.9602    0.4521   -1.1066 C   0  0  0  0  0  0  0  0  0  0  0  0
    2.1158    1.5318   -1.3557 C   0  0  0  0  0  0  0  0  0  0  0  0
    2.5039    2.3297   -2.3275 C   0  0  0  0  0  0  0  0  0  0  0  0
    3.6553    2.0061   -2.9730 C   0  0  0  0  0  0  0  0  0  0  0  0
    4.6098    1.2705   -2.2804 C   0  0  0  0  0  0  0  0  0  0  0  0
    6.0230    1.6491   -2.2233 C   0  0  0  0  0  0  0  0  0  0  0  0
    6.4024    2.0773   -3.4021 C   0  0  0  0  0  0  0  0  0  0  0  0
    6.1734    3.3642   -3.8637 O   0  0  0  0  0  0  0  0  0  0  0  0
    7.1175    4.0166   -4.8278 C   0  0  0  0  0  0  0  0  0  0  0  0
    6.9082    5.3367   -5.3188 C   0  0  0  0  0  0  0  0  0  0  0  0
    7.3386    5.7162   -6.6100 C   0  0  0  0  0  0  0  0  0  0  0  0
    6.4479    6.8419   -7.3838 C   0  0  0  0  0  0  0  0  0  0  0  0
    5.0632    6.4807   -7.6175 O   0  0  0  0  0  0  0  0  0  0  0  0
    8.1318    4.8422   -7.3156 N   0  0  0  0  0  0  0  0  0  0  0  0
    8.2905    3.5796   -6.7889 C   0  0  0  0  0  0  0  0  0  0  0  0
    7.8475    3.1401   -5.5766 N   0  0  0  0  0  0  0  0  0  0  0  0
    6.3975    0.8125   -3.9149 C   0  0  0  0  0  0  0  0  0  0  0  0
    5.4047   -0.2914   -3.1075 C   0  0  0  0  0  0  0  0  0  0  0  0
    4.1811    0.0591   -2.0969 C   0  0  0  0  0  0  0  0  0  0  0  0
    3.9690   -0.8899    1.0008 H   0  0  0  0  0  0  0  0  0  0  0  0
    2.8469   -3.2614    1.8872 H   0  0  0  0  0  0  0  0  0  0  0  0
    2.0238   -4.0598    4.0106 H   0  0  0  0  0  0  0  0  0  0  0  0
    0.8754   -2.5093    5.5585 H   0  0  0  0  0  0  0  0  0  0  0  0
    1.3709    0.7062    2.7210 H   0  0  0  0  0  0  0  0  0  0  0  0
    1.3161    1.9128   -0.7155 H   0  0  0  0  0  0  0  0  0  0  0  0
    2.1335    3.3187   -2.1434 H   0  0  0  0  0  0  0  0  0  0  0  0
    3.9549    2.5992   -3.8093 H   0  0  0  0  0  0  0  0  0  0  0  0
    6.7140    0.8940   -1.7555 H   0  0  0  0  0  0  0  0  0  0  0  0
    6.1108    5.9408   -4.9243 H   0  0  0  0  0  0  0  0  0  0  0  0
    6.7636    7.1796   -8.3766 H   0  0  0  0  0  0  0  0  0  0  0  0
    6.5414    7.8086   -6.8924 H   0  0  0  0  0  0  0  0  0  0  0  0
    5.0388    5.8031   -8.3190 H   0  0  0  0  0  0  0  0  0  0  0  0
    8.6559    2.7959   -7.4754 H   0  0  0  0  0  0  0  0  0  0  0  0
    7.4785    0.5907   -4.2003 H   0  0  0  0  0  0  0  0  0  0  0  0
    5.5261   -1.3235   -2.8406 H   0  0  0  0  0  0  0  0  0  0  0  0
  1  2  2  0  0  0  0
  2  3  1  0  0  0  0
  2 14  1  0  0  0  0
  3  4  1  0  0  0  0
  3 33  1  0  0  0  0
  4  5  1  0  0  0  0
  4 13  2  0  0  0  0
  5  6  2  0  0  0  0
  5 34  1  0  0  0  0
  6  7  1  0  0  0  0
  6 35  1  0  0  0  0
  7  8  2  0  0  0  0
  7 36  1  0  0  0  0
  8  9  1  0  0  0  0
  8 13  1  0  0  0  0
  9 10  1  0  0  0  0
  9 11  1  0  0  0  0
  9 12  1  0  0  0  0
 13 37  1  0  0  0  0
 14 15  1  0  0  0  0
 14 32  2  0  0  0  0
 15 16  2  0  0  0  0
 15 38  1  0  0  0  0
 16 17  1  0  0  0  0
 16 39  1  0  0  0  0
 17 18  2  0  0  0  0
 17 40  1  0  0  0  0
 18 19  1  0  0  0  0
 18 32  1  0  0  0  0
 19 20  2  0  0  0  0
 19 41  1  0  0  0  0
 20 21  1  0  0  0  0
 20 30  1  0  0  0  0
 21 22  1  0  0  0  0
 22 23  1  0  0  0  0
 22 29  2  0  0  0  0
 23 24  2  0  0  0  0
 23 42  1  0  0  0  0
 24 25  1  0  0  0  0
 24 27  1  0  0  0  0
 25 26  1  0  0  0  0
 25 43  1  0  0  0  0
 25 44  1  0  0  0  0
 26 45  1  0  0  0  0
 27 28  2  0  0  0  0
 28 29  1  0  0  0  0
 28 46  1  0  0  0  0
 30 31  2  0  0  0  0
 30 47  1  0  0  0  0
 31 32  1  0  0  0  0
 31 48  1  0  0  0  0
M  END
$$$$
