CHEMBL4551566
 OpenBabel04072215383D

 41 45  0  0  1  0  0  0  0  0999 V2000
    3.1366    1.2966    0.5282 N   0  0  0  0  0  0  0  0  0  0  0  0
    2.4053    0.5550   -0.3513 C   0  0  0  0  0  0  0  0  0  0  0  0
    1.1950    0.7355   -0.4495 O   0  0  0  0  0  0  0  0  0  0  0  0
    3.1582   -0.4055   -1.1428 C   0  0  0  0  0  0  0  0  0  0  0  0
    2.8621   -0.9106   -2.4446 C   0  0  0  0  0  0  0  0  0  0  0  0
    1.8197   -0.4201   -3.3623 C   0  0  0  0  0  0  0  0  0  0  0  0
    1.5427    0.9548   -3.4327 C   0  0  0  0  0  0  0  0  0  0  0  0
    0.4607    1.4605   -4.1594 C   0  0  0  0  0  0  0  0  0  0  0  0
   -0.3602    0.5443   -4.8263 C   0  0  0  0  0  0  0  0  0  0  0  0
   -1.8141    0.8404   -5.7037 S   0  0  0  0  0  0  0  0  0  0  0  0
   -1.9595   -0.8372   -6.0011 C   0  0  0  0  0  0  0  0  0  0  0  0
   -0.9917   -1.6005   -5.5468 N   0  0  0  0  0  0  0  0  0  0  0  0
   -0.0793   -0.8252   -4.8414 C   0  0  0  0  0  0  0  0  0  0  0  0
    1.0476   -1.3041   -4.1307 C   0  0  0  0  0  0  0  0  0  0  0  0
    3.6920   -1.9202   -2.7613 N   0  0  0  0  0  0  0  0  0  0  0  0
    4.5390   -2.0215   -1.7022 N   0  0  0  0  0  0  0  0  0  0  0  0
    4.3626   -1.0010   -0.7915 C   0  0  0  0  0  0  0  0  0  0  0  0
    5.1840   -0.7123    0.2543 N   0  0  0  0  0  0  0  0  0  0  0  0
    6.5189   -1.2534    0.4246 C   0  0  2  0  0  0  0  0  0  0  0  0
    7.4071   -1.1670   -0.8376 C   0  0  0  0  0  0  0  0  0  0  0  0
    7.7245   -2.6202   -1.1775 C   0  0  0  0  0  0  0  0  0  0  0  0
    6.5219   -3.3824   -0.6252 C   0  0  1  0  0  0  0  0  0  0  0  0
    6.3846   -2.7359    0.7490 C   0  0  0  0  0  0  0  0  0  0  0  0
    5.2886   -3.2659   -1.5572 C   0  0  0  0  0  0  0  0  0  0  0  0
    2.6636    2.0481    1.0106 H   0  0  0  0  0  0  0  0  0  0  0  0
    4.1450    1.2889    0.4664 H   0  0  0  0  0  0  0  0  0  0  0  0
    2.1478    1.6673   -2.8753 H   0  0  0  0  0  0  0  0  0  0  0  0
    0.2345    2.5230   -4.1565 H   0  0  0  0  0  0  0  0  0  0  0  0
   -2.8093   -1.2387   -6.5370 H   0  0  0  0  0  0  0  0  0  0  0  0
    1.2626   -2.3680   -4.1400 H   0  0  0  0  0  0  0  0  0  0  0  0
    4.7170   -0.5354    1.1473 H   0  0  0  0  0  0  0  0  0  0  0  0
    6.9998   -0.7111    1.2452 H   0  0  0  0  0  0  0  0  0  0  0  0
    8.3312   -0.6115   -0.6488 H   0  0  0  0  0  0  0  0  0  0  0  0
    6.9123   -0.6769   -1.6823 H   0  0  0  0  0  0  0  0  0  0  0  0
    8.6330   -2.9293   -0.6412 H   0  0  0  0  0  0  0  0  0  0  0  0
    7.8988   -2.7920   -2.2426 H   0  0  0  0  0  0  0  0  0  0  0  0
    6.7693   -4.4444   -0.5120 H   0  0  0  0  0  0  0  0  0  0  0  0
    7.2237   -3.0359    1.3922 H   0  0  0  0  0  0  0  0  0  0  0  0
    5.4583   -2.9981    1.2712 H   0  0  0  0  0  0  0  0  0  0  0  0
    4.5472   -4.0106   -1.2407 H   0  0  0  0  0  0  0  0  0  0  0  0
    5.6089   -3.5428   -2.5709 H   0  0  0  0  0  0  0  0  0  0  0  0
  1  2  1  0  0  0  0
  1 25  1  0  0  0  0
  1 26  1  0  0  0  0
  2  3  2  0  0  0  0
  2  4  1  0  0  0  0
  4  5  1  0  0  0  0
  4 17  2  0  0  0  0
  5 15  2  0  0  0  0
  5  6  1  0  0  0  0
  6  7  1  0  0  0  0
  6 14  2  0  0  0  0
  7  8  2  0  0  0  0
  7 27  1  0  0  0  0
  8  9  1  0  0  0  0
  8 28  1  0  0  0  0
  9 10  1  0  0  0  0
  9 13  2  0  0  0  0
 10 11  1  0  0  0  0
 11 12  2  0  0  0  0
 11 29  1  0  0  0  0
 12 13  1  0  0  0  0
 13 14  1  0  0  0  0
 14 30  1  0  0  0  0
 15 16  1  0  0  0  0
 16 17  1  0  0  0  0
 16 24  1  0  0  0  0
 17 18  1  0  0  0  0
 18 19  1  0  0  0  0
 18 31  1  0  0  0  0
 19 20  1  0  0  0  0
 19 23  1  0  0  0  0
 19 32  1  1  0  0  0
 20 21  1  0  0  0  0
 20 33  1  0  0  0  0
 20 34  1  0  0  0  0
 21 22  1  0  0  0  0
 21 35  1  0  0  0  0
 21 36  1  0  0  0  0
 22 23  1  0  0  0  0
 22 24  1  0  0  0  0
 22 37  1  1  0  0  0
 23 38  1  0  0  0  0
 23 39  1  0  0  0  0
 24 40  1  0  0  0  0
 24 41  1  0  0  0  0
M  END
$$$$
