CHEMBL2335016
 OpenBabel04072215363D

 57 60  0  0  0  0  0  0  0  0999 V2000
    1.2098   -0.3301   -0.4486 C   0  0  0  0  0  0  0  0  0  0  0  0
    2.6839   -0.1046   -0.0527 C   0  0  0  0  0  0  0  0  0  0  0  0
    3.5399   -0.1093   -1.3258 C   0  0  0  0  0  0  0  0  0  0  0  0
    2.7886    1.2531    0.6558 C   0  0  0  0  0  0  0  0  0  0  0  0
    3.1347   -1.2515    0.8779 C   0  0  0  0  0  0  0  0  0  0  0  0
    2.3722   -2.1821    1.1238 O   0  0  0  0  0  0  0  0  0  0  0  0
    4.4117   -1.1211    1.3835 N   0  0  0  0  0  0  0  0  0  0  0  0
    5.0308   -2.0492    2.2190 C   0  0  0  0  0  0  0  0  0  0  0  0
    4.5041   -3.2698    2.3528 N   0  0  0  0  0  0  0  0  0  0  0  0
    5.0319   -4.1773    3.2066 C   0  0  0  0  0  0  0  0  0  0  0  0
    4.4430   -5.4441    3.3117 N   0  0  0  0  0  0  0  0  0  0  0  0
    3.1046   -5.7842    3.0496 C   0  0  0  0  0  0  0  0  0  0  0  0
    2.7872   -7.0767    2.6063 C   0  0  0  0  0  0  0  0  0  0  0  0
    1.4702   -7.4121    2.2702 C   0  0  0  0  0  0  0  0  0  0  0  0
    0.4622   -6.4605    2.3809 C   0  0  0  0  0  0  0  0  0  0  0  0
   -0.7944   -6.8085    2.0615 F   0  0  0  0  0  0  0  0  0  0  0  0
    0.7561   -5.1728    2.8098 C   0  0  0  0  0  0  0  0  0  0  0  0
   -0.4865   -3.9902    2.9732 Cl  0  0  0  0  0  0  0  0  0  0  0  0
    2.0714   -4.8370    3.1290 C   0  0  0  0  0  0  0  0  0  0  0  0
    6.1494   -3.7799    3.9514 C   0  0  0  0  0  0  0  0  0  0  0  0
    6.9586   -4.3288    4.9855 C   0  0  0  0  0  0  0  0  0  0  0  0
    7.8971   -3.3769    5.3515 C   0  0  0  0  0  0  0  0  0  0  0  0
    8.9678   -3.4391    6.4051 C   0  0  0  0  0  0  0  0  0  0  0  0
    9.2817   -2.0893    7.0539 C   0  0  0  0  0  0  0  0  0  0  0  0
   10.3426   -2.2045    8.1180 C   0  0  0  0  0  0  0  0  0  0  0  0
    9.9966   -2.4440    9.4454 C   0  0  0  0  0  0  0  0  0  0  0  0
   11.0077   -2.5176   10.4002 C   0  0  0  0  0  0  0  0  0  0  0  0
   12.3302   -2.3567   10.0067 C   0  0  0  0  0  0  0  0  0  0  0  0
   12.5883   -2.1352    8.6649 C   0  0  0  0  0  0  0  0  0  0  0  0
   11.6287   -2.0599    7.7161 N   0  0  0  0  0  0  0  0  0  0  0  0
    7.7058   -2.2916    4.5222 N   0  0  0  0  0  0  0  0  0  0  0  0
    6.6295   -2.5046    3.7034 C   0  0  0  0  0  0  0  0  0  0  0  0
    6.1373   -1.6047    2.8366 N   0  0  0  0  0  0  0  0  0  0  0  0
    0.8483    0.4582   -1.1182 H   0  0  0  0  0  0  0  0  0  0  0  0
    0.5608   -0.3405    0.4355 H   0  0  0  0  0  0  0  0  0  0  0  0
    1.0756   -1.2898   -0.9619 H   0  0  0  0  0  0  0  0  0  0  0  0
    3.1898    0.6446   -2.0400 H   0  0  0  0  0  0  0  0  0  0  0  0
    3.4986   -1.0860   -1.8223 H   0  0  0  0  0  0  0  0  0  0  0  0
    4.5923    0.1016   -1.1088 H   0  0  0  0  0  0  0  0  0  0  0  0
    2.3752    2.0550    0.0333 H   0  0  0  0  0  0  0  0  0  0  0  0
    3.8256    1.5217    0.8804 H   0  0  0  0  0  0  0  0  0  0  0  0
    2.2394    1.2443    1.6043 H   0  0  0  0  0  0  0  0  0  0  0  0
    4.9292   -0.2644    1.2853 H   0  0  0  0  0  0  0  0  0  0  0  0
    5.0083   -6.1553    3.7503 H   0  0  0  0  0  0  0  0  0  0  0  0
    3.5690   -7.8222    2.4838 H   0  0  0  0  0  0  0  0  0  0  0  0
    1.2257   -8.4062    1.9114 H   0  0  0  0  0  0  0  0  0  0  0  0
    2.2870   -3.8193    3.4463 H   0  0  0  0  0  0  0  0  0  0  0  0
    6.8451   -5.3038    5.4425 H   0  0  0  0  0  0  0  0  0  0  0  0
    9.8740   -3.8643    5.9564 H   0  0  0  0  0  0  0  0  0  0  0  0
    8.6463   -4.1450    7.1829 H   0  0  0  0  0  0  0  0  0  0  0  0
    8.3754   -1.6418    7.4813 H   0  0  0  0  0  0  0  0  0  0  0  0
    9.6410   -1.3809    6.2963 H   0  0  0  0  0  0  0  0  0  0  0  0
    8.9587   -2.5612    9.7398 H   0  0  0  0  0  0  0  0  0  0  0  0
   10.7643   -2.6939   11.4442 H   0  0  0  0  0  0  0  0  0  0  0  0
   13.1394   -2.4010   10.7268 H   0  0  0  0  0  0  0  0  0  0  0  0
   13.6054   -2.0042    8.3063 H   0  0  0  0  0  0  0  0  0  0  0  0
    8.2354   -1.4320    4.5259 H   0  0  0  0  0  0  0  0  0  0  0  0
  1  2  1  0  0  0  0
  1 34  1  0  0  0  0
  1 35  1  0  0  0  0
  1 36  1  0  0  0  0
  2  3  1  0  0  0  0
  2  4  1  0  0  0  0
  2  5  1  0  0  0  0
  3 37  1  0  0  0  0
  3 38  1  0  0  0  0
  3 39  1  0  0  0  0
  4 40  1  0  0  0  0
  4 41  1  0  0  0  0
  4 42  1  0  0  0  0
  5  6  2  0  0  0  0
  5  7  1  0  0  0  0
  7  8  1  0  0  0  0
  7 43  1  0  0  0  0
  8  9  1  0  0  0  0
  8 33  2  0  0  0  0
  9 10  2  0  0  0  0
 10 11  1  0  0  0  0
 10 20  1  0  0  0  0
 11 12  1  0  0  0  0
 11 44  1  0  0  0  0
 12 13  1  0  0  0  0
 12 19  2  0  0  0  0
 13 14  2  0  0  0  0
 13 45  1  0  0  0  0
 14 15  1  0  0  0  0
 14 46  1  0  0  0  0
 15 16  1  0  0  0  0
 15 17  2  0  0  0  0
 17 18  1  0  0  0  0
 17 19  1  0  0  0  0
 19 47  1  0  0  0  0
 20 21  1  0  0  0  0
 20 32  2  0  0  0  0
 21 22  2  0  0  0  0
 21 48  1  0  0  0  0
 22 23  1  0  0  0  0
 22 31  1  0  0  0  0
 23 24  1  0  0  0  0
 23 49  1  0  0  0  0
 23 50  1  0  0  0  0
 24 25  1  0  0  0  0
 24 51  1  0  0  0  0
 24 52  1  0  0  0  0
 25 26  1  0  0  0  0
 25 30  2  0  0  0  0
 26 27  2  0  0  0  0
 26 53  1  0  0  0  0
 27 28  1  0  0  0  0
 27 54  1  0  0  0  0
 28 29  2  0  0  0  0
 28 55  1  0  0  0  0
 29 30  1  0  0  0  0
 29 56  1  0  0  0  0
 31 32  1  0  0  0  0
 31 57  1  0  0  0  0
 32 33  1  0  0  0  0
M  END
$$$$
