CHEMBL1984711
 OpenBabel04072215363D

 58 61  0  0  0  0  0  0  0  0999 V2000
    4.1296   -8.5709    4.6973 C   0  0  0  0  0  0  0  0  0  0  0  0
    4.4150   -7.4646    5.5446 O   0  0  0  0  0  0  0  0  0  0  0  0
    4.4954   -6.2236    4.9656 C   0  0  0  0  0  0  0  0  0  0  0  0
    3.8811   -5.9260    3.7450 C   0  0  0  0  0  0  0  0  0  0  0  0
    3.8553   -4.6238    3.2282 C   0  0  0  0  0  0  0  0  0  0  0  0
    3.1905   -4.3221    2.0284 N   0  0  0  0  0  0  0  0  0  0  0  0
    1.9916   -4.9003    1.6050 C   0  0  0  0  0  0  0  0  0  0  0  0
    1.1243   -5.3750    2.5136 N   0  0  0  0  0  0  0  0  0  0  0  0
   -0.0240   -5.8909    2.0592 C   0  0  0  0  0  0  0  0  0  0  0  0
   -0.3385   -5.9546    0.7279 C   0  0  0  0  0  0  0  0  0  0  0  0
    0.5997   -5.4465   -0.1476 C   0  0  0  0  0  0  0  0  0  0  0  0
    0.2637   -5.3767   -1.5099 N   0  0  0  0  0  0  0  0  0  0  0  0
    0.7957   -4.5082   -2.3893 C   0  0  0  0  0  0  0  0  0  0  0  0
    1.6251   -3.4214   -2.2778 C   0  0  0  0  0  0  0  0  0  0  0  0
    1.6779   -2.8742   -3.5738 C   0  0  0  0  0  0  0  0  0  0  0  0
    2.3618   -1.6078   -3.9876 C   0  0  0  0  0  0  0  0  0  0  0  0
    1.3387   -0.5554   -4.4490 C   0  0  0  0  0  0  0  0  0  0  0  0
    2.0092    0.7226   -4.9403 C   0  0  0  0  0  0  0  0  0  0  0  0
    3.0402    0.4242   -6.0223 C   0  0  0  0  0  0  0  0  0  0  0  0
    4.0906   -0.5629   -5.5253 C   0  0  0  0  0  0  0  0  0  0  0  0
    3.4521   -1.8609   -5.0393 C   0  0  0  0  0  0  0  0  0  0  0  0
    0.9742   -3.6140   -4.4418 N   0  0  0  0  0  0  0  0  0  0  0  0
    0.4217   -4.6406   -3.6923 O   0  0  0  0  0  0  0  0  0  0  0  0
    1.7613   -4.9214    0.2907 N   0  0  0  0  0  0  0  0  0  0  0  0
    4.5375   -3.6144    3.9090 C   0  0  0  0  0  0  0  0  0  0  0  0
    5.1312   -3.8799    5.1484 C   0  0  0  0  0  0  0  0  0  0  0  0
    5.7594   -2.9030    5.8881 O   0  0  0  0  0  0  0  0  0  0  0  0
    5.1750   -1.6063    5.8029 C   0  0  0  0  0  0  0  0  0  0  0  0
    5.1364   -5.1903    5.6735 C   0  0  0  0  0  0  0  0  0  0  0  0
    5.7278   -5.3249    6.9087 O   0  0  0  0  0  0  0  0  0  0  0  0
    6.3854   -6.5591    7.1665 C   0  0  0  0  0  0  0  0  0  0  0  0
    4.1498   -9.4744    5.3140 H   0  0  0  0  0  0  0  0  0  0  0  0
    4.8968   -8.6732    3.9229 H   0  0  0  0  0  0  0  0  0  0  0  0
    3.1286   -8.5053    4.2597 H   0  0  0  0  0  0  0  0  0  0  0  0
    3.3617   -6.6977    3.1865 H   0  0  0  0  0  0  0  0  0  0  0  0
    3.7965   -4.2025    1.2259 H   0  0  0  0  0  0  0  0  0  0  0  0
   -0.7087   -6.2426    2.8242 H   0  0  0  0  0  0  0  0  0  0  0  0
   -1.2913   -6.3435    0.3976 H   0  0  0  0  0  0  0  0  0  0  0  0
   -0.2762   -6.1545   -1.8653 H   0  0  0  0  0  0  0  0  0  0  0  0
    2.0852   -3.0420   -1.3794 H   0  0  0  0  0  0  0  0  0  0  0  0
    2.8634   -1.1973   -3.0982 H   0  0  0  0  0  0  0  0  0  0  0  0
    0.6573   -0.3121   -3.6233 H   0  0  0  0  0  0  0  0  0  0  0  0
    0.7136   -0.9612   -5.2549 H   0  0  0  0  0  0  0  0  0  0  0  0
    2.4948    1.2303   -4.0977 H   0  0  0  0  0  0  0  0  0  0  0  0
    1.2487    1.4077   -5.3313 H   0  0  0  0  0  0  0  0  0  0  0  0
    3.5255    1.3544   -6.3367 H   0  0  0  0  0  0  0  0  0  0  0  0
    2.5360    0.0094   -6.9039 H   0  0  0  0  0  0  0  0  0  0  0  0
    4.6628   -0.1078   -4.7073 H   0  0  0  0  0  0  0  0  0  0  0  0
    4.8014   -0.7830   -6.3290 H   0  0  0  0  0  0  0  0  0  0  0  0
    4.2297   -2.5115   -4.6176 H   0  0  0  0  0  0  0  0  0  0  0  0
    3.0333   -2.3969   -5.8998 H   0  0  0  0  0  0  0  0  0  0  0  0
    4.5494   -2.6171    3.4848 H   0  0  0  0  0  0  0  0  0  0  0  0
    5.5347   -1.0180    6.6527 H   0  0  0  0  0  0  0  0  0  0  0  0
    4.0811   -1.6429    5.8636 H   0  0  0  0  0  0  0  0  0  0  0  0
    5.4977   -1.0991    4.8882 H   0  0  0  0  0  0  0  0  0  0  0  0
    7.1226   -6.3838    7.9538 H   0  0  0  0  0  0  0  0  0  0  0  0
    6.9212   -6.9361    6.2890 H   0  0  0  0  0  0  0  0  0  0  0  0
    5.6771   -7.2988    7.5531 H   0  0  0  0  0  0  0  0  0  0  0  0
  1  2  1  0  0  0  0
  1 32  1  0  0  0  0
  1 33  1  0  0  0  0
  1 34  1  0  0  0  0
  2  3  1  0  0  0  0
  3  4  1  0  0  0  0
  3 29  2  0  0  0  0
  4  5  2  0  0  0  0
  4 35  1  0  0  0  0
  5  6  1  0  0  0  0
  5 25  1  0  0  0  0
  6  7  1  0  0  0  0
  6 36  1  0  0  0  0
  7  8  1  0  0  0  0
  7 24  2  0  0  0  0
  8  9  2  0  0  0  0
  9 10  1  0  0  0  0
  9 37  1  0  0  0  0
 10 11  2  0  0  0  0
 10 38  1  0  0  0  0
 11 12  1  0  0  0  0
 11 24  1  0  0  0  0
 12 13  1  0  0  0  0
 12 39  1  0  0  0  0
 13 14  2  0  0  0  0
 13 23  1  0  0  0  0
 14 15  1  0  0  0  0
 14 40  1  0  0  0  0
 15 16  1  0  0  0  0
 15 22  2  0  0  0  0
 16 17  1  0  0  0  0
 16 21  1  0  0  0  0
 16 41  1  0  0  0  0
 17 18  1  0  0  0  0
 17 42  1  0  0  0  0
 17 43  1  0  0  0  0
 18 19  1  0  0  0  0
 18 44  1  0  0  0  0
 18 45  1  0  0  0  0
 19 20  1  0  0  0  0
 19 46  1  0  0  0  0
 19 47  1  0  0  0  0
 20 21  1  0  0  0  0
 20 48  1  0  0  0  0
 20 49  1  0  0  0  0
 21 50  1  0  0  0  0
 21 51  1  0  0  0  0
 22 23  1  0  0  0  0
 25 26  2  0  0  0  0
 25 52  1  0  0  0  0
 26 27  1  0  0  0  0
 26 29  1  0  0  0  0
 27 28  1  0  0  0  0
 28 53  1  0  0  0  0
 28 54  1  0  0  0  0
 28 55  1  0  0  0  0
 29 30  1  0  0  0  0
 30 31  1  0  0  0  0
 31 56  1  0  0  0  0
 31 57  1  0  0  0  0
 31 58  1  0  0  0  0
M  END
$$$$
