CHEMBL374206
 OpenBabel04072215373D

 26 28  0  0  0  0  0  0  0  0999 V2000
    2.3986    0.0303    0.1701 N   0  0  0  0  0  0  0  0  0  0  0  0
    1.0228    0.0337   -0.0803 C   0  0  0  0  0  0  0  0  0  0  0  0
    0.2852    1.2099    0.0510 C   0  0  0  0  0  0  0  0  0  0  0  0
   -1.1146    1.1850    0.0068 C   0  0  0  0  0  0  0  0  0  0  0  0
   -1.8075   -0.0261   -0.1447 C   0  0  0  0  0  0  0  0  0  0  0  0
   -3.2790   -0.0492   -0.0900 C   0  0  0  0  0  0  0  0  0  0  0  0
   -3.9357    0.9816   -0.6445 N   0  0  0  0  0  0  0  0  0  0  0  0
   -5.5609    0.7698   -0.4727 S   0  0  0  0  0  0  0  0  0  0  0  0
   -5.4644   -0.7018    0.3601 C   0  0  0  0  0  0  0  0  0  0  0  0
   -6.5593   -1.3702    0.7654 N   0  0  0  0  0  0  0  0  0  0  0  0
   -6.2437   -2.4969    1.4035 C   0  0  0  0  0  0  0  0  0  0  0  0
   -5.0159   -2.9615    1.6712 N   0  0  0  0  0  0  0  0  0  0  0  0
   -3.9428   -2.2536    1.2643 C   0  0  0  0  0  0  0  0  0  0  0  0
   -2.7208   -2.7988    1.6310 N   0  0  0  0  0  0  0  0  0  0  0  0
   -4.1331   -1.0583    0.5445 C   0  0  0  0  0  0  0  0  0  0  0  0
   -1.0605   -1.1926   -0.3233 C   0  0  0  0  0  0  0  0  0  0  0  0
    0.3355   -1.1701   -0.2302 C   0  0  0  0  0  0  0  0  0  0  0  0
    2.8621    0.9027   -0.0624 H   0  0  0  0  0  0  0  0  0  0  0  0
    2.8875   -0.7784   -0.2001 H   0  0  0  0  0  0  0  0  0  0  0  0
    0.7901    2.1603    0.2054 H   0  0  0  0  0  0  0  0  0  0  0  0
   -1.6584    2.1223    0.1123 H   0  0  0  0  0  0  0  0  0  0  0  0
   -7.0728   -3.1030    1.7544 H   0  0  0  0  0  0  0  0  0  0  0  0
   -2.8609   -3.5490    2.2998 H   0  0  0  0  0  0  0  0  0  0  0  0
   -2.0123   -2.1233    1.8923 H   0  0  0  0  0  0  0  0  0  0  0  0
   -1.5478   -2.1471   -0.5060 H   0  0  0  0  0  0  0  0  0  0  0  0
    0.8793   -2.1103   -0.2750 H   0  0  0  0  0  0  0  0  0  0  0  0
  1  2  1  0  0  0  0
  1 18  1  0  0  0  0
  1 19  1  0  0  0  0
  2  3  1  0  0  0  0
  2 17  2  0  0  0  0
  3  4  2  0  0  0  0
  3 20  1  0  0  0  0
  4  5  1  0  0  0  0
  4 21  1  0  0  0  0
  5  6  1  0  0  0  0
  5 16  2  0  0  0  0
  6  7  2  0  0  0  0
  6 15  1  0  0  0  0
  7  8  1  0  0  0  0
  8  9  1  0  0  0  0
  9 10  1  0  0  0  0
  9 15  2  0  0  0  0
 10 11  2  0  0  0  0
 11 12  1  0  0  0  0
 11 22  1  0  0  0  0
 12 13  2  0  0  0  0
 13 14  1  0  0  0  0
 13 15  1  0  0  0  0
 14 23  1  0  0  0  0
 14 24  1  0  0  0  0
 16 17  1  0  0  0  0
 16 25  1  0  0  0  0
 17 26  1  0  0  0  0
M  END
$$$$
