CHEMBL185695
 OpenBabel04072215363D

 62 65  0  0  0  0  0  0  0  0999 V2000
    1.1048   -0.0074   -0.1350 C   0  0  0  0  0  0  0  0  0  0  0  0
    2.5466    0.1125    0.1227 N   0  0  0  0  0  0  0  0  0  0  0  0
    3.2256   -1.0612    0.5014 C   0  0  0  0  0  0  0  0  0  0  0  0
    2.8115   -2.3208    0.0736 C   0  0  0  0  0  0  0  0  0  0  0  0
    3.4998   -3.4716    0.4523 C   0  0  0  0  0  0  0  0  0  0  0  0
    4.6380   -3.4062    1.2565 C   0  0  0  0  0  0  0  0  0  0  0  0
    5.3608   -4.5509    1.6616 N   0  0  0  0  0  0  0  0  0  0  0  0
    5.1107   -5.8423    1.2353 C   0  0  0  0  0  0  0  0  0  0  0  0
    4.3059   -6.1512    0.3635 O   0  0  0  0  0  0  0  0  0  0  0  0
    5.8488   -6.7780    1.9485 N   0  0  0  0  0  0  0  0  0  0  0  0
    5.6610   -8.1540    1.6715 C   0  0  0  0  0  0  0  0  0  0  0  0
    5.6335   -8.6303    0.3552 C   0  0  0  0  0  0  0  0  0  0  0  0
    5.3120   -9.9617    0.0941 C   0  0  0  0  0  0  0  0  0  0  0  0
    5.0164  -10.8200    1.1479 C   0  0  0  0  0  0  0  0  0  0  0  0
    5.0764  -10.3573    2.4634 C   0  0  0  0  0  0  0  0  0  0  0  0
    5.4230   -9.0302    2.7299 C   0  0  0  0  0  0  0  0  0  0  0  0
    5.0662   -2.1532    1.6968 C   0  0  0  0  0  0  0  0  0  0  0  0
    4.3623   -0.9980    1.3279 C   0  0  0  0  0  0  0  0  0  0  0  0
    3.1189    1.2480   -0.5101 C   0  0  0  0  0  0  0  0  0  0  0  0
    4.4068    1.2191   -1.0094 C   0  0  0  0  0  0  0  0  0  0  0  0
    4.8762    2.3707   -1.5934 C   0  0  0  0  0  0  0  0  0  0  0  0
    4.1579    3.4993   -1.6921 N   0  0  0  0  0  0  0  0  0  0  0  0
    2.9189    3.4554   -1.1861 C   0  0  0  0  0  0  0  0  0  0  0  0
    2.1706    4.6341   -1.2391 N   0  0  0  0  0  0  0  0  0  0  0  0
    1.2250    5.0477   -0.2840 C   0  0  0  0  0  0  0  0  0  0  0  0
    0.2060    5.9230   -0.6609 C   0  0  0  0  0  0  0  0  0  0  0  0
   -0.7540    6.3304    0.2681 C   0  0  0  0  0  0  0  0  0  0  0  0
   -0.6903    5.8858    1.5916 C   0  0  0  0  0  0  0  0  0  0  0  0
    0.3507    5.0493    2.0084 C   0  0  0  0  0  0  0  0  0  0  0  0
    0.4857    4.6158    3.4433 C   0  0  0  0  0  0  0  0  0  0  0  0
   -0.4217    3.1172    3.7979 S   0  0  0  0  0  0  0  0  0  0  0  0
    0.2526    1.8988    2.7002 C   0  0  0  0  0  0  0  0  0  0  0  0
   -0.0568    2.7106    5.1451 O   0  0  0  0  0  0  0  0  0  0  0  0
   -1.8198    3.3067    3.4570 O   0  0  0  0  0  0  0  0  0  0  0  0
    1.3025    4.6481    1.0598 C   0  0  0  0  0  0  0  0  0  0  0  0
    2.3840    2.3634   -0.6197 N   0  0  0  0  0  0  0  0  0  0  0  0
    0.6459   -0.8121    0.4554 H   0  0  0  0  0  0  0  0  0  0  0  0
    0.9030   -0.1953   -1.1958 H   0  0  0  0  0  0  0  0  0  0  0  0
    0.5647    0.8961    0.1503 H   0  0  0  0  0  0  0  0  0  0  0  0
    1.9566   -2.4419   -0.5855 H   0  0  0  0  0  0  0  0  0  0  0  0
    3.1011   -4.4082    0.0798 H   0  0  0  0  0  0  0  0  0  0  0  0
    6.1950   -4.4068    2.2108 H   0  0  0  0  0  0  0  0  0  0  0  0
    5.9953   -6.5361    2.9175 H   0  0  0  0  0  0  0  0  0  0  0  0
    5.8285   -7.9613   -0.4803 H   0  0  0  0  0  0  0  0  0  0  0  0
    5.2628  -10.3121   -0.9340 H   0  0  0  0  0  0  0  0  0  0  0  0
    4.7246  -11.8461    0.9424 H   0  0  0  0  0  0  0  0  0  0  0  0
    4.8198  -11.0251    3.2814 H   0  0  0  0  0  0  0  0  0  0  0  0
    5.4207   -8.6798    3.7572 H   0  0  0  0  0  0  0  0  0  0  0  0
    5.9413   -2.0494    2.3320 H   0  0  0  0  0  0  0  0  0  0  0  0
    4.6992   -0.0343    1.7061 H   0  0  0  0  0  0  0  0  0  0  0  0
    5.0279    0.3331   -0.9785 H   0  0  0  0  0  0  0  0  0  0  0  0
    5.8789    2.4162   -2.0074 H   0  0  0  0  0  0  0  0  0  0  0  0
    2.7774    5.3704   -1.5658 H   0  0  0  0  0  0  0  0  0  0  0  0
    0.1323    6.2639   -1.6907 H   0  0  0  0  0  0  0  0  0  0  0  0
   -1.5599    6.9910   -0.0437 H   0  0  0  0  0  0  0  0  0  0  0  0
   -1.4556    6.2082    2.2959 H   0  0  0  0  0  0  0  0  0  0  0  0
    0.1084    5.3887    4.1197 H   0  0  0  0  0  0  0  0  0  0  0  0
    1.5341    4.4317    3.6999 H   0  0  0  0  0  0  0  0  0  0  0  0
    1.3387    1.8723    2.8097 H   0  0  0  0  0  0  0  0  0  0  0  0
   -0.0398    2.1652    1.6866 H   0  0  0  0  0  0  0  0  0  0  0  0
   -0.1670    0.9243    2.9604 H   0  0  0  0  0  0  0  0  0  0  0  0
    2.1258    4.0089    1.3738 H   0  0  0  0  0  0  0  0  0  0  0  0
  1  2  1  0  0  0  0
  1 37  1  0  0  0  0
  1 38  1  0  0  0  0
  1 39  1  0  0  0  0
  2  3  1  0  0  0  0
  2 19  1  0  0  0  0
  3  4  1  0  0  0  0
  3 18  2  0  0  0  0
  4  5  2  0  0  0  0
  4 40  1  0  0  0  0
  5  6  1  0  0  0  0
  5 41  1  0  0  0  0
  6  7  1  0  0  0  0
  6 17  2  0  0  0  0
  7  8  1  0  0  0  0
  7 42  1  0  0  0  0
  8  9  2  0  0  0  0
  8 10  1  0  0  0  0
 10 11  1  0  0  0  0
 10 43  1  0  0  0  0
 11 12  1  0  0  0  0
 11 16  2  0  0  0  0
 12 13  2  0  0  0  0
 12 44  1  0  0  0  0
 13 14  1  0  0  0  0
 13 45  1  0  0  0  0
 14 15  2  0  0  0  0
 14 46  1  0  0  0  0
 15 16  1  0  0  0  0
 15 47  1  0  0  0  0
 16 48  1  0  0  0  0
 17 18  1  0  0  0  0
 17 49  1  0  0  0  0
 18 50  1  0  0  0  0
 19 20  1  0  0  0  0
 19 36  2  0  0  0  0
 20 21  2  0  0  0  0
 20 51  1  0  0  0  0
 21 22  1  0  0  0  0
 21 52  1  0  0  0  0
 22 23  2  0  0  0  0
 23 24  1  0  0  0  0
 23 36  1  0  0  0  0
 24 25  1  0  0  0  0
 24 53  1  0  0  0  0
 25 26  1  0  0  0  0
 25 35  2  0  0  0  0
 26 27  2  0  0  0  0
 26 54  1  0  0  0  0
 27 28  1  0  0  0  0
 27 55  1  0  0  0  0
 28 29  2  0  0  0  0
 28 56  1  0  0  0  0
 29 30  1  0  0  0  0
 29 35  1  0  0  0  0
 30 31  1  0  0  0  0
 30 57  1  0  0  0  0
 30 58  1  0  0  0  0
 31 32  1  0  0  0  0
 31 33  2  0  0  0  0
 31 34  2  0  0  0  0
 32 59  1  0  0  0  0
 32 60  1  0  0  0  0
 32 61  1  0  0  0  0
 35 62  1  0  0  0  0
M  END
$$$$
