CHEMBL231270
 OpenBabel04072215363D

 66 70  0  0  0  0  0  0  0  0999 V2000
   13.8937    4.3480   -2.7033 C   0  0  0  0  0  0  0  0  0  0  0  0
   12.5812    4.3190   -2.1177 N   0  0  0  0  0  0  0  0  0  0  0  0
   11.4883    3.8661   -2.8218 C   0  0  0  0  0  0  0  0  0  0  0  0
   11.5491    3.4354   -3.9690 O   0  0  0  0  0  0  0  0  0  0  0  0
   10.1918    3.9104   -2.0734 C   0  0  0  0  0  0  0  0  0  0  0  0
    9.0459    3.4183   -2.6823 C   0  0  0  0  0  0  0  0  0  0  0  0
    7.8873    3.3340   -1.9224 C   0  0  0  0  0  0  0  0  0  0  0  0
    6.7036    2.7852   -2.3673 O   0  0  0  0  0  0  0  0  0  0  0  0
    6.7440    1.7431   -3.2761 C   0  0  0  0  0  0  0  0  0  0  0  0
    7.7252    0.7437   -3.2614 C   0  0  0  0  0  0  0  0  0  0  0  0
    7.7719   -0.2482   -4.2470 C   0  0  0  0  0  0  0  0  0  0  0  0
    6.7520   -0.2263   -5.1956 C   0  0  0  0  0  0  0  0  0  0  0  0
    6.4799   -1.0246   -6.2756 N   0  0  0  0  0  0  0  0  0  0  0  0
    5.3363   -0.5692   -6.8807 C   0  0  0  0  0  0  0  0  0  0  0  0
    4.8503   -1.2235   -7.9572 N   0  0  0  0  0  0  0  0  0  0  0  0
    4.0350   -0.6634   -8.9631 C   0  0  0  0  0  0  0  0  0  0  0  0
    3.9971    0.7110   -9.2276 C   0  0  0  0  0  0  0  0  0  0  0  0
    3.2112    1.2252  -10.2630 C   0  0  0  0  0  0  0  0  0  0  0  0
    3.2194    2.5302  -10.6830 O   0  0  0  0  0  0  0  0  0  0  0  0
    4.4474    3.2224  -10.4223 C   0  0  0  0  0  0  0  0  0  0  0  0
    4.5860    4.4055  -11.3933 C   0  0  0  0  0  0  0  0  0  0  0  0
    5.8941    5.0838  -11.2982 N   0  0  0  0  0  0  0  0  0  0  0  0
    6.1214    5.7272   -9.9939 C   0  0  0  0  0  0  0  0  0  0  0  0
    5.5407    7.1160  -10.1456 C   0  0  0  0  0  0  0  0  0  0  0  0
    5.9808    7.4879  -11.5451 C   0  0  0  0  0  0  0  0  0  0  0  0
    6.0057    6.1625  -12.3014 C   0  0  0  0  0  0  0  0  0  0  0  0
    2.3586    0.3811  -10.9685 C   0  0  0  0  0  0  0  0  0  0  0  0
    2.3484   -0.9937  -10.7063 C   0  0  0  0  0  0  0  0  0  0  0  0
    1.4728   -1.9258  -11.4997 C   0  0  0  0  0  0  0  0  0  0  0  0
    0.7108   -1.3007  -12.4396 F   0  0  0  0  0  0  0  0  0  0  0  0
    2.1994   -2.8615  -12.1736 F   0  0  0  0  0  0  0  0  0  0  0  0
    0.6046   -2.6239  -10.7170 F   0  0  0  0  0  0  0  0  0  0  0  0
    3.1973   -1.5043   -9.7081 C   0  0  0  0  0  0  0  0  0  0  0  0
    4.8731    0.4898   -6.2531 N   0  0  0  0  0  0  0  0  0  0  0  0
    5.7281    0.7123   -5.2010 C   0  0  0  0  0  0  0  0  0  0  0  0
    5.7046    1.7108   -4.2169 C   0  0  0  0  0  0  0  0  0  0  0  0
    7.8769    3.8555   -0.6296 C   0  0  0  0  0  0  0  0  0  0  0  0
    9.0598    4.3697   -0.1223 C   0  0  0  0  0  0  0  0  0  0  0  0
   10.2273    4.3905   -0.7972 N   0  0  0  0  0  0  0  0  0  0  0  0
   14.6007    4.7490   -1.9739 H   0  0  0  0  0  0  0  0  0  0  0  0
   13.8735    4.9808   -3.5947 H   0  0  0  0  0  0  0  0  0  0  0  0
   14.1852    3.3338   -2.9910 H   0  0  0  0  0  0  0  0  0  0  0  0
   12.4189    4.6409   -1.1676 H   0  0  0  0  0  0  0  0  0  0  0  0
    9.0878    3.0762   -3.7122 H   0  0  0  0  0  0  0  0  0  0  0  0
    8.4957    0.7368   -2.4939 H   0  0  0  0  0  0  0  0  0  0  0  0
    8.5678   -0.9843   -4.2661 H   0  0  0  0  0  0  0  0  0  0  0  0
    7.0459   -1.7923   -6.5983 H   0  0  0  0  0  0  0  0  0  0  0  0
    5.1784   -2.1531   -8.1890 H   0  0  0  0  0  0  0  0  0  0  0  0
    4.6255    1.3732   -8.6395 H   0  0  0  0  0  0  0  0  0  0  0  0
    5.3110    2.5606  -10.5692 H   0  0  0  0  0  0  0  0  0  0  0  0
    4.4187    3.5722   -9.3859 H   0  0  0  0  0  0  0  0  0  0  0  0
    3.7479    5.1000  -11.2536 H   0  0  0  0  0  0  0  0  0  0  0  0
    4.4719    4.0030  -12.4097 H   0  0  0  0  0  0  0  0  0  0  0  0
    7.2037    5.7917   -9.8266 H   0  0  0  0  0  0  0  0  0  0  0  0
    5.7081    5.1959   -9.1338 H   0  0  0  0  0  0  0  0  0  0  0  0
    5.9141    7.8119   -9.3892 H   0  0  0  0  0  0  0  0  0  0  0  0
    4.4463    7.0914  -10.0811 H   0  0  0  0  0  0  0  0  0  0  0  0
    6.9900    7.9158  -11.5115 H   0  0  0  0  0  0  0  0  0  0  0  0
    5.3129    8.2229  -12.0035 H   0  0  0  0  0  0  0  0  0  0  0  0
    6.9544    6.0608  -12.8418 H   0  0  0  0  0  0  0  0  0  0  0  0
    5.2084    6.1307  -13.0534 H   0  0  0  0  0  0  0  0  0  0  0  0
    1.7221    0.8011  -11.7452 H   0  0  0  0  0  0  0  0  0  0  0  0
    3.1880   -2.5743   -9.5044 H   0  0  0  0  0  0  0  0  0  0  0  0
    4.9093    2.4471   -4.2072 H   0  0  0  0  0  0  0  0  0  0  0  0
    6.9718    3.8502   -0.0334 H   0  0  0  0  0  0  0  0  0  0  0  0
    9.0966    4.7846    0.8843 H   0  0  0  0  0  0  0  0  0  0  0  0
  1  2  1  0  0  0  0
  1 40  1  0  0  0  0
  1 41  1  0  0  0  0
  1 42  1  0  0  0  0
  2  3  1  0  0  0  0
  2 43  1  0  0  0  0
  3  4  2  0  0  0  0
  3  5  1  0  0  0  0
  5  6  1  0  0  0  0
  5 39  2  0  0  0  0
  6  7  2  0  0  0  0
  6 44  1  0  0  0  0
  7  8  1  0  0  0  0
  7 37  1  0  0  0  0
  8  9  1  0  0  0  0
  9 10  1  0  0  0  0
  9 36  2  0  0  0  0
 10 11  2  0  0  0  0
 10 45  1  0  0  0  0
 11 12  1  0  0  0  0
 11 46  1  0  0  0  0
 12 13  1  0  0  0  0
 12 35  2  0  0  0  0
 13 14  1  0  0  0  0
 13 47  1  0  0  0  0
 14 15  1  0  0  0  0
 14 34  2  0  0  0  0
 15 16  1  0  0  0  0
 15 48  1  0  0  0  0
 16 17  1  0  0  0  0
 16 33  2  0  0  0  0
 17 18  2  0  0  0  0
 17 49  1  0  0  0  0
 18 19  1  0  0  0  0
 18 27  1  0  0  0  0
 19 20  1  0  0  0  0
 20 21  1  0  0  0  0
 20 50  1  0  0  0  0
 20 51  1  0  0  0  0
 21 22  1  0  0  0  0
 21 52  1  0  0  0  0
 21 53  1  0  0  0  0
 22 23  1  0  0  0  0
 22 26  1  0  0  0  0
 23 24  1  0  0  0  0
 23 54  1  0  0  0  0
 23 55  1  0  0  0  0
 24 25  1  0  0  0  0
 24 56  1  0  0  0  0
 24 57  1  0  0  0  0
 25 26  1  0  0  0  0
 25 58  1  0  0  0  0
 25 59  1  0  0  0  0
 26 60  1  0  0  0  0
 26 61  1  0  0  0  0
 27 28  2  0  0  0  0
 27 62  1  0  0  0  0
 28 29  1  0  0  0  0
 28 33  1  0  0  0  0
 29 30  1  0  0  0  0
 29 31  1  0  0  0  0
 29 32  1  0  0  0  0
 33 63  1  0  0  0  0
 34 35  1  0  0  0  0
 35 36  1  0  0  0  0
 36 64  1  0  0  0  0
 37 38  2  0  0  0  0
 37 65  1  0  0  0  0
 38 39  1  0  0  0  0
 38 66  1  0  0  0  0
M  END
$$$$
