CHEMBL1242471
 OpenBabel04072215363D

 36 38  0  0  0  0  0  0  0  0999 V2000
    0.9611    0.4978    1.0419 C   0  0  0  0  0  0  0  0  0  0  0  0
    2.4745    0.5328    1.1314 C   0  0  0  0  0  0  0  0  0  0  0  0
    2.9750   -0.7963    0.9840 O   0  0  0  0  0  0  0  0  0  0  0  0
    4.3198   -0.9796    1.1776 C   0  0  0  0  0  0  0  0  0  0  0  0
    5.2279    0.0807    1.2971 C   0  0  0  0  0  0  0  0  0  0  0  0
    6.5846   -0.1566    1.5383 C   0  0  0  0  0  0  0  0  0  0  0  0
    7.0698   -1.4596    1.6829 C   0  0  0  0  0  0  0  0  0  0  0  0
    8.4910   -1.6854    1.9552 C   0  0  0  0  0  0  0  0  0  0  0  0
    9.1768   -0.7842    2.6889 N   0  0  0  0  0  0  0  0  0  0  0  0
   10.4112   -1.3032    2.7824 N   0  0  0  0  0  0  0  0  0  0  0  0
   10.5655   -2.4780    2.1184 C   0  0  0  0  0  0  0  0  0  0  0  0
   11.6945   -3.1996    2.0485 N   0  0  0  0  0  0  0  0  0  0  0  0
   11.5148   -4.3010    1.3050 C   0  0  0  0  0  0  0  0  0  0  0  0
   10.4001   -4.6881    0.6572 N   0  0  0  0  0  0  0  0  0  0  0  0
    9.2929   -3.9216    0.7519 C   0  0  0  0  0  0  0  0  0  0  0  0
    8.1935   -4.3593    0.0267 N   0  0  0  0  0  0  0  0  0  0  0  0
    9.3424   -2.7600    1.5339 C   0  0  0  0  0  0  0  0  0  0  0  0
    6.1580   -2.5146    1.5906 C   0  0  0  0  0  0  0  0  0  0  0  0
    4.8042   -2.2928    1.2909 C   0  0  0  0  0  0  0  0  0  0  0  0
    4.0813   -3.4550    1.1988 O   0  0  0  0  0  0  0  0  0  0  0  0
    2.9865   -3.4567    0.2912 C   0  0  0  0  0  0  0  0  0  0  0  0
    0.5487    1.5070    1.1315 H   0  0  0  0  0  0  0  0  0  0  0  0
    0.5416   -0.1269    1.8370 H   0  0  0  0  0  0  0  0  0  0  0  0
    0.6394    0.0665    0.0883 H   0  0  0  0  0  0  0  0  0  0  0  0
    2.7595    0.9441    2.1072 H   0  0  0  0  0  0  0  0  0  0  0  0
    2.8600    1.1673    0.3252 H   0  0  0  0  0  0  0  0  0  0  0  0
    4.9167    1.1170    1.2180 H   0  0  0  0  0  0  0  0  0  0  0  0
    7.2591    0.6936    1.6341 H   0  0  0  0  0  0  0  0  0  0  0  0
   11.1172   -0.8060    3.3104 H   0  0  0  0  0  0  0  0  0  0  0  0
   12.3747   -4.9568    1.2040 H   0  0  0  0  0  0  0  0  0  0  0  0
    8.4595   -5.0841   -0.6302 H   0  0  0  0  0  0  0  0  0  0  0  0
    7.5912   -3.6336   -0.3386 H   0  0  0  0  0  0  0  0  0  0  0  0
    6.4817   -3.5396    1.7590 H   0  0  0  0  0  0  0  0  0  0  0  0
    2.7807   -4.4994    0.0262 H   0  0  0  0  0  0  0  0  0  0  0  0
    3.2114   -2.9229   -0.6384 H   0  0  0  0  0  0  0  0  0  0  0  0
    2.0878   -3.0639    0.7743 H   0  0  0  0  0  0  0  0  0  0  0  0
  1  2  1  0  0  0  0
  1 22  1  0  0  0  0
  1 23  1  0  0  0  0
  1 24  1  0  0  0  0
  2  3  1  0  0  0  0
  2 25  1  0  0  0  0
  2 26  1  0  0  0  0
  3  4  1  0  0  0  0
  4  5  1  0  0  0  0
  4 19  2  0  0  0  0
  5  6  2  0  0  0  0
  5 27  1  0  0  0  0
  6  7  1  0  0  0  0
  6 28  1  0  0  0  0
  7  8  1  0  0  0  0
  7 18  2  0  0  0  0
  8  9  2  0  0  0  0
  8 17  1  0  0  0  0
  9 10  1  0  0  0  0
 10 11  1  0  0  0  0
 10 29  1  0  0  0  0
 11 12  1  0  0  0  0
 11 17  2  0  0  0  0
 12 13  2  0  0  0  0
 13 14  1  0  0  0  0
 13 30  1  0  0  0  0
 14 15  2  0  0  0  0
 15 16  1  0  0  0  0
 15 17  1  0  0  0  0
 16 31  1  0  0  0  0
 16 32  1  0  0  0  0
 18 19  1  0  0  0  0
 18 33  1  0  0  0  0
 19 20  1  0  0  0  0
 20 21  1  0  0  0  0
 21 34  1  0  0  0  0
 21 35  1  0  0  0  0
 21 36  1  0  0  0  0
M  END
$$$$
