CHEMBL2018886
 OpenBabel04072215363D

 60 64  0  0  0  0  0  0  0  0999 V2000
   10.4447   -0.5007   -3.7245 C   0  0  0  0  0  0  0  0  0  0  0  0
   10.6820    0.9115   -3.6491 O   0  0  0  0  0  0  0  0  0  0  0  0
    9.6059    1.6605   -3.2449 C   0  0  0  0  0  0  0  0  0  0  0  0
    8.6868    1.1475   -2.3128 C   0  0  0  0  0  0  0  0  0  0  0  0
    7.4879    1.7797   -2.0266 C   0  0  0  0  0  0  0  0  0  0  0  0
    6.6178    1.1572   -1.2271 N   0  0  0  0  0  0  0  0  0  0  0  0
    5.4204    1.7293   -1.0718 C   0  0  0  0  0  0  0  0  0  0  0  0
    5.0198    2.8676   -1.6463 N   0  0  0  0  0  0  0  0  0  0  0  0
    5.9423    3.5103   -2.3937 C   0  0  0  0  0  0  0  0  0  0  0  0
    5.5678    4.6892   -3.0492 O   0  0  0  0  0  0  0  0  0  0  0  0
    4.4473    5.3447   -2.5808 C   0  0  0  0  0  0  0  0  0  0  0  0
    4.2619    5.5948   -1.2345 C   0  0  0  0  0  0  0  0  0  0  0  0
    3.0819    6.1947   -0.8003 C   0  0  0  0  0  0  0  0  0  0  0  0
    2.0667    6.5845   -1.6849 C   0  0  0  0  0  0  0  0  0  0  0  0
    0.8508    7.1348   -1.1864 N   0  0  0  0  0  0  0  0  0  0  0  0
    0.4192    7.0414    0.1360 C   0  0  0  0  0  0  0  0  0  0  0  0
    1.0240    6.4807    1.0442 O   0  0  0  0  0  0  0  0  0  0  0  0
   -0.8364    7.6084    0.3292 N   0  0  0  0  0  0  0  0  0  0  0  0
   -1.4459    7.5636    1.6129 C   0  0  0  0  0  0  0  0  0  0  0  0
   -2.7613    7.1160    1.7082 C   0  0  0  0  0  0  0  0  0  0  0  0
   -3.3578    6.9594    2.9624 C   0  0  0  0  0  0  0  0  0  0  0  0
   -2.6754    7.3062    4.1384 C   0  0  0  0  0  0  0  0  0  0  0  0
   -3.2708    7.1561    5.4034 C   0  0  0  0  0  0  0  0  0  0  0  0
   -2.5936    7.5327    6.5632 C   0  0  0  0  0  0  0  0  0  0  0  0
   -1.3083    8.0573    6.4747 C   0  0  0  0  0  0  0  0  0  0  0  0
   -0.6935    8.1914    5.2273 C   0  0  0  0  0  0  0  0  0  0  0  0
   -1.3612    7.8156    4.0468 C   0  0  0  0  0  0  0  0  0  0  0  0
   -0.7548    7.9237    2.7800 C   0  0  0  0  0  0  0  0  0  0  0  0
    2.2890    6.4068   -3.0704 C   0  0  0  0  0  0  0  0  0  0  0  0
    1.3153    6.8319   -4.1380 C   0  0  0  0  0  0  0  0  0  0  0  0
    3.4934    5.7951   -3.5020 C   0  0  0  0  0  0  0  0  0  0  0  0
    7.2259    3.0083   -2.6278 C   0  0  0  0  0  0  0  0  0  0  0  0
    8.2176    3.6210   -3.4257 C   0  0  0  0  0  0  0  0  0  0  0  0
    9.4044    2.9490   -3.7529 C   0  0  0  0  0  0  0  0  0  0  0  0
   10.1933    3.6930   -4.5839 O   0  0  0  0  0  0  0  0  0  0  0  0
   11.3066    3.0905   -5.2226 C   0  0  0  0  0  0  0  0  0  0  0  0
   10.9671   -0.8912   -4.6021 H   0  0  0  0  0  0  0  0  0  0  0  0
    9.3865   -0.7673   -3.8448 H   0  0  0  0  0  0  0  0  0  0  0  0
   10.8537   -0.9860   -2.8330 H   0  0  0  0  0  0  0  0  0  0  0  0
    8.8724    0.1949   -1.8228 H   0  0  0  0  0  0  0  0  0  0  0  0
    4.7063    1.2240   -0.4337 H   0  0  0  0  0  0  0  0  0  0  0  0
    4.9933    5.2871   -0.5010 H   0  0  0  0  0  0  0  0  0  0  0  0
    3.0035    6.3418    0.2709 H   0  0  0  0  0  0  0  0  0  0  0  0
    0.2154    7.5474   -1.8511 H   0  0  0  0  0  0  0  0  0  0  0  0
   -1.4610    7.5129   -0.4571 H   0  0  0  0  0  0  0  0  0  0  0  0
   -3.3143    6.8155    0.8234 H   0  0  0  0  0  0  0  0  0  0  0  0
   -4.3645    6.5488    3.0174 H   0  0  0  0  0  0  0  0  0  0  0  0
   -4.2730    6.7425    5.4924 H   0  0  0  0  0  0  0  0  0  0  0  0
   -3.0698    7.4149    7.5339 H   0  0  0  0  0  0  0  0  0  0  0  0
   -0.7803    8.3570    7.3773 H   0  0  0  0  0  0  0  0  0  0  0  0
    0.3174    8.5917    5.1814 H   0  0  0  0  0  0  0  0  0  0  0  0
    0.2678    8.2871    2.7067 H   0  0  0  0  0  0  0  0  0  0  0  0
    0.2791    6.8008   -3.7929 H   0  0  0  0  0  0  0  0  0  0  0  0
    1.3686    6.1537   -4.9983 H   0  0  0  0  0  0  0  0  0  0  0  0
    1.5502    7.8438   -4.4834 H   0  0  0  0  0  0  0  0  0  0  0  0
    3.6781    5.6440   -4.5657 H   0  0  0  0  0  0  0  0  0  0  0  0
    8.0536    4.6171   -3.8313 H   0  0  0  0  0  0  0  0  0  0  0  0
   11.6565    3.7948   -5.9848 H   0  0  0  0  0  0  0  0  0  0  0  0
   11.0299    2.1704   -5.7435 H   0  0  0  0  0  0  0  0  0  0  0  0
   12.1274    2.9342   -4.5179 H   0  0  0  0  0  0  0  0  0  0  0  0
  1  2  1  0  0  0  0
  1 37  1  0  0  0  0
  1 38  1  0  0  0  0
  1 39  1  0  0  0  0
  2  3  1  0  0  0  0
  3  4  1  0  0  0  0
  3 34  2  0  0  0  0
  4  5  2  0  0  0  0
  4 40  1  0  0  0  0
  5  6  1  0  0  0  0
  5 32  1  0  0  0  0
  6  7  2  0  0  0  0
  7  8  1  0  0  0  0
  7 41  1  0  0  0  0
  8  9  2  0  0  0  0
  9 10  1  0  0  0  0
  9 32  1  0  0  0  0
 10 11  1  0  0  0  0
 11 12  1  0  0  0  0
 11 31  2  0  0  0  0
 12 13  2  0  0  0  0
 12 42  1  0  0  0  0
 13 14  1  0  0  0  0
 13 43  1  0  0  0  0
 14 15  1  0  0  0  0
 14 29  2  0  0  0  0
 15 16  1  0  0  0  0
 15 44  1  0  0  0  0
 16 17  2  0  0  0  0
 16 18  1  0  0  0  0
 18 19  1  0  0  0  0
 18 45  1  0  0  0  0
 19 20  1  0  0  0  0
 19 28  2  0  0  0  0
 20 21  2  0  0  0  0
 20 46  1  0  0  0  0
 21 22  1  0  0  0  0
 21 47  1  0  0  0  0
 22 23  1  0  0  0  0
 22 27  2  0  0  0  0
 23 24  2  0  0  0  0
 23 48  1  0  0  0  0
 24 25  1  0  0  0  0
 24 49  1  0  0  0  0
 25 26  2  0  0  0  0
 25 50  1  0  0  0  0
 26 27  1  0  0  0  0
 26 51  1  0  0  0  0
 27 28  1  0  0  0  0
 28 52  1  0  0  0  0
 29 30  1  0  0  0  0
 29 31  1  0  0  0  0
 30 53  1  0  0  0  0
 30 54  1  0  0  0  0
 30 55  1  0  0  0  0
 31 56  1  0  0  0  0
 32 33  2  0  0  0  0
 33 34  1  0  0  0  0
 33 57  1  0  0  0  0
 34 35  1  0  0  0  0
 35 36  1  0  0  0  0
 36 58  1  0  0  0  0
 36 59  1  0  0  0  0
 36 60  1  0  0  0  0
M  END
$$$$
