CHEMBL1278148
 OpenBabel04072215363D

 35 37  0  0  0  0  0  0  0  0999 V2000
    2.4668    1.6236   -0.0588 C   0  0  0  0  0  0  0  0  0  0  0  0
    2.2723    0.2156    0.0857 O   0  0  0  0  0  0  0  0  0  0  0  0
    2.9249   -0.3673    1.1427 C   0  0  0  0  0  0  0  0  0  0  0  0
    4.0789    0.1907    1.7108 C   0  0  0  0  0  0  0  0  0  0  0  0
    4.6804   -0.3345    2.8407 C   0  0  0  0  0  0  0  0  0  0  0  0
    5.7443    0.3034    3.3341 N   0  0  0  0  0  0  0  0  0  0  0  0
    6.3054   -0.2039    4.4358 C   0  0  0  0  0  0  0  0  0  0  0  0
    5.9012   -1.2940    5.0815 N   0  0  0  0  0  0  0  0  0  0  0  0
    4.8027   -1.9048    4.5834 C   0  0  0  0  0  0  0  0  0  0  0  0
    4.3032   -3.0206    5.2613 O   0  0  0  0  0  0  0  0  0  0  0  0
    4.7230   -3.2022    6.5637 C   0  0  0  0  0  0  0  0  0  0  0  0
    4.6766   -2.1692    7.5120 C   0  0  0  0  0  0  0  0  0  0  0  0
    5.1758   -2.3761    8.7961 C   0  0  0  0  0  0  0  0  0  0  0  0
    5.6669   -3.6292    9.1447 C   0  0  0  0  0  0  0  0  0  0  0  0
    6.1549   -3.8038   10.3824 F   0  0  0  0  0  0  0  0  0  0  0  0
    5.6539   -4.6794    8.2266 C   0  0  0  0  0  0  0  0  0  0  0  0
    6.2292   -6.2389    8.6787 Cl  0  0  0  0  0  0  0  0  0  0  0  0
    5.1780   -4.4710    6.9299 C   0  0  0  0  0  0  0  0  0  0  0  0
    4.1363   -1.4807    3.4276 C   0  0  0  0  0  0  0  0  0  0  0  0
    2.9975   -2.0886    2.8417 C   0  0  0  0  0  0  0  0  0  0  0  0
    2.4103   -1.5495    1.6854 C   0  0  0  0  0  0  0  0  0  0  0  0
    1.3041   -2.2309    1.2560 O   0  0  0  0  0  0  0  0  0  0  0  0
    1.1349   -2.3405   -0.1545 C   0  0  0  0  0  0  0  0  0  0  0  0
    1.6831    2.0098   -0.7166 H   0  0  0  0  0  0  0  0  0  0  0  0
    3.4327    1.8333   -0.5299 H   0  0  0  0  0  0  0  0  0  0  0  0
    2.3787    2.1457    0.9009 H   0  0  0  0  0  0  0  0  0  0  0  0
    4.5400    1.0757    1.2824 H   0  0  0  0  0  0  0  0  0  0  0  0
    7.1526    0.3305    4.8513 H   0  0  0  0  0  0  0  0  0  0  0  0
    4.2940   -1.1887    7.2396 H   0  0  0  0  0  0  0  0  0  0  0  0
    5.1951   -1.5668    9.5172 H   0  0  0  0  0  0  0  0  0  0  0  0
    5.1819   -5.2797    6.2044 H   0  0  0  0  0  0  0  0  0  0  0  0
    2.5602   -2.9776    3.2848 H   0  0  0  0  0  0  0  0  0  0  0  0
    0.7828   -3.3559   -0.3640 H   0  0  0  0  0  0  0  0  0  0  0  0
    2.0589   -2.1961   -0.7247 H   0  0  0  0  0  0  0  0  0  0  0  0
    0.3596   -1.6441   -0.4871 H   0  0  0  0  0  0  0  0  0  0  0  0
  1  2  1  0  0  0  0
  1 24  1  0  0  0  0
  1 25  1  0  0  0  0
  1 26  1  0  0  0  0
  2  3  1  0  0  0  0
  3  4  1  0  0  0  0
  3 21  2  0  0  0  0
  4  5  2  0  0  0  0
  4 27  1  0  0  0  0
  5  6  1  0  0  0  0
  5 19  1  0  0  0  0
  6  7  2  0  0  0  0
  7  8  1  0  0  0  0
  7 28  1  0  0  0  0
  8  9  2  0  0  0  0
  9 10  1  0  0  0  0
  9 19  1  0  0  0  0
 10 11  1  0  0  0  0
 11 12  1  0  0  0  0
 11 18  2  0  0  0  0
 12 13  2  0  0  0  0
 12 29  1  0  0  0  0
 13 14  1  0  0  0  0
 13 30  1  0  0  0  0
 14 15  1  0  0  0  0
 14 16  2  0  0  0  0
 16 17  1  0  0  0  0
 16 18  1  0  0  0  0
 18 31  1  0  0  0  0
 19 20  2  0  0  0  0
 20 21  1  0  0  0  0
 20 32  1  0  0  0  0
 21 22  1  0  0  0  0
 22 23  1  0  0  0  0
 23 33  1  0  0  0  0
 23 34  1  0  0  0  0
 23 35  1  0  0  0  0
M  END
$$$$
