CHEMBL272252
 OpenBabel04072215363D

 42 45  0  0  0  0  0  0  0  0999 V2000
    6.1271   -8.2072   -0.9094 C   0  0  0  0  0  0  0  0  0  0  0  0
    5.5189   -6.9963   -0.4758 O   0  0  0  0  0  0  0  0  0  0  0  0
    5.3559   -6.0334   -1.4330 C   0  0  0  0  0  0  0  0  0  0  0  0
    5.1457   -6.2659   -2.7873 C   0  0  0  0  0  0  0  0  0  0  0  0
    4.9625   -5.1798   -3.6581 C   0  0  0  0  0  0  0  0  0  0  0  0
    5.0004   -3.8478   -3.1849 C   0  0  0  0  0  0  0  0  0  0  0  0
    4.8395   -2.6933   -3.9962 C   0  0  0  0  0  0  0  0  0  0  0  0
    4.5691   -2.8428   -5.3486 O   0  0  0  0  0  0  0  0  0  0  0  0
    3.7013   -1.9542   -5.9659 C   0  0  0  0  0  0  0  0  0  0  0  0
    2.6011   -1.3823   -5.3396 C   0  0  0  0  0  0  0  0  0  0  0  0
    1.7589   -0.5136   -6.0425 C   0  0  0  0  0  0  0  0  0  0  0  0
    1.9396   -0.2339   -7.4196 C   0  0  0  0  0  0  0  0  0  0  0  0
    1.0604    0.5667   -8.2145 C   0  0  0  0  0  0  0  0  0  0  0  0
   -0.2275    1.1069   -7.6696 C   0  0  0  0  0  0  0  0  0  0  0  0
   -0.7114    2.2661   -8.2138 N   0  0  0  0  0  0  0  0  0  0  0  0
   -0.8615    0.5538   -6.7809 O   0  0  0  0  0  0  0  0  0  0  0  0
    1.3401    0.7868   -9.5754 C   0  0  0  0  0  0  0  0  0  0  0  0
    2.4790    0.2442  -10.1581 C   0  0  0  0  0  0  0  0  0  0  0  0
    3.3360   -0.5488   -9.3980 C   0  0  0  0  0  0  0  0  0  0  0  0
    3.0774   -0.8136   -8.0431 C   0  0  0  0  0  0  0  0  0  0  0  0
    3.9371   -1.6652   -7.3124 C   0  0  0  0  0  0  0  0  0  0  0  0
    5.0169   -1.4251   -3.4401 C   0  0  0  0  0  0  0  0  0  0  0  0
    5.2165   -1.3357   -2.0841 C   0  0  0  0  0  0  0  0  0  0  0  0
    5.3017   -2.4028   -1.2662 N   0  0  0  0  0  0  0  0  0  0  0  0
    5.2196   -3.6298   -1.8071 C   0  0  0  0  0  0  0  0  0  0  0  0
    5.3691   -4.7196   -0.9614 C   0  0  0  0  0  0  0  0  0  0  0  0
    6.3342   -8.8131   -0.0213 H   0  0  0  0  0  0  0  0  0  0  0  0
    7.0814   -8.0123   -1.4107 H   0  0  0  0  0  0  0  0  0  0  0  0
    5.4539   -8.7831   -1.5512 H   0  0  0  0  0  0  0  0  0  0  0  0
    5.1001   -7.2730   -3.1888 H   0  0  0  0  0  0  0  0  0  0  0  0
    4.8011   -5.3823   -4.7149 H   0  0  0  0  0  0  0  0  0  0  0  0
    2.3662   -1.5961   -4.2993 H   0  0  0  0  0  0  0  0  0  0  0  0
    0.9347   -0.0679   -5.4897 H   0  0  0  0  0  0  0  0  0  0  0  0
   -0.2032    2.8488   -8.8609 H   0  0  0  0  0  0  0  0  0  0  0  0
   -1.5695    2.6270   -7.8154 H   0  0  0  0  0  0  0  0  0  0  0  0
    0.6531    1.3449  -10.2067 H   0  0  0  0  0  0  0  0  0  0  0  0
    2.6847    0.4134  -11.2128 H   0  0  0  0  0  0  0  0  0  0  0  0
    4.2096   -0.9795   -9.8839 H   0  0  0  0  0  0  0  0  0  0  0  0
    4.7956   -2.1224   -7.7986 H   0  0  0  0  0  0  0  0  0  0  0  0
    4.9742   -0.5246   -4.0435 H   0  0  0  0  0  0  0  0  0  0  0  0
    5.3104   -0.3707   -1.5956 H   0  0  0  0  0  0  0  0  0  0  0  0
    5.5229   -4.5411    0.0997 H   0  0  0  0  0  0  0  0  0  0  0  0
  1  2  1  0  0  0  0
  1 27  1  0  0  0  0
  1 28  1  0  0  0  0
  1 29  1  0  0  0  0
  2  3  1  0  0  0  0
  3  4  1  0  0  0  0
  3 26  2  0  0  0  0
  4  5  2  0  0  0  0
  4 30  1  0  0  0  0
  5  6  1  0  0  0  0
  5 31  1  0  0  0  0
  6  7  1  0  0  0  0
  6 25  2  0  0  0  0
  7  8  1  0  0  0  0
  7 22  2  0  0  0  0
  8  9  1  0  0  0  0
  9 10  1  0  0  0  0
  9 21  2  0  0  0  0
 10 11  2  0  0  0  0
 10 32  1  0  0  0  0
 11 12  1  0  0  0  0
 11 33  1  0  0  0  0
 12 13  1  0  0  0  0
 12 20  2  0  0  0  0
 13 14  1  0  0  0  0
 13 17  2  0  0  0  0
 14 15  1  0  0  0  0
 14 16  2  0  0  0  0
 15 34  1  0  0  0  0
 15 35  1  0  0  0  0
 17 18  1  0  0  0  0
 17 36  1  0  0  0  0
 18 19  2  0  0  0  0
 18 37  1  0  0  0  0
 19 20  1  0  0  0  0
 19 38  1  0  0  0  0
 20 21  1  0  0  0  0
 21 39  1  0  0  0  0
 22 23  1  0  0  0  0
 22 40  1  0  0  0  0
 23 24  2  0  0  0  0
 23 41  1  0  0  0  0
 24 25  1  0  0  0  0
 25 26  1  0  0  0  0
 26 42  1  0  0  0  0
M  END
$$$$
