CHEMBL191523
 OpenBabel04072215363D

 33 35  0  0  0  0  0  0  0  0999 V2000
    2.5792    0.6805    0.0138 C   0  0  0  0  0  0  0  0  0  0  0  0
    1.1434    0.3156    0.0053 C   0  0  0  0  0  0  0  0  0  0  0  0
    0.0028    1.0867    0.0029 C   0  0  0  0  0  0  0  0  0  0  0  0
   -1.1159    0.2083   -0.0028 C   0  0  0  0  0  0  0  0  0  0  0  0
   -2.5485    0.6141   -0.0071 C   0  0  0  0  0  0  0  0  0  0  0  0
   -0.6183   -1.0906   -0.0010 C   0  0  0  0  0  0  0  0  0  0  0  0
   -1.3031   -2.3333    0.0043 C   0  0  0  0  0  0  0  0  0  0  0  0
   -0.8153   -3.5819    0.0029 C   0  0  0  0  0  0  0  0  0  0  0  0
    0.6032   -4.1130   -0.0106 C   0  0  0  0  0  0  0  0  0  0  0  0
    1.6479   -3.4874   -0.0203 O   0  0  0  0  0  0  0  0  0  0  0  0
    0.4489   -5.4787   -0.0084 N   0  0  0  0  0  0  0  0  0  0  0  0
    1.4984   -6.3974   -0.0143 O   0  0  0  0  0  0  0  0  0  0  0  0
   -0.8755   -5.8946    0.0095 C   0  0  0  0  0  0  0  0  0  0  0  0
   -1.3813   -7.1796    0.0209 C   0  0  0  0  0  0  0  0  0  0  0  0
   -2.7703   -7.3251    0.0421 C   0  0  0  0  0  0  0  0  0  0  0  0
   -3.6128   -6.1987    0.0504 C   0  0  0  0  0  0  0  0  0  0  0  0
   -3.0810   -4.9069    0.0381 C   0  0  0  0  0  0  0  0  0  0  0  0
   -1.7033   -4.7661    0.0160 C   0  0  0  0  0  0  0  0  0  0  0  0
    0.7505   -0.9990   -0.0010 N   0  0  0  0  0  0  0  0  0  0  0  0
    2.7111    1.7665    0.0120 H   0  0  0  0  0  0  0  0  0  0  0  0
    3.0822    0.2733   -0.8692 H   0  0  0  0  0  0  0  0  0  0  0  0
    3.0696    0.2781    0.9061 H   0  0  0  0  0  0  0  0  0  0  0  0
   -0.0266    2.1689    0.0064 H   0  0  0  0  0  0  0  0  0  0  0  0
   -2.6562    1.7029    0.0031 H   0  0  0  0  0  0  0  0  0  0  0  0
   -3.0623    0.2145    0.8737 H   0  0  0  0  0  0  0  0  0  0  0  0
   -3.0510    0.2321   -0.9021 H   0  0  0  0  0  0  0  0  0  0  0  0
   -2.3853   -2.2249    0.0128 H   0  0  0  0  0  0  0  0  0  0  0  0
    2.2755   -5.8038   -0.0217 H   0  0  0  0  0  0  0  0  0  0  0  0
   -0.7243   -8.0423    0.0152 H   0  0  0  0  0  0  0  0  0  0  0  0
   -3.2094   -8.3203    0.0525 H   0  0  0  0  0  0  0  0  0  0  0  0
   -4.6922   -6.3335    0.0679 H   0  0  0  0  0  0  0  0  0  0  0  0
   -3.7449   -4.0485    0.0459 H   0  0  0  0  0  0  0  0  0  0  0  0
    1.3943   -1.7837   -0.0027 H   0  0  0  0  0  0  0  0  0  0  0  0
  1  2  1  0  0  0  0
  1 20  1  0  0  0  0
  1 21  1  0  0  0  0
  1 22  1  0  0  0  0
  2  3  2  0  0  0  0
  2 19  1  0  0  0  0
  3  4  1  0  0  0  0
  3 23  1  0  0  0  0
  4  5  1  0  0  0  0
  4  6  2  0  0  0  0
  5 24  1  0  0  0  0
  5 25  1  0  0  0  0
  5 26  1  0  0  0  0
  6  7  1  0  0  0  0
  6 19  1  0  0  0  0
  7  8  2  0  0  0  0
  7 27  1  0  0  0  0
  8  9  1  0  0  0  0
  8 18  1  0  0  0  0
  9 10  2  0  0  0  0
  9 11  1  0  0  0  0
 11 12  1  0  0  0  0
 11 13  1  0  0  0  0
 12 28  1  0  0  0  0
 13 14  1  0  0  0  0
 13 18  2  0  0  0  0
 14 15  2  0  0  0  0
 14 29  1  0  0  0  0
 15 16  1  0  0  0  0
 15 30  1  0  0  0  0
 16 17  2  0  0  0  0
 16 31  1  0  0  0  0
 17 18  1  0  0  0  0
 17 32  1  0  0  0  0
 19 33  1  0  0  0  0
M  END
$$$$
