CHEMBL449663
 OpenBabel04072215383D

 42 45  0  0  0  0  0  0  0  0999 V2000
   -2.0508    1.4616    1.4640 O   0  0  0  0  0  0  0  0  0  0  0  0
   -1.3768    0.4923    1.1724 C   0  0  0  0  0  0  0  0  0  0  0  0
   -1.7110   -0.8137    1.4540 N   0  0  0  0  0  0  0  0  0  0  0  0
   -0.6693   -1.7463    1.1251 C   0  0  0  0  0  0  0  0  0  0  0  0
    0.3840   -0.8622    0.5477 C   0  0  0  0  0  0  0  0  0  0  0  0
    1.6242   -1.2242    0.0514 C   0  0  0  0  0  0  0  0  0  0  0  0
    2.4374   -0.2204   -0.4703 C   0  0  0  0  0  0  0  0  0  0  0  0
    1.9931    1.1148   -0.5126 C   0  0  0  0  0  0  0  0  0  0  0  0
    0.7293    1.4957   -0.0208 C   0  0  0  0  0  0  0  0  0  0  0  0
    0.2903    2.8863   -0.1805 C   0  0  0  0  0  0  0  0  0  0  0  0
    0.5944    3.8118   -1.1677 C   0  0  0  0  0  0  0  0  0  0  0  0
   -0.1628    4.9919   -0.9378 C   0  0  0  0  0  0  0  0  0  0  0  0
   -0.3227    6.2071   -1.6282 C   0  0  0  0  0  0  0  0  0  0  0  0
   -1.1913    7.1810   -1.1192 C   0  0  0  0  0  0  0  0  0  0  0  0
   -1.3185    8.3000   -1.8978 O   0  0  0  0  0  0  0  0  0  0  0  0
   -1.6167    9.5103   -1.2030 C   0  0  0  0  0  0  0  0  0  0  0  0
   -1.6388   10.6502   -2.2134 C   0  0  0  0  0  0  0  0  0  0  0  0
   -0.3094   10.8126   -2.9364 C   0  0  0  0  0  0  0  0  0  0  0  0
   -0.3955   11.9069   -3.8426 O   0  0  0  0  0  0  0  0  0  0  0  0
   -1.9014    6.9459    0.0581 C   0  0  0  0  0  0  0  0  0  0  0  0
   -1.7619    5.7412    0.7569 C   0  0  0  0  0  0  0  0  0  0  0  0
   -0.8896    4.7857    0.2283 C   0  0  0  0  0  0  0  0  0  0  0  0
   -0.6014    3.5141    0.6623 N   0  0  0  0  0  0  0  0  0  0  0  0
   -0.0422    0.4767    0.5343 C   0  0  0  0  0  0  0  0  0  0  0  0
   -2.5784   -1.0397    1.9215 H   0  0  0  0  0  0  0  0  0  0  0  0
   -1.0542   -2.4641    0.3962 H   0  0  0  0  0  0  0  0  0  0  0  0
   -0.3377   -2.2451    2.0391 H   0  0  0  0  0  0  0  0  0  0  0  0
    1.9598   -2.2566    0.0631 H   0  0  0  0  0  0  0  0  0  0  0  0
    3.4213   -0.4682   -0.8634 H   0  0  0  0  0  0  0  0  0  0  0  0
    2.6593    1.8624   -0.9412 H   0  0  0  0  0  0  0  0  0  0  0  0
    1.2507    3.6403   -2.0108 H   0  0  0  0  0  0  0  0  0  0  0  0
    0.2116    6.3844   -2.5562 H   0  0  0  0  0  0  0  0  0  0  0  0
   -0.8567    9.7004   -0.4351 H   0  0  0  0  0  0  0  0  0  0  0  0
   -2.6062    9.4562   -0.7369 H   0  0  0  0  0  0  0  0  0  0  0  0
   -1.9053   11.5880   -1.7123 H   0  0  0  0  0  0  0  0  0  0  0  0
   -2.4222   10.4652   -2.9592 H   0  0  0  0  0  0  0  0  0  0  0  0
   -0.0385    9.9172   -3.5049 H   0  0  0  0  0  0  0  0  0  0  0  0
    0.4956   11.0258   -2.2268 H   0  0  0  0  0  0  0  0  0  0  0  0
   -1.0568   11.6695   -4.5161 H   0  0  0  0  0  0  0  0  0  0  0  0
   -2.6094    7.6698    0.4471 H   0  0  0  0  0  0  0  0  0  0  0  0
   -2.3326    5.5477    1.6595 H   0  0  0  0  0  0  0  0  0  0  0  0
   -1.0757    3.0594    1.4350 H   0  0  0  0  0  0  0  0  0  0  0  0
  1  2  2  0  0  0  0
  2  3  1  0  0  0  0
  2 24  1  0  0  0  0
  3  4  1  0  0  0  0
  3 25  1  0  0  0  0
  4  5  1  0  0  0  0
  4 26  1  0  0  0  0
  4 27  1  0  0  0  0
  5  6  1  0  0  0  0
  5 24  2  0  0  0  0
  6  7  2  0  0  0  0
  6 28  1  0  0  0  0
  7  8  1  0  0  0  0
  7 29  1  0  0  0  0
  8  9  2  0  0  0  0
  8 30  1  0  0  0  0
  9 10  1  0  0  0  0
  9 24  1  0  0  0  0
 10 11  2  0  0  0  0
 10 23  1  0  0  0  0
 11 12  1  0  0  0  0
 11 31  1  0  0  0  0
 12 13  1  0  0  0  0
 12 22  2  0  0  0  0
 13 14  2  0  0  0  0
 13 32  1  0  0  0  0
 14 15  1  0  0  0  0
 14 20  1  0  0  0  0
 15 16  1  0  0  0  0
 16 17  1  0  0  0  0
 16 33  1  0  0  0  0
 16 34  1  0  0  0  0
 17 18  1  0  0  0  0
 17 35  1  0  0  0  0
 17 36  1  0  0  0  0
 18 19  1  0  0  0  0
 18 37  1  0  0  0  0
 18 38  1  0  0  0  0
 19 39  1  0  0  0  0
 20 21  2  0  0  0  0
 20 40  1  0  0  0  0
 21 22  1  0  0  0  0
 21 41  1  0  0  0  0
 22 23  1  0  0  0  0
 23 42  1  0  0  0  0
M  END
$$$$
