CHEMBL3906284
 OpenBabel04072215373D

 56 59  0  0  0  0  0  0  0  0999 V2000
    8.2868    1.1157    1.9877 H   0  0  0  0  0  0  0  0  0  0  0  0
    7.2754    0.7911    1.6643 C   0  0  0  0  0  0  0  0  0  0  0  0
    6.6174    0.7195    2.5546 H   0  0  0  0  0  0  0  0  0  0  0  0
    6.8834    1.5513    0.9543 H   0  0  0  0  0  0  0  0  0  0  0  0
    7.3756   -0.4326    1.0349 O   0  0  0  0  0  0  0  0  0  0  0  0
    6.3706   -1.0899    0.3867 C   0  0  0  0  0  0  0  0  0  0  0  0
    5.0519   -0.6435    0.3841 C   0  0  0  0  0  0  0  0  0  0  0  0
    4.0637   -1.3419   -0.3484 C   0  0  0  0  0  0  0  0  0  0  0  0
    2.7783   -0.9050   -0.3821 O   0  0  0  0  0  0  0  0  0  0  0  0
    2.3418    0.2996    0.1382 C   0  0  0  0  0  0  0  0  0  0  0  0
    2.4851    0.3300    1.2405 H   0  0  0  0  0  0  0  0  0  0  0  0
    2.9049    1.1358   -0.3335 H   0  0  0  0  0  0  0  0  0  0  0  0
    1.2660    0.4328   -0.0868 H   0  0  0  0  0  0  0  0  0  0  0  0
    4.4156   -2.4992   -1.0771 C   0  0  0  0  0  0  0  0  0  0  0  0
    5.7502   -2.9561   -1.1049 C   0  0  0  0  0  0  0  0  0  0  0  0
    6.1700   -4.1138   -1.8785 N   0  0  0  0  0  0  0  0  0  0  0  0
    5.3886   -4.8910   -2.8436 C   0  0  0  0  0  0  0  0  0  0  0  0
    5.5591   -6.2596   -2.6552 C   0  0  0  0  0  0  0  0  0  0  0  0
    5.1657   -7.1778   -3.5428 C   0  0  0  0  0  0  0  0  0  0  0  0
    4.5401   -6.8078   -4.6926 C   0  0  0  0  0  0  0  0  0  0  0  0
    4.3577   -7.8108   -5.5302 N   0  0  0  0  0  0  0  0  0  0  0  0
    3.7527   -7.6535   -6.6837 C   0  0  0  0  0  0  0  0  0  0  0  0
    3.1931   -6.4337   -7.0540 C   0  0  0  0  0  0  0  0  0  0  0  0
    2.2868   -6.5872   -8.3046 C   0  0  0  0  0  0  0  0  0  0  0  0
    1.9529   -7.8620   -8.8204 C   0  0  0  0  0  0  0  0  0  0  0  0
    1.1004   -7.7692   -9.8267 N   0  0  0  0  0  0  0  0  0  0  0  0
    0.8508   -6.4997  -10.0323 N   0  0  0  0  0  0  0  0  0  0  0  0
   -0.1147   -6.1112  -11.0499 C   0  0  0  0  0  0  0  0  0  0  0  0
    1.5562   -5.7251   -9.1437 C   0  0  0  0  0  0  0  0  0  0  0  0
    3.4476   -5.3198   -6.2076 N   0  0  0  0  0  0  0  0  0  0  0  0
    4.1711   -5.4877   -4.9990 C   0  0  0  0  0  0  0  0  0  0  0  0
    4.6184   -4.4631   -4.0271 C   0  0  0  0  0  0  0  0  0  0  0  0
    7.5854   -4.5654   -1.7365 C   0  0  0  0  0  0  0  0  0  0  0  0
    7.8632   -5.2570   -2.5613 H   0  0  0  0  0  0  0  0  0  0  0  0
    8.2679   -3.7090   -1.9054 H   0  0  0  0  0  0  0  0  0  0  0  0
    7.9162   -5.3166   -0.4070 C   0  0  0  0  0  0  0  0  0  0  0  0
    7.6489   -4.7301    0.4938 H   0  0  0  0  0  0  0  0  0  0  0  0
    7.3709   -6.2730   -0.3190 H   0  0  0  0  0  0  0  0  0  0  0  0
    9.4073   -5.6831   -0.3480 C   0  0  0  0  0  0  0  0  0  0  0  0
    9.6256   -6.3316    0.5318 H   0  0  0  0  0  0  0  0  0  0  0  0
    9.6944   -6.2711   -1.2488 H   0  0  0  0  0  0  0  0  0  0  0  0
   10.1971   -4.5288   -0.2871 O   0  0  0  0  0  0  0  0  0  0  0  0
    6.6988   -2.2353   -0.3247 C   0  0  0  0  0  0  0  0  0  0  0  0
    4.8011    0.2515    0.9343 H   0  0  0  0  0  0  0  0  0  0  0  0
    3.6500   -3.0245   -1.6316 H   0  0  0  0  0  0  0  0  0  0  0  0
    6.0632   -6.6598   -1.8131 H   0  0  0  0  0  0  0  0  0  0  0  0
    5.3976   -8.2222   -3.3505 H   0  0  0  0  0  0  0  0  0  0  0  0
    3.7169   -8.5556   -7.2442 H   0  0  0  0  0  0  0  0  0  0  0  0
    2.2318   -8.8459   -8.4935 H   0  0  0  0  0  0  0  0  0  0  0  0
   -0.5556   -7.0308  -11.5097 H   0  0  0  0  0  0  0  0  0  0  0  0
    0.3642   -5.5265  -11.8578 H   0  0  0  0  0  0  0  0  0  0  0  0
   -0.9468   -5.5537  -10.5778 H   0  0  0  0  0  0  0  0  0  0  0  0
    1.5017   -4.6460   -9.1099 H   0  0  0  0  0  0  0  0  0  0  0  0
    4.4432   -3.4064   -4.2117 H   0  0  0  0  0  0  0  0  0  0  0  0
   10.0208   -4.1220    0.6019 H   0  0  0  0  0  0  0  0  0  0  0  0
    7.7367   -2.5153   -0.2634 H   0  0  0  0  0  0  0  0  0  0  0  0
  1  2  1  0  0  0  0
  2  3  1  0  0  0  0
  2  4  1  0  0  0  0
  2  5  1  0  0  0  0
  5  6  1  0  0  0  0
  6  7  1  0  0  0  0
  6 43  2  0  0  0  0
  7  8  2  0  0  0  0
  7 44  1  0  0  0  0
  8  9  1  0  0  0  0
  8 14  1  0  0  0  0
  9 10  1  0  0  0  0
 10 11  1  0  0  0  0
 10 12  1  0  0  0  0
 10 13  1  0  0  0  0
 14 15  2  0  0  0  0
 14 45  1  0  0  0  0
 15 16  1  0  0  0  0
 15 43  1  0  0  0  0
 16 17  1  0  0  0  0
 16 33  1  0  0  0  0
 17 18  1  0  0  0  0
 17 32  2  0  0  0  0
 18 19  2  0  0  0  0
 18 46  1  0  0  0  0
 19 20  1  0  0  0  0
 19 47  1  0  0  0  0
 20 21  1  0  0  0  0
 20 31  2  0  0  0  0
 21 22  2  0  0  0  0
 22 23  1  0  0  0  0
 22 48  1  0  0  0  0
 23 24  1  0  0  0  0
 23 30  2  0  0  0  0
 24 25  1  0  0  0  0
 24 29  2  0  0  0  0
 25 26  2  0  0  0  0
 25 49  1  0  0  0  0
 26 27  1  0  0  0  0
 27 28  1  0  0  0  0
 27 29  1  0  0  0  0
 28 50  1  0  0  0  0
 28 51  1  0  0  0  0
 28 52  1  0  0  0  0
 29 53  1  0  0  0  0
 30 31  1  0  0  0  0
 31 32  1  0  0  0  0
 32 54  1  0  0  0  0
 33 34  1  0  0  0  0
 33 35  1  0  0  0  0
 33 36  1  0  0  0  0
 36 37  1  0  0  0  0
 36 38  1  0  0  0  0
 36 39  1  0  0  0  0
 39 40  1  0  0  0  0
 39 41  1  0  0  0  0
 39 42  1  0  0  0  0
 42 55  1  0  0  0  0
 43 56  1  0  0  0  0
M  ISO  8   1   2   3   2   4   2  11   2  12   2  13   2  34   2  35   2
M  ISO  4  37   2  38   2  40   2  41   2
M  END
$$$$
