CHEMBL3690591
 OpenBabel04072215373D

 54 57  0  0  0  0  0  0  0  0999 V2000
   -0.3451    0.1024   -2.3430 C   0  0  0  0  0  0  0  0  0  0  0  0
    0.7681    0.2065   -1.3015 C   0  0  0  0  0  0  0  0  0  0  0  0
    0.6379   -0.9084   -0.2595 C   0  0  0  0  0  0  0  0  0  0  0  0
    2.1201    0.1945   -1.9826 C   0  0  0  0  0  0  0  0  0  0  0  0
    2.9866    1.2611   -1.8360 C   0  0  0  0  0  0  0  0  0  0  0  0
    4.1978    1.1585   -2.4773 C   0  0  0  0  0  0  0  0  0  0  0  0
    4.5645    0.0887   -3.1987 N   0  0  0  0  0  0  0  0  0  0  0  0
    3.6583   -0.9016   -3.2948 C   0  0  0  0  0  0  0  0  0  0  0  0
    4.0808   -2.1372   -3.9957 C   0  0  0  0  0  0  0  0  0  0  0  0
    5.4437   -2.2988   -4.5096 C   0  0  0  0  0  0  0  0  0  0  0  0
    5.7976   -3.4312   -5.1228 C   0  0  0  0  0  0  0  0  0  0  0  0
    4.8718   -4.4686   -5.2672 N   0  0  0  0  0  0  0  0  0  0  0  0
    4.9909   -5.7260   -5.8517 C   0  0  0  0  0  0  0  0  0  0  0  0
    6.2102   -6.3251   -6.4071 C   0  0  0  0  0  0  0  0  0  0  0  0
    7.4487   -5.9837   -5.8573 C   0  0  0  0  0  0  0  0  0  0  0  0
    8.6160   -6.5588   -6.3239 C   0  0  0  0  0  0  0  0  0  0  0  0
    8.5542   -7.5329   -7.3116 C   0  0  0  0  0  0  0  0  0  0  0  0
    7.3354   -7.9716   -7.8368 C   0  0  0  0  0  0  0  0  0  0  0  0
    7.2500   -9.0656   -8.7471 N   0  0  0  0  0  0  0  0  0  0  0  0
    8.3343   -9.8054   -9.1866 C   0  0  0  0  0  0  0  0  0  0  0  0
    9.4986   -9.6296   -8.8969 O   0  0  0  0  0  0  0  0  0  0  0  0
    8.0093  -10.7999  -10.0842 N   0  0  0  0  0  0  0  0  0  0  0  0
    9.1161  -11.6230  -10.6021 C   0  0  0  0  0  0  0  0  0  0  0  0
    9.5023  -12.8574   -9.7846 C   0  0  0  0  0  0  0  0  0  0  0  0
    8.7103  -13.0129   -8.6990 F   0  0  0  0  0  0  0  0  0  0  0  0
    9.3745  -13.9793  -10.5342 F   0  0  0  0  0  0  0  0  0  0  0  0
   10.7858  -12.7999   -9.3651 F   0  0  0  0  0  0  0  0  0  0  0  0
    6.1608   -7.3257   -7.4055 C   0  0  0  0  0  0  0  0  0  0  0  0
    3.7382   -6.2910   -5.6825 C   0  0  0  0  0  0  0  0  0  0  0  0
    2.8707   -5.4507   -5.0404 N   0  0  0  0  0  0  0  0  0  0  0  0
    3.5676   -4.3640   -4.7897 C   0  0  0  0  0  0  0  0  0  0  0  0
    3.1954   -3.1554   -4.1333 C   0  0  0  0  0  0  0  0  0  0  0  0
    2.4386   -0.8821   -2.7285 N   0  0  0  0  0  0  0  0  0  0  0  0
   -1.3298    0.1452   -1.8661 H   0  0  0  0  0  0  0  0  0  0  0  0
   -0.2824   -0.8361   -2.9051 H   0  0  0  0  0  0  0  0  0  0  0  0
   -0.2849    0.9252   -3.0643 H   0  0  0  0  0  0  0  0  0  0  0  0
    0.6537    1.1601   -0.7707 H   0  0  0  0  0  0  0  0  0  0  0  0
    0.7081   -1.9031   -0.7146 H   0  0  0  0  0  0  0  0  0  0  0  0
   -0.3274   -0.8458    0.2550 H   0  0  0  0  0  0  0  0  0  0  0  0
    1.4255   -0.8313    0.4982 H   0  0  0  0  0  0  0  0  0  0  0  0
    2.7321    2.1331   -1.2522 H   0  0  0  0  0  0  0  0  0  0  0  0
    4.9318    1.9561   -2.4203 H   0  0  0  0  0  0  0  0  0  0  0  0
    6.1453   -1.4785   -4.3730 H   0  0  0  0  0  0  0  0  0  0  0  0
    6.7934   -3.5608   -5.5131 H   0  0  0  0  0  0  0  0  0  0  0  0
    7.5322   -5.2890   -5.0341 H   0  0  0  0  0  0  0  0  0  0  0  0
    9.5767   -6.2827   -5.8982 H   0  0  0  0  0  0  0  0  0  0  0  0
    9.5042   -7.9466   -7.6246 H   0  0  0  0  0  0  0  0  0  0  0  0
    6.3276   -9.3767   -9.0080 H   0  0  0  0  0  0  0  0  0  0  0  0
    7.0593  -11.1164  -10.1962 H   0  0  0  0  0  0  0  0  0  0  0  0
   10.0029  -10.9854  -10.6928 H   0  0  0  0  0  0  0  0  0  0  0  0
    8.8418  -11.9274  -11.6174 H   0  0  0  0  0  0  0  0  0  0  0  0
    5.1992   -7.6070   -7.8261 H   0  0  0  0  0  0  0  0  0  0  0  0
    3.4315   -7.2888   -5.9674 H   0  0  0  0  0  0  0  0  0  0  0  0
    2.1800   -3.0866   -3.7557 H   0  0  0  0  0  0  0  0  0  0  0  0
  1  2  1  0  0  0  0
  1 34  1  0  0  0  0
  1 35  1  0  0  0  0
  1 36  1  0  0  0  0
  2  3  1  0  0  0  0
  2  4  1  0  0  0  0
  2 37  1  0  0  0  0
  3 38  1  0  0  0  0
  3 39  1  0  0  0  0
  3 40  1  0  0  0  0
  4  5  1  0  0  0  0
  4 33  2  0  0  0  0
  5  6  2  0  0  0  0
  5 41  1  0  0  0  0
  6  7  1  0  0  0  0
  6 42  1  0  0  0  0
  7  8  2  0  0  0  0
  8  9  1  0  0  0  0
  8 33  1  0  0  0  0
  9 10  1  0  0  0  0
  9 32  2  0  0  0  0
 10 11  2  0  0  0  0
 10 43  1  0  0  0  0
 11 12  1  0  0  0  0
 11 44  1  0  0  0  0
 12 13  1  0  0  0  0
 12 31  1  0  0  0  0
 13 14  1  0  0  0  0
 13 29  2  0  0  0  0
 14 15  1  0  0  0  0
 14 28  2  0  0  0  0
 15 16  2  0  0  0  0
 15 45  1  0  0  0  0
 16 17  1  0  0  0  0
 16 46  1  0  0  0  0
 17 18  2  0  0  0  0
 17 47  1  0  0  0  0
 18 19  1  0  0  0  0
 18 28  1  0  0  0  0
 19 20  1  0  0  0  0
 19 48  1  0  0  0  0
 20 21  2  0  0  0  0
 20 22  1  0  0  0  0
 22 23  1  0  0  0  0
 22 49  1  0  0  0  0
 23 24  1  0  0  0  0
 23 50  1  0  0  0  0
 23 51  1  0  0  0  0
 24 25  1  0  0  0  0
 24 26  1  0  0  0  0
 24 27  1  0  0  0  0
 28 52  1  0  0  0  0
 29 30  1  0  0  0  0
 29 53  1  0  0  0  0
 30 31  2  0  0  0  0
 31 32  1  0  0  0  0
 32 54  1  0  0  0  0
M  END
$$$$
