CHEMBL69827
 OpenBabel04072215383D

 52 56  0  0  1  0  0  0  0  0999 V2000
    1.0911    0.2321    0.0526 N   0  0  0  0  0  0  0  0  0  0  0  0
    2.4655    0.0370    0.0028 C   0  0  0  0  0  0  0  0  0  0  0  0
    3.2070    1.1611    0.0070 N   0  0  0  0  0  0  0  0  0  0  0  0
    4.5442    1.0451   -0.0075 C   0  0  0  0  0  0  0  0  0  0  0  0
    5.2774   -0.0734   -0.0206 N   0  0  0  0  0  0  0  0  0  0  0  0
    4.5024   -1.1752   -0.0283 C   0  0  0  0  0  0  0  0  0  0  0  0
    3.1126   -1.2168   -0.0265 C   0  0  0  0  0  0  0  0  0  0  0  0
    2.7415   -2.6089   -0.0642 C   0  0  0  0  0  0  0  0  0  0  0  0
    1.4391   -3.2649   -0.1346 C   0  0  0  0  0  0  0  0  0  0  0  0
    0.3762   -2.6461   -0.7942 C   0  0  0  0  0  0  0  0  0  0  0  0
   -0.8828   -3.2385   -0.8382 C   0  0  0  0  0  0  0  0  0  0  0  0
   -1.0576   -4.5419   -0.3743 C   0  0  0  0  0  0  0  0  0  0  0  0
   -2.2214   -5.2612   -0.5362 O   0  0  0  0  0  0  0  0  0  0  0  0
   -2.9996   -5.0220   -1.6505 C   0  0  0  0  0  0  0  0  0  0  0  0
   -2.4874   -4.6682   -2.9051 C   0  0  0  0  0  0  0  0  0  0  0  0
   -3.3512   -4.3278   -3.9447 C   0  0  0  0  0  0  0  0  0  0  0  0
   -4.7283   -4.4221   -3.7595 C   0  0  0  0  0  0  0  0  0  0  0  0
   -5.2404   -4.8666   -2.5397 C   0  0  0  0  0  0  0  0  0  0  0  0
   -4.3766   -5.1643   -1.4841 C   0  0  0  0  0  0  0  0  0  0  0  0
   -0.0121   -5.1778    0.2922 C   0  0  0  0  0  0  0  0  0  0  0  0
    1.2234   -4.5339    0.4281 C   0  0  0  0  0  0  0  0  0  0  0  0
    3.9197   -3.3365   -0.0739 C   0  0  0  0  0  0  0  0  0  0  0  0
    4.9765   -2.4630   -0.0428 N   0  0  0  0  0  0  0  0  0  0  0  0
    6.3636   -2.8794   -0.0436 C   0  0  3  0  0  0  0  0  0  0  0  0
    7.1802   -2.4325    1.1758 C   0  0  0  0  0  0  0  0  0  0  0  0
    8.5830   -2.1343    0.6457 C   0  0  3  0  0  0  0  0  0  0  0  0
    9.5598   -2.8191    1.4198 O   0  0  0  0  0  0  0  0  0  0  0  0
    8.6050   -2.5934   -0.8195 C   0  0  3  0  0  0  0  0  0  0  0  0
    9.0610   -3.9487   -0.9000 O   0  0  0  0  0  0  0  0  0  0  0  0
    7.1634   -2.4481   -1.2784 C   0  0  0  0  0  0  0  0  0  0  0  0
    0.8836    1.1959    0.2866 H   0  0  0  0  0  0  0  0  0  0  0  0
    0.5987   -0.4636    0.5992 H   0  0  0  0  0  0  0  0  0  0  0  0
    5.0958    1.9807   -0.0051 H   0  0  0  0  0  0  0  0  0  0  0  0
    0.5080   -1.7011   -1.3134 H   0  0  0  0  0  0  0  0  0  0  0  0
   -1.6984   -2.6888   -1.2999 H   0  0  0  0  0  0  0  0  0  0  0  0
   -1.4157   -4.6087   -3.0761 H   0  0  0  0  0  0  0  0  0  0  0  0
   -2.9465   -3.9821   -4.8923 H   0  0  0  0  0  0  0  0  0  0  0  0
   -5.4022   -4.1560   -4.5693 H   0  0  0  0  0  0  0  0  0  0  0  0
   -6.3138   -4.9679   -2.4067 H   0  0  0  0  0  0  0  0  0  0  0  0
   -4.7780   -5.4901   -0.5285 H   0  0  0  0  0  0  0  0  0  0  0  0
   -0.1505   -6.1782    0.6921 H   0  0  0  0  0  0  0  0  0  0  0  0
    2.0186   -5.0510    0.9592 H   0  0  0  0  0  0  0  0  0  0  0  0
    4.0899   -4.4055   -0.1197 H   0  0  0  0  0  0  0  0  0  0  0  0
    6.3490   -3.9786   -0.0295 H   0  0  0  0  0  0  0  0  0  0  0  0
    7.1828   -3.2137    1.9447 H   0  0  0  0  0  0  0  0  0  0  0  0
    6.7701   -1.5347    1.6503 H   0  0  0  0  0  0  0  0  0  0  0  0
    8.7753   -1.0575    0.7104 H   0  0  0  0  0  0  0  0  0  0  0  0
    9.9016   -3.5395    0.8513 H   0  0  0  0  0  0  0  0  0  0  0  0
    9.2917   -1.9891   -1.4195 H   0  0  0  0  0  0  0  0  0  0  0  0
    8.3331   -4.5577   -0.6915 H   0  0  0  0  0  0  0  0  0  0  0  0
    6.9291   -3.0818   -2.1404 H   0  0  0  0  0  0  0  0  0  0  0  0
    6.9603   -1.4074   -1.5514 H   0  0  0  0  0  0  0  0  0  0  0  0
  1  2  1  0  0  0  0
  1 31  1  0  0  0  0
  1 32  1  0  0  0  0
  2  3  1  0  0  0  0
  2  7  2  0  0  0  0
  3  4  2  0  0  0  0
  4  5  1  0  0  0  0
  4 33  1  0  0  0  0
  5  6  2  0  0  0  0
  6  7  1  0  0  0  0
  6 23  1  0  0  0  0
  7  8  1  0  0  0  0
  8  9  1  0  0  0  0
  8 22  2  0  0  0  0
  9 10  1  0  0  0  0
  9 21  2  0  0  0  0
 10 11  2  0  0  0  0
 10 34  1  0  0  0  0
 11 12  1  0  0  0  0
 11 35  1  0  0  0  0
 12 13  1  0  0  0  0
 12 20  2  0  0  0  0
 13 14  1  0  0  0  0
 14 15  1  0  0  0  0
 14 19  2  0  0  0  0
 15 16  2  0  0  0  0
 15 36  1  0  0  0  0
 16 17  1  0  0  0  0
 16 37  1  0  0  0  0
 17 18  2  0  0  0  0
 17 38  1  0  0  0  0
 18 19  1  0  0  0  0
 18 39  1  0  0  0  0
 19 40  1  0  0  0  0
 20 21  1  0  0  0  0
 20 41  1  0  0  0  0
 21 42  1  0  0  0  0
 22 23  1  0  0  0  0
 22 43  1  0  0  0  0
 23 24  1  0  0  0  0
 24 25  1  0  0  0  0
 24 30  1  0  0  0  0
 24 44  1  0  0  0  0
 25 26  1  0  0  0  0
 25 45  1  0  0  0  0
 25 46  1  0  0  0  0
 26 27  1  0  0  0  0
 26 28  1  0  0  0  0
 26 47  1  0  0  0  0
 27 48  1  0  0  0  0
 28 29  1  0  0  0  0
 28 30  1  0  0  0  0
 28 49  1  0  0  0  0
 29 50  1  0  0  0  0
 30 51  1  0  0  0  0
 30 52  1  0  0  0  0
M  END
$$$$
