CHEMBL1242209
 OpenBabel04072215363D

 42 45  0  0  0  0  0  0  0  0999 V2000
    1.3128    4.7698    0.8642 C   0  0  0  0  0  0  0  0  0  0  0  0
    1.0029    3.3945    0.3566 C   0  0  0  0  0  0  0  0  0  0  0  0
   -0.2150    3.1071   -0.2451 C   0  0  0  0  0  0  0  0  0  0  0  0
   -0.4457    1.8098   -0.6965 C   0  0  0  0  0  0  0  0  0  0  0  0
    0.5459    0.8338   -0.5474 C   0  0  0  0  0  0  0  0  0  0  0  0
    0.3698   -0.4925   -0.9801 C   0  0  0  0  0  0  0  0  0  0  0  0
    1.3917   -1.4292   -0.8107 C   0  0  0  0  0  0  0  0  0  0  0  0
    2.6043   -1.0479   -0.2283 C   0  0  0  0  0  0  0  0  0  0  0  0
    3.6940   -2.0134   -0.0673 C   0  0  0  0  0  0  0  0  0  0  0  0
    3.8942   -2.9625   -1.0003 N   0  0  0  0  0  0  0  0  0  0  0  0
    5.0015   -3.6187   -0.5851 N   0  0  0  0  0  0  0  0  0  0  0  0
    5.5398   -4.7158   -1.3847 C   0  0  0  0  0  0  0  0  0  0  0  0
    4.5290   -5.8541   -1.5384 C   0  0  0  0  0  0  0  0  0  0  0  0
    6.0210   -4.2506   -2.7625 C   0  0  0  0  0  0  0  0  0  0  0  0
    5.4866   -3.1553    0.6088 C   0  0  0  0  0  0  0  0  0  0  0  0
    6.5604   -3.6132    1.2824 N   0  0  0  0  0  0  0  0  0  0  0  0
    6.7547   -2.9267    2.4194 C   0  0  0  0  0  0  0  0  0  0  0  0
    6.0233   -1.9102    2.9120 N   0  0  0  0  0  0  0  0  0  0  0  0
    4.9501   -1.4833    2.2076 C   0  0  0  0  0  0  0  0  0  0  0  0
    4.2428   -0.4399    2.7770 N   0  0  0  0  0  0  0  0  0  0  0  0
    4.6528   -2.1144    0.9924 C   0  0  0  0  0  0  0  0  0  0  0  0
    2.7690    0.2867    0.1637 C   0  0  0  0  0  0  0  0  0  0  0  0
    1.7570    1.2230    0.0500 C   0  0  0  0  0  0  0  0  0  0  0  0
    1.9768    2.4682    0.5022 N   0  0  0  0  0  0  0  0  0  0  0  0
    0.4756    5.4567    0.7104 H   0  0  0  0  0  0  0  0  0  0  0  0
    2.1856    5.1701    0.3389 H   0  0  0  0  0  0  0  0  0  0  0  0
    1.5310    4.7314    1.9362 H   0  0  0  0  0  0  0  0  0  0  0  0
   -0.9728    3.8734   -0.3708 H   0  0  0  0  0  0  0  0  0  0  0  0
   -1.3924    1.5684   -1.1702 H   0  0  0  0  0  0  0  0  0  0  0  0
   -0.5587   -0.8017   -1.4545 H   0  0  0  0  0  0  0  0  0  0  0  0
    1.2434   -2.4530   -1.1493 H   0  0  0  0  0  0  0  0  0  0  0  0
    6.4093   -5.1076   -0.8431 H   0  0  0  0  0  0  0  0  0  0  0  0
    3.6154   -5.5182   -2.0416 H   0  0  0  0  0  0  0  0  0  0  0  0
    4.2431   -6.2566   -0.5611 H   0  0  0  0  0  0  0  0  0  0  0  0
    4.9535   -6.6730   -2.1308 H   0  0  0  0  0  0  0  0  0  0  0  0
    5.1981   -3.8513   -3.3657 H   0  0  0  0  0  0  0  0  0  0  0  0
    6.4619   -5.0874   -3.3168 H   0  0  0  0  0  0  0  0  0  0  0  0
    6.7832   -3.4696   -2.6743 H   0  0  0  0  0  0  0  0  0  0  0  0
    7.6043   -3.2270    3.0239 H   0  0  0  0  0  0  0  0  0  0  0  0
    4.5179   -0.2454    3.7318 H   0  0  0  0  0  0  0  0  0  0  0  0
    3.2569   -0.3704    2.5680 H   0  0  0  0  0  0  0  0  0  0  0  0
    3.7199    0.6314    0.5644 H   0  0  0  0  0  0  0  0  0  0  0  0
  1  2  1  0  0  0  0
  1 25  1  0  0  0  0
  1 26  1  0  0  0  0
  1 27  1  0  0  0  0
  2  3  1  0  0  0  0
  2 24  2  0  0  0  0
  3  4  2  0  0  0  0
  3 28  1  0  0  0  0
  4  5  1  0  0  0  0
  4 29  1  0  0  0  0
  5  6  1  0  0  0  0
  5 23  2  0  0  0  0
  6  7  2  0  0  0  0
  6 30  1  0  0  0  0
  7  8  1  0  0  0  0
  7 31  1  0  0  0  0
  8  9  1  0  0  0  0
  8 22  2  0  0  0  0
  9 10  2  0  0  0  0
  9 21  1  0  0  0  0
 10 11  1  0  0  0  0
 11 12  1  0  0  0  0
 11 15  1  0  0  0  0
 12 13  1  0  0  0  0
 12 14  1  0  0  0  0
 12 32  1  0  0  0  0
 13 33  1  0  0  0  0
 13 34  1  0  0  0  0
 13 35  1  0  0  0  0
 14 36  1  0  0  0  0
 14 37  1  0  0  0  0
 14 38  1  0  0  0  0
 15 16  1  0  0  0  0
 15 21  2  0  0  0  0
 16 17  2  0  0  0  0
 17 18  1  0  0  0  0
 17 39  1  0  0  0  0
 18 19  2  0  0  0  0
 19 20  1  0  0  0  0
 19 21  1  0  0  0  0
 20 40  1  0  0  0  0
 20 41  1  0  0  0  0
 22 23  1  0  0  0  0
 22 42  1  0  0  0  0
 23 24  1  0  0  0  0
M  END
$$$$
