CHEMBL3917694
 OpenBabel04072215373D

 64 68  0  0  0  0  0  0  0  0999 V2000
    1.2314   -2.5924   -0.6977 N   0  0  0  0  0  0  0  0  0  0  0  0
    2.0404   -2.3588    0.3822 C   0  0  0  0  0  0  0  0  0  0  0  0
    1.6225   -1.8892    1.4258 O   0  0  0  0  0  0  0  0  0  0  0  0
    3.4825   -2.7413    0.1909 C   0  0  0  0  0  0  0  0  0  0  0  0
    4.4585   -1.6045   -0.1585 C   0  0  0  0  0  0  0  0  0  0  0  0
    4.8663   -0.7419    0.8861 C   0  0  0  0  0  0  0  0  0  0  0  0
    5.8995    0.1824    0.7301 C   0  0  0  0  0  0  0  0  0  0  0  0
    6.5582    0.2726   -0.4857 C   0  0  0  0  0  0  0  0  0  0  0  0
    6.1137   -0.4854   -1.5648 C   0  0  0  0  0  0  0  0  0  0  0  0
    5.0401   -1.3922   -1.4350 C   0  0  0  0  0  0  0  0  0  0  0  0
    4.5266   -2.0236   -2.7212 C   0  0  0  0  0  0  0  0  0  0  0  0
    3.5368   -1.0778   -3.4237 C   0  0  0  0  0  0  0  0  0  0  0  0
    2.9660   -1.5716   -4.7358 C   0  0  0  0  0  0  0  0  0  0  0  0
    2.8813   -2.9203   -4.8916 N   0  0  0  0  0  0  0  0  0  0  0  0
    2.2074   -3.3809   -5.9564 C   0  0  0  0  0  0  0  0  0  0  0  0
    2.1834   -4.7683   -6.1622 N   0  0  0  0  0  0  0  0  0  0  0  0
    1.9999   -5.3307   -7.4384 C   0  0  0  0  0  0  0  0  0  0  0  0
    2.5261   -4.7105   -8.5711 C   0  0  0  0  0  0  0  0  0  0  0  0
    2.1569   -5.1248   -9.8397 C   0  0  0  0  0  0  0  0  0  0  0  0
    1.3164   -6.2228  -10.0240 C   0  0  0  0  0  0  0  0  0  0  0  0
    0.7879   -6.6088  -11.3964 C   0  0  0  0  0  0  0  0  0  0  0  0
    1.8893   -6.9207  -12.4178 C   0  0  0  0  0  0  0  0  0  0  0  0
    2.4996   -5.6830  -13.0758 C   0  0  0  0  0  0  0  0  0  0  0  0
    1.5026   -4.7497  -13.5976 N   0  0  0  0  0  0  0  0  0  0  0  0
    0.4887   -4.3703  -12.6139 C   0  0  0  0  0  0  0  0  0  0  0  0
   -0.1967   -5.5746  -11.9686 C   0  0  0  0  0  0  0  0  0  0  0  0
    0.9199   -6.9431   -8.8851 C   0  0  0  0  0  0  0  0  0  0  0  0
    1.2704   -6.5069   -7.6005 C   0  0  0  0  0  0  0  0  0  0  0  0
    1.5934   -2.5771   -6.8446 N   0  0  0  0  0  0  0  0  0  0  0  0
    1.7316   -1.2532   -6.7007 C   0  0  0  0  0  0  0  0  0  0  0  0
    2.4115   -0.6845   -5.6536 C   0  0  0  0  0  0  0  0  0  0  0  0
    2.4977    1.0255   -5.5383 Cl  0  0  0  0  0  0  0  0  0  0  0  0
    3.8217   -4.1653   -0.2493 C   0  0  0  0  0  0  0  0  0  0  0  0
    4.0153   -3.7993    1.1764 C   0  0  0  0  0  0  0  0  0  0  0  0
    0.2491   -2.3825   -0.6044 H   0  0  0  0  0  0  0  0  0  0  0  0
    1.5789   -2.9972   -1.5529 H   0  0  0  0  0  0  0  0  0  0  0  0
    4.3748   -0.8129    1.8576 H   0  0  0  0  0  0  0  0  0  0  0  0
    6.2025    0.8075    1.5659 H   0  0  0  0  0  0  0  0  0  0  0  0
    7.4018    0.9470   -0.6031 H   0  0  0  0  0  0  0  0  0  0  0  0
    6.6111   -0.3643   -2.5254 H   0  0  0  0  0  0  0  0  0  0  0  0
    4.0672   -2.9963   -2.5368 H   0  0  0  0  0  0  0  0  0  0  0  0
    5.3799   -2.2251   -3.3834 H   0  0  0  0  0  0  0  0  0  0  0  0
    4.0362   -0.1164   -3.5862 H   0  0  0  0  0  0  0  0  0  0  0  0
    2.6804   -0.8942   -2.7641 H   0  0  0  0  0  0  0  0  0  0  0  0
    2.9474   -5.1775   -5.6399 H   0  0  0  0  0  0  0  0  0  0  0  0
    3.1523   -3.8258   -8.4863 H   0  0  0  0  0  0  0  0  0  0  0  0
    2.5018   -4.5085  -10.6580 H   0  0  0  0  0  0  0  0  0  0  0  0
    0.2185   -7.5388  -11.2583 H   0  0  0  0  0  0  0  0  0  0  0  0
    1.4460   -7.5351  -13.2132 H   0  0  0  0  0  0  0  0  0  0  0  0
    2.6785   -7.5283  -11.9597 H   0  0  0  0  0  0  0  0  0  0  0  0
    3.1333   -6.0090  -13.9086 H   0  0  0  0  0  0  0  0  0  0  0  0
    3.1901   -5.1682  -12.4021 H   0  0  0  0  0  0  0  0  0  0  0  0
    1.0332   -5.1875  -14.3951 H   0  0  0  0  0  0  0  0  0  0  0  0
   -0.2718   -3.7672  -13.1238 H   0  0  0  0  0  0  0  0  0  0  0  0
    0.9155   -3.7024  -11.8585 H   0  0  0  0  0  0  0  0  0  0  0  0
   -0.8030   -6.0697  -12.7397 H   0  0  0  0  0  0  0  0  0  0  0  0
   -0.8995   -5.2334  -11.1973 H   0  0  0  0  0  0  0  0  0  0  0  0
    0.2856   -7.8215   -8.9820 H   0  0  0  0  0  0  0  0  0  0  0  0
    0.8904   -7.0387   -6.7327 H   0  0  0  0  0  0  0  0  0  0  0  0
    1.2532   -0.6579   -7.4707 H   0  0  0  0  0  0  0  0  0  0  0  0
    4.7206   -4.3389   -0.8316 H   0  0  0  0  0  0  0  0  0  0  0  0
    3.0106   -4.8472   -0.4869 H   0  0  0  0  0  0  0  0  0  0  0  0
    5.0424   -3.7323    1.5325 H   0  0  0  0  0  0  0  0  0  0  0  0
    3.3385   -4.2274    1.9082 H   0  0  0  0  0  0  0  0  0  0  0  0
  1  2  1  0  0  0  0
  1 35  1  0  0  0  0
  1 36  1  0  0  0  0
  2  3  2  0  0  0  0
  2  4  1  0  0  0  0
  4  5  1  0  0  0  0
  4 33  1  0  0  0  0
  4 34  1  0  0  0  0
  5  6  1  0  0  0  0
  5 10  2  0  0  0  0
  6  7  2  0  0  0  0
  6 37  1  0  0  0  0
  7  8  1  0  0  0  0
  7 38  1  0  0  0  0
  8  9  2  0  0  0  0
  8 39  1  0  0  0  0
  9 10  1  0  0  0  0
  9 40  1  0  0  0  0
 10 11  1  0  0  0  0
 11 12  1  0  0  0  0
 11 41  1  0  0  0  0
 11 42  1  0  0  0  0
 12 13  1  0  0  0  0
 12 43  1  0  0  0  0
 12 44  1  0  0  0  0
 13 14  1  0  0  0  0
 13 31  2  0  0  0  0
 14 15  2  0  0  0  0
 15 16  1  0  0  0  0
 15 29  1  0  0  0  0
 16 17  1  0  0  0  0
 16 45  1  0  0  0  0
 17 18  1  0  0  0  0
 17 28  2  0  0  0  0
 18 19  2  0  0  0  0
 18 46  1  0  0  0  0
 19 20  1  0  0  0  0
 19 47  1  0  0  0  0
 20 21  1  0  0  0  0
 20 27  2  0  0  0  0
 21 22  1  0  0  0  0
 21 26  1  0  0  0  0
 21 48  1  0  0  0  0
 22 23  1  0  0  0  0
 22 49  1  0  0  0  0
 22 50  1  0  0  0  0
 23 24  1  0  0  0  0
 23 51  1  0  0  0  0
 23 52  1  0  0  0  0
 24 25  1  0  0  0  0
 24 53  1  0  0  0  0
 25 26  1  0  0  0  0
 25 54  1  0  0  0  0
 25 55  1  0  0  0  0
 26 56  1  0  0  0  0
 26 57  1  0  0  0  0
 27 28  1  0  0  0  0
 27 58  1  0  0  0  0
 28 59  1  0  0  0  0
 29 30  2  0  0  0  0
 30 31  1  0  0  0  0
 30 60  1  0  0  0  0
 31 32  1  0  0  0  0
 33 34  1  0  0  0  0
 33 61  1  0  0  0  0
 33 62  1  0  0  0  0
 34 63  1  0  0  0  0
 34 64  1  0  0  0  0
M  END
$$$$
