CHEMBL516836
 OpenBabel04072215383D

 39 41  0  0  0  0  0  0  0  0999 V2000
    1.1905    0.0313    0.4695 O   0  0  0  0  0  0  0  0  0  0  0  0
    2.2821   -0.1784   -0.0515 C   0  0  0  0  0  0  0  0  0  0  0  0
    2.8380   -1.4377   -0.2172 N   0  0  0  0  0  0  0  0  0  0  0  0
    2.2153   -2.6590    0.1386 C   0  0  0  0  0  0  0  0  0  0  0  0
    0.8544   -2.7556    0.4483 C   0  0  0  0  0  0  0  0  0  0  0  0
    0.2840   -3.9605    0.8494 C   0  0  0  0  0  0  0  0  0  0  0  0
    1.0699   -5.1038    0.9309 C   0  0  0  0  0  0  0  0  0  0  0  0
    2.4273   -5.0517    0.5889 C   0  0  0  0  0  0  0  0  0  0  0  0
    3.2794   -6.2934    0.6625 C   0  0  0  0  0  0  0  0  0  0  0  0
    2.5938   -7.4017    1.0633 F   0  0  0  0  0  0  0  0  0  0  0  0
    3.8342   -6.6146   -0.5386 F   0  0  0  0  0  0  0  0  0  0  0  0
    4.3179   -6.1644    1.5332 F   0  0  0  0  0  0  0  0  0  0  0  0
    2.9920   -3.8219    0.1846 C   0  0  0  0  0  0  0  0  0  0  0  0
    3.1062    0.9176   -0.5476 C   0  0  0  0  0  0  0  0  0  0  0  0
    4.2557    0.7032   -1.2783 N   0  0  0  0  0  0  0  0  0  0  0  0
    4.7257    1.8774   -1.6725 N   0  0  0  0  0  0  0  0  0  0  0  0
    3.8891    2.8185   -1.2106 N   0  0  0  0  0  0  0  0  0  0  0  0
    2.8801    2.2871   -0.4502 C   0  0  0  0  0  0  0  0  0  0  0  0
    2.0081    3.1253    0.1807 N   0  0  0  0  0  0  0  0  0  0  0  0
    1.2389    2.6686    1.3382 C   0  0  0  0  0  0  0  0  0  0  0  0
    0.8576    3.8426    2.2054 C   0  0  0  0  0  0  0  0  0  0  0  0
   -0.4706    4.0372    2.5979 C   0  0  0  0  0  0  0  0  0  0  0  0
   -0.7619    5.0916    3.4499 C   0  0  0  0  0  0  0  0  0  0  0  0
    0.1634    5.9497    3.9295 N   0  0  0  0  0  0  0  0  0  0  0  0
    1.4406    5.7398    3.5458 C   0  0  0  0  0  0  0  0  0  0  0  0
    1.8328    4.7150    2.7007 C   0  0  0  0  0  0  0  0  0  0  0  0
    3.7968   -1.4628   -0.5545 H   0  0  0  0  0  0  0  0  0  0  0  0
    0.1844   -1.8996    0.3842 H   0  0  0  0  0  0  0  0  0  0  0  0
   -0.7712   -4.0008    1.1007 H   0  0  0  0  0  0  0  0  0  0  0  0
    0.6132   -6.0379    1.2564 H   0  0  0  0  0  0  0  0  0  0  0  0
    4.0521   -3.7849   -0.0636 H   0  0  0  0  0  0  0  0  0  0  0  0
    4.0862    3.7934   -1.3959 H   0  0  0  0  0  0  0  0  0  0  0  0
    1.4613    3.7679   -0.3942 H   0  0  0  0  0  0  0  0  0  0  0  0
    1.8271    1.9835    1.9616 H   0  0  0  0  0  0  0  0  0  0  0  0
    0.3317    2.1590    0.9986 H   0  0  0  0  0  0  0  0  0  0  0  0
   -1.2637    3.3776    2.2644 H   0  0  0  0  0  0  0  0  0  0  0  0
   -1.7789    5.2734    3.7860 H   0  0  0  0  0  0  0  0  0  0  0  0
    2.1674    6.4352    3.9551 H   0  0  0  0  0  0  0  0  0  0  0  0
    2.8787    4.5892    2.4409 H   0  0  0  0  0  0  0  0  0  0  0  0
  1  2  2  0  0  0  0
  2  3  1  0  0  0  0
  2 14  1  0  0  0  0
  3  4  1  0  0  0  0
  3 27  1  0  0  0  0
  4  5  1  0  0  0  0
  4 13  2  0  0  0  0
  5  6  2  0  0  0  0
  5 28  1  0  0  0  0
  6  7  1  0  0  0  0
  6 29  1  0  0  0  0
  7  8  2  0  0  0  0
  7 30  1  0  0  0  0
  8  9  1  0  0  0  0
  8 13  1  0  0  0  0
  9 10  1  0  0  0  0
  9 11  1  0  0  0  0
  9 12  1  0  0  0  0
 13 31  1  0  0  0  0
 14 15  1  0  0  0  0
 14 18  2  0  0  0  0
 15 16  2  0  0  0  0
 16 17  1  0  0  0  0
 17 18  1  0  0  0  0
 17 32  1  0  0  0  0
 18 19  1  0  0  0  0
 19 20  1  0  0  0  0
 19 33  1  0  0  0  0
 20 21  1  0  0  0  0
 20 34  1  0  0  0  0
 20 35  1  0  0  0  0
 21 22  1  0  0  0  0
 21 26  2  0  0  0  0
 22 23  2  0  0  0  0
 22 36  1  0  0  0  0
 23 24  1  0  0  0  0
 23 37  1  0  0  0  0
 24 25  2  0  0  0  0
 25 26  1  0  0  0  0
 25 38  1  0  0  0  0
 26 39  1  0  0  0  0
M  END
$$$$
