CHEMBL470076
 OpenBabel04072215383D

 45 48  0  0  0  0  0  0  0  0999 V2000
    2.0621   -0.2076    2.4020 C   0  0  0  0  0  0  0  0  0  0  0  0
    0.6479   -0.1206    1.9128 C   0  0  0  0  0  0  0  0  0  0  0  0
    0.0179    1.1169    1.8707 C   0  0  0  0  0  0  0  0  0  0  0  0
   -1.2926    1.2290    1.4092 C   0  0  0  0  0  0  0  0  0  0  0  0
   -2.0254    0.1190    0.9721 C   0  0  0  0  0  0  0  0  0  0  0  0
   -3.3653    0.2252    0.4902 N   0  0  0  0  0  0  0  0  0  0  0  0
   -4.0697    1.4222    0.3870 C   0  0  0  0  0  0  0  0  0  0  0  0
   -3.6439    2.5174    0.7035 O   0  0  0  0  0  0  0  0  0  0  0  0
   -5.3667    1.2656   -0.1138 N   0  0  0  0  0  0  0  0  0  0  0  0
   -6.1847    2.4283   -0.2290 C   0  0  0  0  0  0  0  0  0  0  0  0
   -5.7864    3.4992   -1.0405 C   0  0  0  0  0  0  0  0  0  0  0  0
   -6.5287    4.6856   -1.0883 C   0  0  0  0  0  0  0  0  0  0  0  0
   -7.6839    4.8238   -0.3154 C   0  0  0  0  0  0  0  0  0  0  0  0
   -8.4121    6.1046   -0.2854 C   0  0  0  0  0  0  0  0  0  0  0  0
   -8.0839    7.1365    0.7552 C   0  0  0  0  0  0  0  0  0  0  0  0
   -8.6507    8.2933    0.9164 N   0  0  0  0  0  0  0  0  0  0  0  0
   -9.6509    8.5935    0.0350 C   0  0  0  0  0  0  0  0  0  0  0  0
  -10.4565    9.6924   -0.1225 C   0  0  0  0  0  0  0  0  0  0  0  0
  -10.4560   11.2844    0.8574 Br  0  0  0  0  0  0  0  0  0  0  0  0
  -11.3194    9.4029   -1.1811 C   0  0  0  0  0  0  0  0  0  0  0  0
  -11.0971    8.1928   -1.6994 N   0  0  0  0  0  0  0  0  0  0  0  0
  -10.0377    7.7041   -0.9768 N   0  0  0  0  0  0  0  0  0  0  0  0
   -9.3948    6.4447   -1.1480 C   0  0  0  0  0  0  0  0  0  0  0  0
   -9.8527    5.6408   -2.1948 N   0  0  0  0  0  0  0  0  0  0  0  0
   -8.1096    3.7355    0.4608 C   0  0  0  0  0  0  0  0  0  0  0  0
   -7.3710    2.5375    0.4964 C   0  0  0  0  0  0  0  0  0  0  0  0
   -1.3926   -1.1298    1.0180 C   0  0  0  0  0  0  0  0  0  0  0  0
   -0.0666   -1.2468    1.4850 C   0  0  0  0  0  0  0  0  0  0  0  0
    2.4378    0.7800    2.6982 H   0  0  0  0  0  0  0  0  0  0  0  0
    2.7178   -0.5822    1.6108 H   0  0  0  0  0  0  0  0  0  0  0  0
    2.1269   -0.8580    3.2787 H   0  0  0  0  0  0  0  0  0  0  0  0
    0.5313    2.0209    2.1897 H   0  0  0  0  0  0  0  0  0  0  0  0
   -1.6937    2.2338    1.4041 H   0  0  0  0  0  0  0  0  0  0  0  0
   -3.7956   -0.6147    0.1456 H   0  0  0  0  0  0  0  0  0  0  0  0
   -5.8294    0.4067    0.1503 H   0  0  0  0  0  0  0  0  0  0  0  0
   -4.8768    3.4316   -1.6362 H   0  0  0  0  0  0  0  0  0  0  0  0
   -6.1675    5.5075   -1.7046 H   0  0  0  0  0  0  0  0  0  0  0  0
   -7.2711    6.8623    1.4515 H   0  0  0  0  0  0  0  0  0  0  0  0
  -12.1071   10.0165   -1.6006 H   0  0  0  0  0  0  0  0  0  0  0  0
  -10.7956    5.9052   -2.4883 H   0  0  0  0  0  0  0  0  0  0  0  0
   -9.7352    4.6446   -2.0352 H   0  0  0  0  0  0  0  0  0  0  0  0
   -9.0024    3.8207    1.0777 H   0  0  0  0  0  0  0  0  0  0  0  0
   -7.6924    1.7413    1.1637 H   0  0  0  0  0  0  0  0  0  0  0  0
   -1.9065   -2.0302    0.6939 H   0  0  0  0  0  0  0  0  0  0  0  0
    0.4075   -2.2262    1.5103 H   0  0  0  0  0  0  0  0  0  0  0  0
  1  2  1  0  0  0  0
  1 29  1  0  0  0  0
  1 30  1  0  0  0  0
  1 31  1  0  0  0  0
  2  3  1  0  0  0  0
  2 28  2  0  0  0  0
  3  4  2  0  0  0  0
  3 32  1  0  0  0  0
  4  5  1  0  0  0  0
  4 33  1  0  0  0  0
  5  6  1  0  0  0  0
  5 27  2  0  0  0  0
  6  7  1  0  0  0  0
  6 34  1  0  0  0  0
  7  8  2  0  0  0  0
  7  9  1  0  0  0  0
  9 10  1  0  0  0  0
  9 35  1  0  0  0  0
 10 11  1  0  0  0  0
 10 26  2  0  0  0  0
 11 12  2  0  0  0  0
 11 36  1  0  0  0  0
 12 13  1  0  0  0  0
 12 37  1  0  0  0  0
 13 14  1  0  0  0  0
 13 25  2  0  0  0  0
 14 15  1  0  0  0  0
 14 23  2  0  0  0  0
 15 16  2  0  0  0  0
 15 38  1  0  0  0  0
 16 17  1  0  0  0  0
 17 18  2  0  0  0  0
 17 22  1  0  0  0  0
 18 19  1  0  0  0  0
 18 20  1  0  0  0  0
 20 21  2  0  0  0  0
 20 39  1  0  0  0  0
 21 22  1  0  0  0  0
 22 23  1  0  0  0  0
 23 24  1  0  0  0  0
 24 40  1  0  0  0  0
 24 41  1  0  0  0  0
 25 26  1  0  0  0  0
 25 42  1  0  0  0  0
 26 43  1  0  0  0  0
 27 28  1  0  0  0  0
 27 44  1  0  0  0  0
 28 45  1  0  0  0  0
M  END
$$$$
