CHEMBL3910555
 OpenBabel04072215373D

 60 63  0  0  1  0  0  0  0  0999 V2000
    1.7265   -3.1275   -0.6139 C   0  0  0  0  0  0  0  0  0  0  0  0
    2.8447   -2.2208   -0.5146 N   0  0  0  0  0  0  0  0  0  0  0  0
    3.8051   -2.1985   -1.5019 C   0  0  0  0  0  0  0  0  0  0  0  0
    3.7142   -2.8680   -2.5282 O   0  0  0  0  0  0  0  0  0  0  0  0
    4.9971   -1.3293   -1.3000 C   0  0  0  0  0  0  0  0  0  0  0  0
    5.4243   -0.9441   -0.0276 C   0  0  0  0  0  0  0  0  0  0  0  0
    6.5890   -0.1894    0.1027 C   0  0  0  0  0  0  0  0  0  0  0  0
    7.0871    0.2700    1.2969 O   0  0  0  0  0  0  0  0  0  0  0  0
    6.4296   -0.1568    2.4906 C   0  0  0  0  0  0  0  0  0  0  0  0
    7.3363    0.1480   -1.0494 C   0  0  0  0  0  0  0  0  0  0  0  0
    6.9417   -0.2461   -2.3451 C   0  0  0  0  0  0  0  0  0  0  0  0
    7.6738    0.1680   -3.4837 N   0  0  0  0  0  0  0  0  0  0  0  0
    6.8732    0.5007   -4.7330 C   0  0  0  0  0  0  0  0  0  0  0  0
    5.8175    1.6395   -4.6061 C   0  0  3  0  0  0  0  0  0  0  0  0
    6.4023    2.9119   -4.2756 O   0  0  0  0  0  0  0  0  0  0  0  0
    5.0730    1.8234   -5.9475 C   0  0  0  0  0  0  0  0  0  0  0  0
    5.9866    2.1521   -6.9973 O   0  0  0  0  0  0  0  0  0  0  0  0
    9.0107   -0.2246   -3.8919 C   0  0  0  0  0  0  0  0  0  0  0  0
    9.7479    0.7974   -4.4901 C   0  0  0  0  0  0  0  0  0  0  0  0
   10.7498    0.4954   -5.3893 C   0  0  0  0  0  0  0  0  0  0  0  0
   11.1553   -0.7941   -5.6125 C   0  0  0  0  0  0  0  0  0  0  0  0
   11.9887   -0.9280   -6.6516 N   0  0  0  0  0  0  0  0  0  0  0  0
   12.5472   -2.1248   -6.8246 C   0  0  0  0  0  0  0  0  0  0  0  0
   12.3550   -3.1664   -5.9351 C   0  0  0  0  0  0  0  0  0  0  0  0
   13.3226   -4.2517   -6.0295 C   0  0  0  0  0  0  0  0  0  0  0  0
   14.5482   -4.4413   -5.3153 C   0  0  0  0  0  0  0  0  0  0  0  0
   15.3396   -5.3816   -5.8510 N   0  0  0  0  0  0  0  0  0  0  0  0
   14.6470   -5.7987   -6.9235 N   0  0  0  0  0  0  0  0  0  0  0  0
   15.0581   -6.9814   -7.6459 C   0  0  0  0  0  0  0  0  0  0  0  0
   13.5262   -5.0456   -7.1584 C   0  0  0  0  0  0  0  0  0  0  0  0
   11.4047   -3.0731   -4.9339 N   0  0  0  0  0  0  0  0  0  0  0  0
   10.7148   -1.8663   -4.7924 C   0  0  0  0  0  0  0  0  0  0  0  0
    9.5635   -1.5344   -3.9594 C   0  0  0  0  0  0  0  0  0  0  0  0
    5.7453   -0.9695   -2.4371 C   0  0  0  0  0  0  0  0  0  0  0  0
    1.0561   -2.9647    0.2327 H   0  0  0  0  0  0  0  0  0  0  0  0
    2.1017   -4.1554   -0.5978 H   0  0  0  0  0  0  0  0  0  0  0  0
    1.1947   -2.9544   -1.5526 H   0  0  0  0  0  0  0  0  0  0  0  0
    2.8600   -1.5546    0.2470 H   0  0  0  0  0  0  0  0  0  0  0  0
    4.8662   -1.2620    0.8444 H   0  0  0  0  0  0  0  0  0  0  0  0
    6.9780    0.2442    3.3487 H   0  0  0  0  0  0  0  0  0  0  0  0
    6.4356   -1.2492    2.5788 H   0  0  0  0  0  0  0  0  0  0  0  0
    5.4059    0.2324    2.5446 H   0  0  0  0  0  0  0  0  0  0  0  0
    8.2214    0.7704   -0.9274 H   0  0  0  0  0  0  0  0  0  0  0  0
    6.4065   -0.4116   -5.1213 H   0  0  0  0  0  0  0  0  0  0  0  0
    7.5537    0.8361   -5.5251 H   0  0  0  0  0  0  0  0  0  0  0  0
    5.0776    1.4183   -3.8324 H   0  0  0  0  0  0  0  0  0  0  0  0
    7.2823    2.9532   -4.6840 H   0  0  0  0  0  0  0  0  0  0  0  0
    4.3415    2.6379   -5.8904 H   0  0  0  0  0  0  0  0  0  0  0  0
    4.5461    0.9085   -6.2350 H   0  0  0  0  0  0  0  0  0  0  0  0
    6.2584    3.0760   -6.8488 H   0  0  0  0  0  0  0  0  0  0  0  0
    9.4412    1.8328   -4.3712 H   0  0  0  0  0  0  0  0  0  0  0  0
   11.1931    1.2967   -5.9681 H   0  0  0  0  0  0  0  0  0  0  0  0
   13.2087   -2.2103   -7.6800 H   0  0  0  0  0  0  0  0  0  0  0  0
   14.9161   -3.9003   -4.4528 H   0  0  0  0  0  0  0  0  0  0  0  0
   15.9580   -7.4053   -7.1906 H   0  0  0  0  0  0  0  0  0  0  0  0
   15.2502   -6.7257   -8.6908 H   0  0  0  0  0  0  0  0  0  0  0  0
   14.2411   -7.7047   -7.5753 H   0  0  0  0  0  0  0  0  0  0  0  0
   12.9727   -5.1507   -8.0807 H   0  0  0  0  0  0  0  0  0  0  0  0
    9.0753   -2.3544   -3.4246 H   0  0  0  0  0  0  0  0  0  0  0  0
    5.3737   -1.2898   -3.4062 H   0  0  0  0  0  0  0  0  0  0  0  0
  1  2  1  0  0  0  0
  1 35  1  0  0  0  0
  1 36  1  0  0  0  0
  1 37  1  0  0  0  0
  2  3  1  0  0  0  0
  2 38  1  0  0  0  0
  3  4  2  0  0  0  0
  3  5  1  0  0  0  0
  5  6  1  0  0  0  0
  5 34  2  0  0  0  0
  6  7  2  0  0  0  0
  6 39  1  0  0  0  0
  7  8  1  0  0  0  0
  7 10  1  0  0  0  0
  8  9  1  0  0  0  0
  9 40  1  0  0  0  0
  9 41  1  0  0  0  0
  9 42  1  0  0  0  0
 10 11  2  0  0  0  0
 10 43  1  0  0  0  0
 11 12  1  0  0  0  0
 11 34  1  0  0  0  0
 12 13  1  0  0  0  0
 12 18  1  0  0  0  0
 13 14  1  0  0  0  0
 13 44  1  0  0  0  0
 13 45  1  0  0  0  0
 14 15  1  0  0  0  0
 14 16  1  0  0  0  0
 14 46  1  0  0  0  0
 15 47  1  0  0  0  0
 16 17  1  0  0  0  0
 16 48  1  0  0  0  0
 16 49  1  0  0  0  0
 17 50  1  0  0  0  0
 18 19  1  0  0  0  0
 18 33  2  0  0  0  0
 19 20  2  0  0  0  0
 19 51  1  0  0  0  0
 20 21  1  0  0  0  0
 20 52  1  0  0  0  0
 21 22  1  0  0  0  0
 21 32  2  0  0  0  0
 22 23  2  0  0  0  0
 23 24  1  0  0  0  0
 23 53  1  0  0  0  0
 24 25  1  0  0  0  0
 24 31  2  0  0  0  0
 25 26  1  0  0  0  0
 25 30  2  0  0  0  0
 26 27  2  0  0  0  0
 26 54  1  0  0  0  0
 27 28  1  0  0  0  0
 28 29  1  0  0  0  0
 28 30  1  0  0  0  0
 29 55  1  0  0  0  0
 29 56  1  0  0  0  0
 29 57  1  0  0  0  0
 30 58  1  0  0  0  0
 31 32  1  0  0  0  0
 32 33  1  0  0  0  0
 33 59  1  0  0  0  0
 34 60  1  0  0  0  0
M  END
$$$$
