CHEMBL3951253
 OpenBabel04072215373D

 61 64  0  0  0  0  0  0  0  0999 V2000
    0.3195    3.1242   -1.8883 C   0  0  0  0  0  0  0  0  0  0  0  0
    1.5835    3.2003   -2.5550 O   0  0  0  0  0  0  0  0  0  0  0  0
    2.6483    2.5755   -1.9481 C   0  0  0  0  0  0  0  0  0  0  0  0
    2.5622    1.9018   -0.7302 C   0  0  0  0  0  0  0  0  0  0  0  0
    3.6812    1.2592   -0.2096 C   0  0  0  0  0  0  0  0  0  0  0  0
    3.7091    0.5444    0.9600 O   0  0  0  0  0  0  0  0  0  0  0  0
    2.5178    0.5459    1.7413 C   0  0  0  0  0  0  0  0  0  0  0  0
    4.8918    1.2861   -0.9171 C   0  0  0  0  0  0  0  0  0  0  0  0
    5.0251    1.9380   -2.1552 C   0  0  0  0  0  0  0  0  0  0  0  0
    6.1709    1.7824   -2.9831 N   0  0  0  0  0  0  0  0  0  0  0  0
    6.8635    0.4294   -2.9037 C   0  0  0  0  0  0  0  0  0  0  0  0
    6.0448   -0.8855   -3.1006 C   0  0  0  0  0  0  0  0  0  0  0  0
    5.5941   -1.2920   -4.4608 N   0  0  0  0  0  0  0  0  0  0  0  0
    5.0253   -2.6787   -4.3620 C   0  0  0  0  0  0  0  0  0  0  0  0
    4.4522   -3.2022   -5.6832 C   0  0  0  0  0  0  0  0  0  0  0  0
    4.4831   -2.3361   -6.7322 N   0  0  0  0  0  0  0  0  0  0  0  0
    3.9940   -4.3344   -5.8115 O   0  0  0  0  0  0  0  0  0  0  0  0
    7.1951    2.7561   -3.3331 C   0  0  0  0  0  0  0  0  0  0  0  0
    7.7833    2.5271   -4.5730 C   0  0  0  0  0  0  0  0  0  0  0  0
    9.1054    2.8554   -4.7783 C   0  0  0  0  0  0  0  0  0  0  0  0
    9.8132    3.6157   -3.8712 C   0  0  0  0  0  0  0  0  0  0  0  0
   11.1252    3.6661   -4.1154 N   0  0  0  0  0  0  0  0  0  0  0  0
   11.8204    4.5924   -3.4478 C   0  0  0  0  0  0  0  0  0  0  0  0
   11.2072    5.5069   -2.6198 C   0  0  0  0  0  0  0  0  0  0  0  0
   11.9744    6.7359   -2.3828 C   0  0  0  0  0  0  0  0  0  0  0  0
   11.8763    7.9975   -3.0348 C   0  0  0  0  0  0  0  0  0  0  0  0
   12.9129    8.8075   -2.7790 N   0  0  0  0  0  0  0  0  0  0  0  0
   13.6943    8.0707   -1.9731 N   0  0  0  0  0  0  0  0  0  0  0  0
   14.8025    8.6776   -1.2705 C   0  0  0  0  0  0  0  0  0  0  0  0
   13.2545    6.7790   -1.8448 C   0  0  0  0  0  0  0  0  0  0  0  0
    9.8888    5.3379   -2.2338 N   0  0  0  0  0  0  0  0  0  0  0  0
    9.1565    4.2877   -2.8214 C   0  0  0  0  0  0  0  0  0  0  0  0
    7.8272    3.7416   -2.5138 C   0  0  0  0  0  0  0  0  0  0  0  0
    3.8788    2.6043   -2.6426 C   0  0  0  0  0  0  0  0  0  0  0  0
   -0.4328    3.6210   -2.5092 H   0  0  0  0  0  0  0  0  0  0  0  0
    0.3488    3.6475   -0.9253 H   0  0  0  0  0  0  0  0  0  0  0  0
   -0.0058    2.0850   -1.7555 H   0  0  0  0  0  0  0  0  0  0  0  0
    1.6235    1.8648   -0.1946 H   0  0  0  0  0  0  0  0  0  0  0  0
    2.7197   -0.0036    2.6652 H   0  0  0  0  0  0  0  0  0  0  0  0
    1.7029    0.0320    1.2191 H   0  0  0  0  0  0  0  0  0  0  0  0
    2.2267    1.5651    2.0185 H   0  0  0  0  0  0  0  0  0  0  0  0
    5.7284    0.7428   -0.4894 H   0  0  0  0  0  0  0  0  0  0  0  0
    7.3758    0.3716   -1.9341 H   0  0  0  0  0  0  0  0  0  0  0  0
    7.6721    0.3493   -3.6406 H   0  0  0  0  0  0  0  0  0  0  0  0
    5.1918   -0.9164   -2.4205 H   0  0  0  0  0  0  0  0  0  0  0  0
    6.7357   -1.6766   -2.7716 H   0  0  0  0  0  0  0  0  0  0  0  0
    6.4043   -1.3442   -5.0821 H   0  0  0  0  0  0  0  0  0  0  0  0
    4.2078   -2.6950   -3.6334 H   0  0  0  0  0  0  0  0  0  0  0  0
    5.8082   -3.3828   -4.0564 H   0  0  0  0  0  0  0  0  0  0  0  0
    4.5756   -1.3512   -6.5153 H   0  0  0  0  0  0  0  0  0  0  0  0
    3.9894   -2.6117   -7.5721 H   0  0  0  0  0  0  0  0  0  0  0  0
    7.2827    1.9034   -5.3092 H   0  0  0  0  0  0  0  0  0  0  0  0
    9.6081    2.4737   -5.6555 H   0  0  0  0  0  0  0  0  0  0  0  0
   12.8781    4.6313   -3.6817 H   0  0  0  0  0  0  0  0  0  0  0  0
   11.1190    8.3475   -3.7252 H   0  0  0  0  0  0  0  0  0  0  0  0
   14.8898    9.7332   -1.5444 H   0  0  0  0  0  0  0  0  0  0  0  0
   15.7275    8.1487   -1.5133 H   0  0  0  0  0  0  0  0  0  0  0  0
   14.5890    8.5973   -0.2010 H   0  0  0  0  0  0  0  0  0  0  0  0
   13.8775    6.0289   -1.3778 H   0  0  0  0  0  0  0  0  0  0  0  0
    7.3453    4.0640   -1.5922 H   0  0  0  0  0  0  0  0  0  0  0  0
    3.9127    3.0869   -3.6170 H   0  0  0  0  0  0  0  0  0  0  0  0
  1  2  1  0  0  0  0
  1 35  1  0  0  0  0
  1 36  1  0  0  0  0
  1 37  1  0  0  0  0
  2  3  1  0  0  0  0
  3  4  1  0  0  0  0
  3 34  2  0  0  0  0
  4  5  2  0  0  0  0
  4 38  1  0  0  0  0
  5  6  1  0  0  0  0
  5  8  1  0  0  0  0
  6  7  1  0  0  0  0
  7 39  1  0  0  0  0
  7 40  1  0  0  0  0
  7 41  1  0  0  0  0
  8  9  2  0  0  0  0
  8 42  1  0  0  0  0
  9 10  1  0  0  0  0
  9 34  1  0  0  0  0
 10 11  1  0  0  0  0
 10 18  1  0  0  0  0
 11 12  1  0  0  0  0
 11 43  1  0  0  0  0
 11 44  1  0  0  0  0
 12 13  1  0  0  0  0
 12 45  1  0  0  0  0
 12 46  1  0  0  0  0
 13 14  1  0  0  0  0
 13 47  1  0  0  0  0
 14 15  1  0  0  0  0
 14 48  1  0  0  0  0
 14 49  1  0  0  0  0
 15 16  1  0  0  0  0
 15 17  2  0  0  0  0
 16 50  1  0  0  0  0
 16 51  1  0  0  0  0
 18 19  1  0  0  0  0
 18 33  2  0  0  0  0
 19 20  2  0  0  0  0
 19 52  1  0  0  0  0
 20 21  1  0  0  0  0
 20 53  1  0  0  0  0
 21 22  1  0  0  0  0
 21 32  2  0  0  0  0
 22 23  2  0  0  0  0
 23 24  1  0  0  0  0
 23 54  1  0  0  0  0
 24 25  1  0  0  0  0
 24 31  2  0  0  0  0
 25 26  1  0  0  0  0
 25 30  2  0  0  0  0
 26 27  2  0  0  0  0
 26 55  1  0  0  0  0
 27 28  1  0  0  0  0
 28 29  1  0  0  0  0
 28 30  1  0  0  0  0
 29 56  1  0  0  0  0
 29 57  1  0  0  0  0
 29 58  1  0  0  0  0
 30 59  1  0  0  0  0
 31 32  1  0  0  0  0
 32 33  1  0  0  0  0
 33 60  1  0  0  0  0
 34 61  1  0  0  0  0
M  END
$$$$
