CHEMBL3628798
 OpenBabel04072215373D

 41 44  0  0  0  0  0  0  0  0999 V2000
    1.2754    0.6768    0.7386 O   0  0  0  0  0  0  0  0  0  0  0  0
    2.3250    0.2635    0.2611 C   0  0  0  0  0  0  0  0  0  0  0  0
    2.8609    0.6961   -0.9406 N   0  0  0  0  0  0  0  0  0  0  0  0
    2.2570    1.6197   -1.8236 C   0  0  0  0  0  0  0  0  0  0  0  0
    1.1750    2.4357   -1.4842 C   0  0  0  0  0  0  0  0  0  0  0  0
    0.5631    3.2574   -2.4396 C   0  0  0  0  0  0  0  0  0  0  0  0
    1.0468    3.3078   -3.7466 C   0  0  0  0  0  0  0  0  0  0  0  0
    0.3875    4.0779   -4.7255 N   0  0  0  0  0  0  0  0  0  0  0  0
    1.0055    4.6842   -5.8355 C   0  0  0  0  0  0  0  0  0  0  0  0
    2.3258    4.9846   -5.7864 N   0  0  0  0  0  0  0  0  0  0  0  0
    2.9096    5.5507   -6.8469 C   0  0  0  0  0  0  0  0  0  0  0  0
    2.3410    5.8677   -8.0086 N   0  0  0  0  0  0  0  0  0  0  0  0
    1.0344    5.5592   -8.0379 C   0  0  0  0  0  0  0  0  0  0  0  0
    0.1065    5.8543   -9.4370 S   0  0  0  0  0  0  0  0  0  0  0  0
   -1.3024    5.2128   -8.7122 C   0  0  0  0  0  0  0  0  0  0  0  0
   -1.0679    4.7833   -7.4240 C   0  0  0  0  0  0  0  0  0  0  0  0
    0.2951    4.9867   -7.0128 C   0  0  0  0  0  0  0  0  0  0  0  0
    2.1450    2.5000   -4.0737 C   0  0  0  0  0  0  0  0  0  0  0  0
    2.7579    1.6801   -3.1230 C   0  0  0  0  0  0  0  0  0  0  0  0
    3.1100   -0.7261    0.8343 N   0  0  0  0  0  0  0  0  0  0  0  0
    2.7855   -1.4969    1.9735 C   0  0  0  0  0  0  0  0  0  0  0  0
    1.5688   -1.4000    2.6553 C   0  0  0  0  0  0  0  0  0  0  0  0
    1.3009   -2.2008    3.7710 C   0  0  0  0  0  0  0  0  0  0  0  0
    2.2478   -3.1162    4.2105 C   0  0  0  0  0  0  0  0  0  0  0  0
    3.4580   -3.2278    3.5329 C   0  0  0  0  0  0  0  0  0  0  0  0
    4.7422   -4.4868    4.1190 Br  0  0  0  0  0  0  0  0  0  0  0  0
    3.7334   -2.4251    2.4207 C   0  0  0  0  0  0  0  0  0  0  0  0
    3.6283    0.1631   -1.3143 H   0  0  0  0  0  0  0  0  0  0  0  0
    0.7702    2.4563   -0.4773 H   0  0  0  0  0  0  0  0  0  0  0  0
   -0.2928    3.8541   -2.1359 H   0  0  0  0  0  0  0  0  0  0  0  0
   -0.3455    4.6723   -4.3560 H   0  0  0  0  0  0  0  0  0  0  0  0
    3.9668    5.7723   -6.7445 H   0  0  0  0  0  0  0  0  0  0  0  0
   -2.2281    5.1749   -9.2704 H   0  0  0  0  0  0  0  0  0  0  0  0
   -1.8311    4.3252   -6.8059 H   0  0  0  0  0  0  0  0  0  0  0  0
    2.5273    2.4871   -5.0911 H   0  0  0  0  0  0  0  0  0  0  0  0
    3.6013    1.0717   -3.4350 H   0  0  0  0  0  0  0  0  0  0  0  0
    4.0218   -0.8730    0.4346 H   0  0  0  0  0  0  0  0  0  0  0  0
    0.7880   -0.7099    2.3502 H   0  0  0  0  0  0  0  0  0  0  0  0
    0.3501   -2.1021    4.2846 H   0  0  0  0  0  0  0  0  0  0  0  0
    2.0306   -3.7374    5.0764 H   0  0  0  0  0  0  0  0  0  0  0  0
    4.6840   -2.5339    1.9081 H   0  0  0  0  0  0  0  0  0  0  0  0
  1  2  2  0  0  0  0
  2  3  1  0  0  0  0
  2 20  1  0  0  0  0
  3  4  1  0  0  0  0
  3 28  1  0  0  0  0
  4  5  1  0  0  0  0
  4 19  2  0  0  0  0
  5  6  2  0  0  0  0
  5 29  1  0  0  0  0
  6  7  1  0  0  0  0
  6 30  1  0  0  0  0
  7  8  1  0  0  0  0
  7 18  2  0  0  0  0
  8  9  1  0  0  0  0
  8 31  1  0  0  0  0
  9 10  1  0  0  0  0
  9 17  2  0  0  0  0
 10 11  2  0  0  0  0
 11 12  1  0  0  0  0
 11 32  1  0  0  0  0
 12 13  2  0  0  0  0
 13 14  1  0  0  0  0
 13 17  1  0  0  0  0
 14 15  1  0  0  0  0
 15 16  2  0  0  0  0
 15 33  1  0  0  0  0
 16 17  1  0  0  0  0
 16 34  1  0  0  0  0
 18 19  1  0  0  0  0
 18 35  1  0  0  0  0
 19 36  1  0  0  0  0
 20 21  1  0  0  0  0
 20 37  1  0  0  0  0
 21 22  1  0  0  0  0
 21 27  2  0  0  0  0
 22 23  2  0  0  0  0
 22 38  1  0  0  0  0
 23 24  1  0  0  0  0
 23 39  1  0  0  0  0
 24 25  2  0  0  0  0
 24 40  1  0  0  0  0
 25 26  1  0  0  0  0
 25 27  1  0  0  0  0
 27 41  1  0  0  0  0
M  END
$$$$
