CHEMBL3960327
 OpenBabel04072215373D

 65 69  0  0  1  0  0  0  0  0999 V2000
    1.1885   -0.2562   -0.3547 C   0  0  0  0  0  0  0  0  0  0  0  0
    2.2914    0.1352    0.4606 O   0  0  0  0  0  0  0  0  0  0  0  0
    3.0501   -0.8713    1.0027 C   0  0  0  0  0  0  0  0  0  0  0  0
    2.6826   -2.2065    1.0711 C   0  0  0  0  0  0  0  0  0  0  0  0
    3.5431   -3.1231    1.6764 C   0  0  0  0  0  0  0  0  0  0  0  0
    3.2865   -4.4600    1.8342 O   0  0  0  0  0  0  0  0  0  0  0  0
    2.1285   -4.9647    1.1812 C   0  0  0  0  0  0  0  0  0  0  0  0
    4.7883   -2.7077    2.1786 C   0  0  0  0  0  0  0  0  0  0  0  0
    5.2367   -1.3899    2.0534 C   0  0  0  0  0  0  0  0  0  0  0  0
    6.5308   -1.0121    2.4932 N   0  0  0  0  0  0  0  0  0  0  0  0
    7.0560    0.3321    2.0414 C   0  0  0  0  0  0  0  0  0  0  0  0
    7.9876    0.1503    0.8211 C   0  0  0  0  0  0  0  0  0  0  0  0
    8.5577    1.3611    0.2115 N   0  0  0  0  0  0  0  0  0  0  0  0
    9.5107    2.0783    1.0731 C   0  0  0  0  0  0  0  0  0  0  0  0
   10.7788    2.2902    0.2486 C   0  0  0  0  0  0  0  0  0  0  0  0
   10.3628    2.0258   -1.1928 C   0  0  2  0  0  0  0  0  0  0  0  0
    9.8533    3.2316   -1.8501 C   0  0  0  0  0  0  0  0  0  0  0  0
    9.4807    4.1979   -2.3948 N   0  0  0  0  0  0  0  0  0  0  0  0
    9.2783    0.9810   -1.0213 C   0  0  0  0  0  0  0  0  0  0  0  0
    7.6414   -1.8062    2.9782 C   0  0  0  0  0  0  0  0  0  0  0  0
    8.3516   -1.2369    4.0330 C   0  0  0  0  0  0  0  0  0  0  0  0
    9.6963   -1.5079    4.1874 C   0  0  0  0  0  0  0  0  0  0  0  0
   10.3311   -2.4480    3.4226 C   0  0  0  0  0  0  0  0  0  0  0  0
   11.6591   -2.4557    3.5711 N   0  0  0  0  0  0  0  0  0  0  0  0
   12.3206   -3.4572    2.9809 C   0  0  0  0  0  0  0  0  0  0  0  0
   11.6683   -4.4743    2.3022 C   0  0  0  0  0  0  0  0  0  0  0  0
   12.4739   -5.6436    1.9833 C   0  0  0  0  0  0  0  0  0  0  0  0
   12.6070   -6.8710    2.6884 C   0  0  0  0  0  0  0  0  0  0  0  0
   13.6118   -7.6266    2.2223 N   0  0  0  0  0  0  0  0  0  0  0  0
   14.1211   -6.8830    1.2267 N   0  0  0  0  0  0  0  0  0  0  0  0
   14.9927   -7.4716    0.2372 C   0  0  0  0  0  0  0  0  0  0  0  0
   13.5968   -5.6202    1.1828 C   0  0  0  0  0  0  0  0  0  0  0  0
   10.3178   -4.3990    2.0409 N   0  0  0  0  0  0  0  0  0  0  0  0
    9.6106   -3.3194    2.5700 C   0  0  0  0  0  0  0  0  0  0  0  0
    8.2403   -2.9242    2.3215 C   0  0  0  0  0  0  0  0  0  0  0  0
    4.2930   -0.4756    1.5235 C   0  0  0  0  0  0  0  0  0  0  0  0
    0.8195    0.6316   -0.8789 H   0  0  0  0  0  0  0  0  0  0  0  0
    0.3693   -0.6446    0.2594 H   0  0  0  0  0  0  0  0  0  0  0  0
    1.4869   -0.9845   -1.1171 H   0  0  0  0  0  0  0  0  0  0  0  0
    1.7257   -2.5222    0.6801 H   0  0  0  0  0  0  0  0  0  0  0  0
    2.1146   -6.0491    1.3174 H   0  0  0  0  0  0  0  0  0  0  0  0
    2.1601   -4.7644    0.1043 H   0  0  0  0  0  0  0  0  0  0  0  0
    1.2175   -4.5574    1.6318 H   0  0  0  0  0  0  0  0  0  0  0  0
    5.4097   -3.4480    2.6730 H   0  0  0  0  0  0  0  0  0  0  0  0
    7.5886    0.8333    2.8599 H   0  0  0  0  0  0  0  0  0  0  0  0
    6.2770    1.0545    1.7943 H   0  0  0  0  0  0  0  0  0  0  0  0
    7.4065   -0.3816    0.0576 H   0  0  0  0  0  0  0  0  0  0  0  0
    8.8208   -0.5050    1.0961 H   0  0  0  0  0  0  0  0  0  0  0  0
    9.7530    1.5569    2.0061 H   0  0  0  0  0  0  0  0  0  0  0  0
    9.0780    3.0483    1.3410 H   0  0  0  0  0  0  0  0  0  0  0  0
   11.5216    1.5381    0.5439 H   0  0  0  0  0  0  0  0  0  0  0  0
   11.2188    3.2791    0.4011 H   0  0  0  0  0  0  0  0  0  0  0  0
   11.2019    1.6284   -1.7742 H   0  0  0  0  0  0  0  0  0  0  0  0
    9.7607   -0.0003   -0.9000 H   0  0  0  0  0  0  0  0  0  0  0  0
    8.5879    0.9134   -1.8686 H   0  0  0  0  0  0  0  0  0  0  0  0
    7.9039   -0.4538    4.6373 H   0  0  0  0  0  0  0  0  0  0  0  0
   10.2781   -0.9283    4.8979 H   0  0  0  0  0  0  0  0  0  0  0  0
   13.3957   -3.4447    3.1105 H   0  0  0  0  0  0  0  0  0  0  0  0
   12.0462   -7.2362    3.5406 H   0  0  0  0  0  0  0  0  0  0  0  0
   15.1347   -8.5341    0.4497 H   0  0  0  0  0  0  0  0  0  0  0  0
   15.9511   -6.9480    0.2361 H   0  0  0  0  0  0  0  0  0  0  0  0
   14.4966   -7.3581   -0.7313 H   0  0  0  0  0  0  0  0  0  0  0  0
   14.0365   -4.8538    0.5591 H   0  0  0  0  0  0  0  0  0  0  0  0
    7.6943   -3.4473    1.5397 H   0  0  0  0  0  0  0  0  0  0  0  0
    4.4725    0.5945    1.4988 H   0  0  0  0  0  0  0  0  0  0  0  0
  1  2  1  0  0  0  0
  1 37  1  0  0  0  0
  1 38  1  0  0  0  0
  1 39  1  0  0  0  0
  2  3  1  0  0  0  0
  3  4  1  0  0  0  0
  3 36  2  0  0  0  0
  4  5  2  0  0  0  0
  4 40  1  0  0  0  0
  5  6  1  0  0  0  0
  5  8  1  0  0  0  0
  6  7  1  0  0  0  0
  7 41  1  0  0  0  0
  7 42  1  0  0  0  0
  7 43  1  0  0  0  0
  8  9  2  0  0  0  0
  8 44  1  0  0  0  0
  9 10  1  0  0  0  0
  9 36  1  0  0  0  0
 10 11  1  0  0  0  0
 10 20  1  0  0  0  0
 11 12  1  0  0  0  0
 11 45  1  0  0  0  0
 11 46  1  0  0  0  0
 12 13  1  0  0  0  0
 12 47  1  0  0  0  0
 12 48  1  0  0  0  0
 13 14  1  0  0  0  0
 13 19  1  0  0  0  0
 14 15  1  0  0  0  0
 14 49  1  0  0  0  0
 14 50  1  0  0  0  0
 15 16  1  0  0  0  0
 15 51  1  0  0  0  0
 15 52  1  0  0  0  0
 16 17  1  0  0  0  0
 16 19  1  0  0  0  0
 16 53  1  6  0  0  0
 17 18  3  0  0  0  0
 19 54  1  0  0  0  0
 19 55  1  0  0  0  0
 20 21  1  0  0  0  0
 20 35  2  0  0  0  0
 21 22  2  0  0  0  0
 21 56  1  0  0  0  0
 22 23  1  0  0  0  0
 22 57  1  0  0  0  0
 23 24  1  0  0  0  0
 23 34  2  0  0  0  0
 24 25  2  0  0  0  0
 25 26  1  0  0  0  0
 25 58  1  0  0  0  0
 26 27  1  0  0  0  0
 26 33  2  0  0  0  0
 27 28  1  0  0  0  0
 27 32  2  0  0  0  0
 28 29  2  0  0  0  0
 28 59  1  0  0  0  0
 29 30  1  0  0  0  0
 30 31  1  0  0  0  0
 30 32  1  0  0  0  0
 31 60  1  0  0  0  0
 31 61  1  0  0  0  0
 31 62  1  0  0  0  0
 32 63  1  0  0  0  0
 33 34  1  0  0  0  0
 34 35  1  0  0  0  0
 35 64  1  0  0  0  0
 36 65  1  0  0  0  0
M  END
$$$$
