CHEMBL3114027
 OpenBabel04072215363D

 43 46  0  0  0  0  0  0  0  0999 V2000
    1.0231   -0.0455    0.1212 C   0  0  0  0  0  0  0  0  0  0  0  0
    2.4853    0.0083    0.0723 N   0  0  0  0  0  0  0  0  0  0  0  0
    3.1460    0.8929    0.9622 C   0  0  0  0  0  0  0  0  0  0  0  0
    4.4023    1.4720    0.5359 C   0  0  0  0  0  0  0  0  0  0  0  0
    5.1435    2.4327    1.2511 C   0  0  0  0  0  0  0  0  0  0  0  0
    4.5104    2.7453    2.4420 C   0  0  0  0  0  0  0  0  0  0  0  0
    4.9453    3.6637    3.3525 C   0  0  0  0  0  0  0  0  0  0  0  0
    4.0079    3.6318    4.3448 N   0  0  0  0  0  0  0  0  0  0  0  0
    3.9996    4.4355    5.5435 C   0  0  0  0  0  0  0  0  0  0  0  0
    3.0022    2.7594    4.1371 N   0  0  0  0  0  0  0  0  0  0  0  0
    3.2822    2.1932    2.9468 C   0  0  0  0  0  0  0  0  0  0  0  0
    2.5698    1.2312    2.2159 C   0  0  0  0  0  0  0  0  0  0  0  0
    3.1183   -0.9342   -0.7661 C   0  0  0  0  0  0  0  0  0  0  0  0
    2.4746   -1.4050   -1.8975 C   0  0  0  0  0  0  0  0  0  0  0  0
    3.1493   -2.2999   -2.6648 C   0  0  0  0  0  0  0  0  0  0  0  0
    4.3821   -2.7311   -2.3746 N   0  0  0  0  0  0  0  0  0  0  0  0
    4.9511   -2.2558   -1.2535 C   0  0  0  0  0  0  0  0  0  0  0  0
    6.1989   -2.7611   -0.8798 N   0  0  0  0  0  0  0  0  0  0  0  0
    7.2108   -3.2522   -1.7118 C   0  0  0  0  0  0  0  0  0  0  0  0
    7.3598   -2.7608   -3.0197 C   0  0  0  0  0  0  0  0  0  0  0  0
    8.3037   -3.2989   -3.8964 C   0  0  0  0  0  0  0  0  0  0  0  0
    9.0939   -4.3624   -3.4832 C   0  0  0  0  0  0  0  0  0  0  0  0
    8.9482   -4.8716   -2.1943 C   0  0  0  0  0  0  0  0  0  0  0  0
    9.8980   -6.2225   -1.7067 Cl  0  0  0  0  0  0  0  0  0  0  0  0
    8.0183   -4.3166   -1.3073 C   0  0  0  0  0  0  0  0  0  0  0  0
    4.3582   -1.3764   -0.4490 N   0  0  0  0  0  0  0  0  0  0  0  0
    0.5757    0.6722    0.8147 H   0  0  0  0  0  0  0  0  0  0  0  0
    0.6861   -1.0461    0.4110 H   0  0  0  0  0  0  0  0  0  0  0  0
    0.5856    0.2109   -0.8494 H   0  0  0  0  0  0  0  0  0  0  0  0
    4.7991    1.1662   -0.4329 H   0  0  0  0  0  0  0  0  0  0  0  0
    6.0637    2.8635    0.8836 H   0  0  0  0  0  0  0  0  0  0  0  0
    5.8029    4.3197    3.3838 H   0  0  0  0  0  0  0  0  0  0  0  0
    4.8760    5.0883    5.5504 H   0  0  0  0  0  0  0  0  0  0  0  0
    4.0252    3.7667    6.4072 H   0  0  0  0  0  0  0  0  0  0  0  0
    3.0872    5.0371    5.5485 H   0  0  0  0  0  0  0  0  0  0  0  0
    1.6573    0.8062    2.5979 H   0  0  0  0  0  0  0  0  0  0  0  0
    1.4929   -1.0699   -2.1943 H   0  0  0  0  0  0  0  0  0  0  0  0
    2.7156   -2.7086   -3.5721 H   0  0  0  0  0  0  0  0  0  0  0  0
    6.3457   -2.7278    0.1160 H   0  0  0  0  0  0  0  0  0  0  0  0
    6.7345   -1.9414   -3.3640 H   0  0  0  0  0  0  0  0  0  0  0  0
    8.3982   -2.8929   -4.8997 H   0  0  0  0  0  0  0  0  0  0  0  0
    9.8108   -4.8005   -4.1747 H   0  0  0  0  0  0  0  0  0  0  0  0
    7.9012   -4.7470   -0.3152 H   0  0  0  0  0  0  0  0  0  0  0  0
  1  2  1  0  0  0  0
  1 27  1  0  0  0  0
  1 28  1  0  0  0  0
  1 29  1  0  0  0  0
  2  3  1  0  0  0  0
  2 13  1  0  0  0  0
  3  4  1  0  0  0  0
  3 12  2  0  0  0  0
  4  5  2  0  0  0  0
  4 30  1  0  0  0  0
  5  6  1  0  0  0  0
  5 31  1  0  0  0  0
  6  7  2  0  0  0  0
  6 11  1  0  0  0  0
  7  8  1  0  0  0  0
  7 32  1  0  0  0  0
  8  9  1  0  0  0  0
  8 10  1  0  0  0  0
  9 33  1  0  0  0  0
  9 34  1  0  0  0  0
  9 35  1  0  0  0  0
 10 11  2  0  0  0  0
 11 12  1  0  0  0  0
 12 36  1  0  0  0  0
 13 14  1  0  0  0  0
 13 26  2  0  0  0  0
 14 15  2  0  0  0  0
 14 37  1  0  0  0  0
 15 16  1  0  0  0  0
 15 38  1  0  0  0  0
 16 17  2  0  0  0  0
 17 18  1  0  0  0  0
 17 26  1  0  0  0  0
 18 19  1  0  0  0  0
 18 39  1  0  0  0  0
 19 20  1  0  0  0  0
 19 25  2  0  0  0  0
 20 21  2  0  0  0  0
 20 40  1  0  0  0  0
 21 22  1  0  0  0  0
 21 41  1  0  0  0  0
 22 23  2  0  0  0  0
 22 42  1  0  0  0  0
 23 24  1  0  0  0  0
 23 25  1  0  0  0  0
 25 43  1  0  0  0  0
M  END
$$$$
