CHEMBL3928634
 OpenBabel04072215373D

 54 57  0  0  0  0  0  0  0  0999 V2000
    2.4831   -0.1992   -0.0332 C   0  0  0  0  0  0  0  0  0  0  0  0
    0.9903   -0.0624    0.0327 C   0  0  0  0  0  0  0  0  0  0  0  0
    0.4002    1.2077   -0.0055 C   0  0  0  0  0  0  0  0  0  0  0  0
   -0.9878    1.3684    0.0595 C   0  0  0  0  0  0  0  0  0  0  0  0
   -1.6029    2.6428    0.0039 N   0  0  0  0  0  0  0  0  0  0  0  0
   -1.0207    3.7758   -0.5444 C   0  0  0  0  0  0  0  0  0  0  0  0
    0.0246    3.7928   -1.1870 O   0  0  0  0  0  0  0  0  0  0  0  0
   -1.7503    4.9187   -0.2418 N   0  0  0  0  0  0  0  0  0  0  0  0
   -1.3317    6.1893   -0.7003 C   0  0  0  0  0  0  0  0  0  0  0  0
   -1.2827    7.2476    0.2077 C   0  0  0  0  0  0  0  0  0  0  0  0
   -0.8201    8.4997   -0.2010 C   0  0  0  0  0  0  0  0  0  0  0  0
   -0.4638    8.7157   -1.5324 C   0  0  0  0  0  0  0  0  0  0  0  0
   -0.5531    7.6760   -2.4700 C   0  0  0  0  0  0  0  0  0  0  0  0
   -0.2262    7.9128   -3.9241 C   0  0  0  0  0  0  0  0  0  0  0  0
    0.1096    9.2065   -4.1982 F   0  0  0  0  0  0  0  0  0  0  0  0
    0.8148    7.1586   -4.3698 F   0  0  0  0  0  0  0  0  0  0  0  0
   -1.2769    7.6279   -4.7447 F   0  0  0  0  0  0  0  0  0  0  0  0
   -0.9684    6.4052   -2.0353 C   0  0  0  0  0  0  0  0  0  0  0  0
   -1.7919    0.2350    0.2204 C   0  0  0  0  0  0  0  0  0  0  0  0
   -1.2200   -1.0466    0.2208 C   0  0  0  0  0  0  0  0  0  0  0  0
   -1.9384   -2.2101    0.4143 O   0  0  0  0  0  0  0  0  0  0  0  0
   -3.1751   -2.3566   -0.2079 C   0  0  0  0  0  0  0  0  0  0  0  0
   -4.0111   -3.3293    0.2998 C   0  0  0  0  0  0  0  0  0  0  0  0
   -5.2202   -3.4785   -0.3381 C   0  0  0  0  0  0  0  0  0  0  0  0
   -6.1215   -4.4649    0.1089 N   0  0  0  0  0  0  0  0  0  0  0  0
   -7.3346   -4.7159   -0.5017 C   0  0  0  0  0  0  0  0  0  0  0  0
   -7.8164   -4.1296   -1.4607 O   0  0  0  0  0  0  0  0  0  0  0  0
   -8.1258   -5.8235    0.1235 C   0  0  0  0  0  0  0  0  0  0  0  0
   -9.2931   -6.4219   -0.6401 C   0  0  0  0  0  0  0  0  0  0  0  0
   -9.5520   -5.5548    0.5560 C   0  0  0  0  0  0  0  0  0  0  0  0
   -5.5586   -2.7143   -1.3841 N   0  0  0  0  0  0  0  0  0  0  0  0
   -4.6712   -1.8177   -1.8147 C   0  0  0  0  0  0  0  0  0  0  0  0
   -3.4723   -1.6008   -1.2792 N   0  0  0  0  0  0  0  0  0  0  0  0
    0.1686   -1.1904    0.1307 C   0  0  0  0  0  0  0  0  0  0  0  0
    2.9743    0.7811   -0.0297 H   0  0  0  0  0  0  0  0  0  0  0  0
    2.7794   -0.7187   -0.9491 H   0  0  0  0  0  0  0  0  0  0  0  0
    2.8508   -0.7519    0.8368 H   0  0  0  0  0  0  0  0  0  0  0  0
    1.0523    2.0752   -0.0709 H   0  0  0  0  0  0  0  0  0  0  0  0
   -2.6083    2.6717    0.0985 H   0  0  0  0  0  0  0  0  0  0  0  0
   -2.1795    4.8903    0.6723 H   0  0  0  0  0  0  0  0  0  0  0  0
   -1.5393    7.0974    1.2525 H   0  0  0  0  0  0  0  0  0  0  0  0
   -0.7282    9.3069    0.5216 H   0  0  0  0  0  0  0  0  0  0  0  0
   -0.1168    9.7017   -1.8371 H   0  0  0  0  0  0  0  0  0  0  0  0
   -1.0201    5.5860   -2.7527 H   0  0  0  0  0  0  0  0  0  0  0  0
   -2.8676    0.3419    0.3141 H   0  0  0  0  0  0  0  0  0  0  0  0
   -3.7140   -3.9302    1.1530 H   0  0  0  0  0  0  0  0  0  0  0  0
   -5.8558   -5.0255    0.9042 H   0  0  0  0  0  0  0  0  0  0  0  0
   -7.5584   -6.5217    0.7302 H   0  0  0  0  0  0  0  0  0  0  0  0
   -9.4789   -7.4850   -0.5530 H   0  0  0  0  0  0  0  0  0  0  0  0
   -9.5333   -6.0156   -1.6188 H   0  0  0  0  0  0  0  0  0  0  0  0
   -9.9257   -6.0361    1.4519 H   0  0  0  0  0  0  0  0  0  0  0  0
   -9.9635   -4.5661    0.3776 H   0  0  0  0  0  0  0  0  0  0  0  0
   -4.9595   -1.2152   -2.6682 H   0  0  0  0  0  0  0  0  0  0  0  0
    0.6108   -2.1838    0.1440 H   0  0  0  0  0  0  0  0  0  0  0  0
  1  2  1  0  0  0  0
  1 35  1  0  0  0  0
  1 36  1  0  0  0  0
  1 37  1  0  0  0  0
  2  3  1  0  0  0  0
  2 34  2  0  0  0  0
  3  4  2  0  0  0  0
  3 38  1  0  0  0  0
  4  5  1  0  0  0  0
  4 19  1  0  0  0  0
  5  6  1  0  0  0  0
  5 39  1  0  0  0  0
  6  7  2  0  0  0  0
  6  8  1  0  0  0  0
  8  9  1  0  0  0  0
  8 40  1  0  0  0  0
  9 10  1  0  0  0  0
  9 18  2  0  0  0  0
 10 11  2  0  0  0  0
 10 41  1  0  0  0  0
 11 12  1  0  0  0  0
 11 42  1  0  0  0  0
 12 13  2  0  0  0  0
 12 43  1  0  0  0  0
 13 14  1  0  0  0  0
 13 18  1  0  0  0  0
 14 15  1  0  0  0  0
 14 16  1  0  0  0  0
 14 17  1  0  0  0  0
 18 44  1  0  0  0  0
 19 20  2  0  0  0  0
 19 45  1  0  0  0  0
 20 21  1  0  0  0  0
 20 34  1  0  0  0  0
 21 22  1  0  0  0  0
 22 23  1  0  0  0  0
 22 33  2  0  0  0  0
 23 24  2  0  0  0  0
 23 46  1  0  0  0  0
 24 25  1  0  0  0  0
 24 31  1  0  0  0  0
 25 26  1  0  0  0  0
 25 47  1  0  0  0  0
 26 27  2  0  0  0  0
 26 28  1  0  0  0  0
 28 29  1  0  0  0  0
 28 30  1  0  0  0  0
 28 48  1  0  0  0  0
 29 30  1  0  0  0  0
 29 49  1  0  0  0  0
 29 50  1  0  0  0  0
 30 51  1  0  0  0  0
 30 52  1  0  0  0  0
 31 32  2  0  0  0  0
 32 33  1  0  0  0  0
 32 53  1  0  0  0  0
 34 54  1  0  0  0  0
M  END
$$$$
