CHEMBL452812
 OpenBabel04072215383D

 39 42  0  0  0  0  0  0  0  0999 V2000
    3.3521    0.6355    1.1399 C   0  0  0  0  0  0  0  0  0  0  0  0
    2.6511   -0.3601    0.4019 O   0  0  0  0  0  0  0  0  0  0  0  0
    3.4115   -1.2241   -0.3400 C   0  0  0  0  0  0  0  0  0  0  0  0
    4.7967   -1.1845   -0.4669 C   0  0  0  0  0  0  0  0  0  0  0  0
    5.4625   -2.1251   -1.2735 C   0  0  0  0  0  0  0  0  0  0  0  0
    4.7424   -3.1025   -1.9591 C   0  0  0  0  0  0  0  0  0  0  0  0
    5.4394   -4.0648   -2.8185 C   0  0  0  0  0  0  0  0  0  0  0  0
    6.0391   -5.2123   -2.4639 C   0  0  0  0  0  0  0  0  0  0  0  0
    6.2765   -5.7420   -1.1676 C   0  0  0  0  0  0  0  0  0  0  0  0
    5.3671   -5.7778   -0.1296 C   0  0  0  0  0  0  0  0  0  0  0  0
    6.0327   -6.2955    0.9500 N   0  0  0  0  0  0  0  0  0  0  0  0
    7.3811   -6.1103    0.7576 C   0  0  0  0  0  0  0  0  0  0  0  0
    8.4431   -5.9757    1.6569 C   0  0  0  0  0  0  0  0  0  0  0  0
    9.7292   -5.9236    1.1114 C   0  0  0  0  0  0  0  0  0  0  0  0
    9.9404   -6.1311   -0.2504 C   0  0  0  0  0  0  0  0  0  0  0  0
    8.8595   -6.2263   -1.1325 C   0  0  0  0  0  0  0  0  0  0  0  0
    7.5532   -6.0898   -0.6257 C   0  0  0  0  0  0  0  0  0  0  0  0
    6.6130   -5.7674   -3.7216 C   0  0  0  0  0  0  0  0  0  0  0  0
    7.1899   -6.8172   -3.8735 O   0  0  0  0  0  0  0  0  0  0  0  0
    6.3505   -4.8558   -4.7194 N   0  0  0  0  0  0  0  0  0  0  0  0
    5.6639   -3.7045   -4.2497 C   0  0  0  0  0  0  0  0  0  0  0  0
    3.3494   -3.1494   -1.8208 C   0  0  0  0  0  0  0  0  0  0  0  0
    2.6911   -2.2135   -1.0152 C   0  0  0  0  0  0  0  0  0  0  0  0
    2.6142    1.2466    1.6682 H   0  0  0  0  0  0  0  0  0  0  0  0
    3.9166    1.2992    0.4758 H   0  0  0  0  0  0  0  0  0  0  0  0
    4.0054    0.1778    1.8901 H   0  0  0  0  0  0  0  0  0  0  0  0
    5.4020   -0.4401    0.0396 H   0  0  0  0  0  0  0  0  0  0  0  0
    6.5457   -2.0826   -1.3481 H   0  0  0  0  0  0  0  0  0  0  0  0
    4.3228   -5.5033   -0.0574 H   0  0  0  0  0  0  0  0  0  0  0  0
    5.6077   -6.6644    1.7879 H   0  0  0  0  0  0  0  0  0  0  0  0
    8.2768   -5.8459    2.7195 H   0  0  0  0  0  0  0  0  0  0  0  0
   10.5809   -5.7355    1.7612 H   0  0  0  0  0  0  0  0  0  0  0  0
   10.9524   -6.1703   -0.6450 H   0  0  0  0  0  0  0  0  0  0  0  0
    9.0371   -6.3489   -2.1975 H   0  0  0  0  0  0  0  0  0  0  0  0
    6.6697   -5.0220   -5.6700 H   0  0  0  0  0  0  0  0  0  0  0  0
    4.7393   -3.5666   -4.8279 H   0  0  0  0  0  0  0  0  0  0  0  0
    6.3222   -2.8383   -4.3548 H   0  0  0  0  0  0  0  0  0  0  0  0
    2.7664   -3.9127   -2.3303 H   0  0  0  0  0  0  0  0  0  0  0  0
    1.6089   -2.2553   -0.9148 H   0  0  0  0  0  0  0  0  0  0  0  0
  1  2  1  0  0  0  0
  1 24  1  0  0  0  0
  1 25  1  0  0  0  0
  1 26  1  0  0  0  0
  2  3  1  0  0  0  0
  3  4  1  0  0  0  0
  3 23  2  0  0  0  0
  4  5  2  0  0  0  0
  4 27  1  0  0  0  0
  5  6  1  0  0  0  0
  5 28  1  0  0  0  0
  6  7  1  0  0  0  0
  6 22  2  0  0  0  0
  7  8  2  0  0  0  0
  7 21  1  0  0  0  0
  8  9  1  0  0  0  0
  8 18  1  0  0  0  0
  9 10  2  0  0  0  0
  9 17  1  0  0  0  0
 10 11  1  0  0  0  0
 10 29  1  0  0  0  0
 11 12  1  0  0  0  0
 11 30  1  0  0  0  0
 12 13  1  0  0  0  0
 12 17  2  0  0  0  0
 13 14  2  0  0  0  0
 13 31  1  0  0  0  0
 14 15  1  0  0  0  0
 14 32  1  0  0  0  0
 15 16  2  0  0  0  0
 15 33  1  0  0  0  0
 16 17  1  0  0  0  0
 16 34  1  0  0  0  0
 18 19  2  0  0  0  0
 18 20  1  0  0  0  0
 20 21  1  0  0  0  0
 20 35  1  0  0  0  0
 21 36  1  0  0  0  0
 21 37  1  0  0  0  0
 22 23  1  0  0  0  0
 22 38  1  0  0  0  0
 23 39  1  0  0  0  0
M  END
$$$$
