CHEMBL3288525
 OpenBabel04072215363D

 46 50  0  0  0  0  0  0  0  0999 V2000
    1.4855   -1.4730    3.1143 N   0  0  0  0  0  0  0  0  0  0  0  0
    2.7395   -1.2325    2.6119 C   0  0  0  0  0  0  0  0  0  0  0  0
    3.5153   -0.4804    3.4288 N   0  0  0  0  0  0  0  0  0  0  0  0
    4.7570   -0.1361    3.0635 C   0  0  0  0  0  0  0  0  0  0  0  0
    5.3386   -0.5096    1.8762 C   0  0  0  0  0  0  0  0  0  0  0  0
    4.5589   -1.3134    1.0368 C   0  0  0  0  0  0  0  0  0  0  0  0
    5.0670   -1.9178   -0.4877 S   0  0  0  0  0  0  0  0  0  0  0  0
    3.5977   -2.7196   -0.7307 C   0  0  0  0  0  0  0  0  0  0  0  0
    2.6877   -2.5387    0.3052 C   0  0  0  0  0  0  0  0  0  0  0  0
    1.3581   -3.1443    0.1635 C   0  0  0  0  0  0  0  0  0  0  0  0
    0.6849   -3.0334   -1.0532 C   0  0  0  0  0  0  0  0  0  0  0  0
   -0.5712   -3.6166   -1.2310 C   0  0  0  0  0  0  0  0  0  0  0  0
   -1.2438   -4.3001   -0.1961 C   0  0  0  0  0  0  0  0  0  0  0  0
   -2.5355   -4.8999   -0.3122 C   0  0  0  0  0  0  0  0  0  0  0  0
   -3.2881   -4.8871   -1.6072 C   0  0  0  0  0  0  0  0  0  0  0  0
   -2.6663   -4.9759   -2.6554 O   0  0  0  0  0  0  0  0  0  0  0  0
   -4.6690   -4.7405   -1.4918 N   0  0  0  0  0  0  0  0  0  0  0  0
   -5.5840   -4.7015   -2.5698 C   0  0  0  0  0  0  0  0  0  0  0  0
   -5.2232   -4.9878   -3.8857 C   0  0  0  0  0  0  0  0  0  0  0  0
   -6.1492   -4.8676   -4.9268 C   0  0  0  0  0  0  0  0  0  0  0  0
   -7.4525   -4.4723   -4.6508 C   0  0  0  0  0  0  0  0  0  0  0  0
   -7.8364   -4.2221   -3.3350 C   0  0  0  0  0  0  0  0  0  0  0  0
   -6.9093   -4.3421   -2.2955 C   0  0  0  0  0  0  0  0  0  0  0  0
   -3.1185   -5.5554    0.7859 C   0  0  0  0  0  0  0  0  0  0  0  0
   -2.4775   -5.5643    2.0118 C   0  0  0  0  0  0  0  0  0  0  0  0
   -1.2187   -4.9778    2.1461 C   0  0  0  0  0  0  0  0  0  0  0  0
   -0.5737   -4.3825    1.0521 C   0  0  0  0  0  0  0  0  0  0  0  0
    0.7359   -3.8493    1.1949 C   0  0  0  0  0  0  0  0  0  0  0  0
    3.2516   -1.7065    1.3697 C   0  0  0  0  0  0  0  0  0  0  0  0
    1.3139   -1.1004    4.0372 H   0  0  0  0  0  0  0  0  0  0  0  0
    0.7499   -1.9037    2.5851 H   0  0  0  0  0  0  0  0  0  0  0  0
    5.2985    0.4781    3.7780 H   0  0  0  0  0  0  0  0  0  0  0  0
    6.3410   -0.2000    1.6071 H   0  0  0  0  0  0  0  0  0  0  0  0
    3.4594   -3.2846   -1.6453 H   0  0  0  0  0  0  0  0  0  0  0  0
    1.1264   -2.5056   -1.8948 H   0  0  0  0  0  0  0  0  0  0  0  0
   -1.0140   -3.5137   -2.2210 H   0  0  0  0  0  0  0  0  0  0  0  0
   -5.0524   -4.5373   -0.5750 H   0  0  0  0  0  0  0  0  0  0  0  0
   -4.2255   -5.3191   -4.1512 H   0  0  0  0  0  0  0  0  0  0  0  0
   -5.8363   -5.0772   -5.9456 H   0  0  0  0  0  0  0  0  0  0  0  0
   -8.1646   -4.3631   -5.4627 H   0  0  0  0  0  0  0  0  0  0  0  0
   -8.8591   -3.9212   -3.1221 H   0  0  0  0  0  0  0  0  0  0  0  0
   -7.2344   -4.1283   -1.2811 H   0  0  0  0  0  0  0  0  0  0  0  0
   -4.0700   -6.0782    0.6848 H   0  0  0  0  0  0  0  0  0  0  0  0
   -2.9502   -6.0400    2.8718 H   0  0  0  0  0  0  0  0  0  0  0  0
   -0.7418   -4.9940    3.1252 H   0  0  0  0  0  0  0  0  0  0  0  0
    1.2648   -3.9971    2.1361 H   0  0  0  0  0  0  0  0  0  0  0  0
  1  2  1  0  0  0  0
  1 30  1  0  0  0  0
  1 31  1  0  0  0  0
  2  3  1  0  0  0  0
  2 29  2  0  0  0  0
  3  4  2  0  0  0  0
  4  5  1  0  0  0  0
  4 32  1  0  0  0  0
  5  6  2  0  0  0  0
  5 33  1  0  0  0  0
  6  7  1  0  0  0  0
  6 29  1  0  0  0  0
  7  8  1  0  0  0  0
  8  9  2  0  0  0  0
  8 34  1  0  0  0  0
  9 10  1  0  0  0  0
  9 29  1  0  0  0  0
 10 11  1  0  0  0  0
 10 28  2  0  0  0  0
 11 12  2  0  0  0  0
 11 35  1  0  0  0  0
 12 13  1  0  0  0  0
 12 36  1  0  0  0  0
 13 14  1  0  0  0  0
 13 27  2  0  0  0  0
 14 15  1  0  0  0  0
 14 24  2  0  0  0  0
 15 16  2  0  0  0  0
 15 17  1  0  0  0  0
 17 18  1  0  0  0  0
 17 37  1  0  0  0  0
 18 19  1  0  0  0  0
 18 23  2  0  0  0  0
 19 20  2  0  0  0  0
 19 38  1  0  0  0  0
 20 21  1  0  0  0  0
 20 39  1  0  0  0  0
 21 22  2  0  0  0  0
 21 40  1  0  0  0  0
 22 23  1  0  0  0  0
 22 41  1  0  0  0  0
 23 42  1  0  0  0  0
 24 25  1  0  0  0  0
 24 43  1  0  0  0  0
 25 26  2  0  0  0  0
 25 44  1  0  0  0  0
 26 27  1  0  0  0  0
 26 45  1  0  0  0  0
 27 28  1  0  0  0  0
 28 46  1  0  0  0  0
M  END
$$$$
