CHEMBL3116440
 OpenBabel04072215363D

 81 86  0  0  0  0  0  0  0  0999 V2000
    2.5384   -0.2757   -1.1789 C   0  0  0  0  0  0  0  0  0  0  0  0
    2.4187   -0.1063    0.2378 O   0  0  0  0  0  0  0  0  0  0  0  0
    3.1242    0.9035    0.8353 C   0  0  0  0  0  0  0  0  0  0  0  0
    4.2786    1.4189    0.2672 C   0  0  0  0  0  0  0  0  0  0  0  0
    4.8326    2.6405    0.6844 C   0  0  0  0  0  0  0  0  0  0  0  0
    5.8065    3.3339   -0.0645 C   0  0  0  0  0  0  0  0  0  0  0  0
    6.3010    2.9173   -1.2876 O   0  0  0  0  0  0  0  0  0  0  0  0
    5.4502    2.6253   -2.3379 C   0  0  0  0  0  0  0  0  0  0  0  0
    4.0852    2.9217   -2.3844 C   0  0  0  0  0  0  0  0  0  0  0  0
    3.2972    2.4822   -3.4562 C   0  0  0  0  0  0  0  0  0  0  0  0
    3.8689    1.8294   -4.5540 C   0  0  0  0  0  0  0  0  0  0  0  0
    3.0367    1.3834   -5.5884 N   0  0  0  0  0  0  0  0  0  0  0  0
    3.2557    0.3197   -6.4339 C   0  0  0  0  0  0  0  0  0  0  0  0
    2.5401   -0.0710   -7.5002 C   0  0  0  0  0  0  0  0  0  0  0  0
    1.4494    0.7637   -8.0147 C   0  0  0  0  0  0  0  0  0  0  0  0
    1.4353    1.9798   -7.9674 O   0  0  0  0  0  0  0  0  0  0  0  0
    0.4362    0.0520   -8.5700 N   0  0  0  0  0  0  0  0  0  0  0  0
    0.6010   -1.1567   -9.2036 C   0  0  0  0  0  0  0  0  0  0  0  0
   -0.2643   -1.4729  -10.0213 O   0  0  0  0  0  0  0  0  0  0  0  0
    1.7632   -1.8547   -8.9383 N   0  0  0  0  0  0  0  0  0  0  0  0
    1.9446   -3.1099   -9.5916 C   0  0  0  0  0  0  0  0  0  0  0  0
    3.0818   -3.3601  -10.3597 C   0  0  0  0  0  0  0  0  0  0  0  0
    3.2141   -4.5577  -11.0654 C   0  0  0  0  0  0  0  0  0  0  0  0
    2.2198   -5.5483  -10.9691 C   0  0  0  0  0  0  0  0  0  0  0  0
    2.3457   -6.8278  -11.7340 C   0  0  0  0  0  0  0  0  0  0  0  0
    1.0916   -5.3080  -10.1821 C   0  0  0  0  0  0  0  0  0  0  0  0
    0.9476   -4.1065   -9.5031 C   0  0  0  0  0  0  0  0  0  0  0  0
    2.7828   -1.4128   -8.0902 C   0  0  0  0  0  0  0  0  0  0  0  0
    3.7674   -2.0655   -7.7528 O   0  0  0  0  0  0  0  0  0  0  0  0
    5.2420    1.5717   -4.5231 C   0  0  0  0  0  0  0  0  0  0  0  0
    6.0140    1.9523   -3.4242 C   0  0  0  0  0  0  0  0  0  0  0  0
    7.3183    1.6389   -3.4248 F   0  0  0  0  0  0  0  0  0  0  0  0
    6.3747    4.4906    0.4515 C   0  0  0  0  0  0  0  0  0  0  0  0
    5.9128    4.9431    1.6714 C   0  0  0  0  0  0  0  0  0  0  0  0
    4.9208    4.3490    2.3719 N   0  0  0  0  0  0  0  0  0  0  0  0
    4.3763    3.2227    1.8786 C   0  0  0  0  0  0  0  0  0  0  0  0
    3.3490    2.5855    2.5671 C   0  0  0  0  0  0  0  0  0  0  0  0
    2.7211    1.4321    2.0698 C   0  0  0  0  0  0  0  0  0  0  0  0
    1.7634    0.9049    2.9082 O   0  0  0  0  0  0  0  0  0  0  0  0
    1.6552   -0.5173    2.8305 C   0  0  0  0  0  0  0  0  0  0  0  0
    1.3254   -1.1316    4.1895 C   0  0  0  0  0  0  0  0  0  0  0  0
    1.2803   -2.6603    4.0257 C   0  0  0  0  0  0  0  0  0  0  0  0
    0.9542   -3.4103    5.2511 N   0  0  0  0  0  0  0  0  0  0  0  0
    1.9455   -3.2389    6.3233 C   0  0  0  0  0  0  0  0  0  0  0  0
    3.0480   -4.2199    5.9834 C   0  0  0  0  0  0  0  0  0  0  0  0
    2.2589   -5.4360    5.5414 C   0  0  0  0  0  0  0  0  0  0  0  0
    0.9548   -4.8672    4.9776 C   0  0  0  0  0  0  0  0  0  0  0  0
    2.8367   -1.3068   -1.3859 H   0  0  0  0  0  0  0  0  0  0  0  0
    3.2556    0.3709   -1.6799 H   0  0  0  0  0  0  0  0  0  0  0  0
    1.5691   -0.0839   -1.6501 H   0  0  0  0  0  0  0  0  0  0  0  0
    4.7547    0.8931   -0.5500 H   0  0  0  0  0  0  0  0  0  0  0  0
    3.5839    3.4280   -1.5655 H   0  0  0  0  0  0  0  0  0  0  0  0
    2.2196    2.6254   -3.4005 H   0  0  0  0  0  0  0  0  0  0  0  0
    2.1748    1.9148   -5.7289 H   0  0  0  0  0  0  0  0  0  0  0  0
    4.0799   -0.3099   -6.1000 H   0  0  0  0  0  0  0  0  0  0  0  0
   -0.3241    0.5968   -8.9427 H   0  0  0  0  0  0  0  0  0  0  0  0
    3.8452   -2.5973  -10.4728 H   0  0  0  0  0  0  0  0  0  0  0  0
    4.0829   -4.7094  -11.6883 H   0  0  0  0  0  0  0  0  0  0  0  0
    3.2928   -6.8806  -12.2833 H   0  0  0  0  0  0  0  0  0  0  0  0
    1.5299   -6.9189  -12.4590 H   0  0  0  0  0  0  0  0  0  0  0  0
    2.3133   -7.6787  -11.0446 H   0  0  0  0  0  0  0  0  0  0  0  0
    0.3093   -6.0664  -10.1035 H   0  0  0  0  0  0  0  0  0  0  0  0
    0.0500   -3.9447   -8.8894 H   0  0  0  0  0  0  0  0  0  0  0  0
    5.7404    1.0967   -5.3628 H   0  0  0  0  0  0  0  0  0  0  0  0
    7.1548    5.0225   -0.0799 H   0  0  0  0  0  0  0  0  0  0  0  0
    6.3385    5.8278    2.1378 H   0  0  0  0  0  0  0  0  0  0  0  0
    3.0321    2.9949    3.5238 H   0  0  0  0  0  0  0  0  0  0  0  0
    2.6026   -0.9685    2.5102 H   0  0  0  0  0  0  0  0  0  0  0  0
    0.8605   -0.7601    2.1180 H   0  0  0  0  0  0  0  0  0  0  0  0
    0.3733   -0.7433    4.5664 H   0  0  0  0  0  0  0  0  0  0  0  0
    2.0954   -0.8202    4.9045 H   0  0  0  0  0  0  0  0  0  0  0  0
    2.2259   -3.0070    3.5916 H   0  0  0  0  0  0  0  0  0  0  0  0
    0.5030   -2.8807    3.2816 H   0  0  0  0  0  0  0  0  0  0  0  0
    1.4742   -3.5278    7.2727 H   0  0  0  0  0  0  0  0  0  0  0  0
    2.3095   -2.2185    6.4599 H   0  0  0  0  0  0  0  0  0  0  0  0
    3.7056   -4.4302    6.8310 H   0  0  0  0  0  0  0  0  0  0  0  0
    3.6680   -3.8477    5.1583 H   0  0  0  0  0  0  0  0  0  0  0  0
    2.0415   -6.0691    6.4106 H   0  0  0  0  0  0  0  0  0  0  0  0
    2.8098   -6.0371    4.8120 H   0  0  0  0  0  0  0  0  0  0  0  0
    0.1034   -5.3266    5.4923 H   0  0  0  0  0  0  0  0  0  0  0  0
    0.8457   -5.1098    3.9137 H   0  0  0  0  0  0  0  0  0  0  0  0
  1  2  1  0  0  0  0
  1 48  1  0  0  0  0
  1 49  1  0  0  0  0
  1 50  1  0  0  0  0
  2  3  1  0  0  0  0
  3  4  1  0  0  0  0
  3 38  2  0  0  0  0
  4  5  2  0  0  0  0
  4 51  1  0  0  0  0
  5  6  1  0  0  0  0
  5 36  1  0  0  0  0
  6  7  1  0  0  0  0
  6 33  2  0  0  0  0
  7  8  1  0  0  0  0
  8  9  1  0  0  0  0
  8 31  2  0  0  0  0
  9 10  2  0  0  0  0
  9 52  1  0  0  0  0
 10 11  1  0  0  0  0
 10 53  1  0  0  0  0
 11 12  1  0  0  0  0
 11 30  2  0  0  0  0
 12 13  1  0  0  0  0
 12 54  1  0  0  0  0
 13 14  2  0  0  0  0
 13 55  1  0  0  0  0
 14 15  1  0  0  0  0
 14 28  1  0  0  0  0
 15 16  2  0  0  0  0
 15 17  1  0  0  0  0
 17 18  1  0  0  0  0
 17 56  1  0  0  0  0
 18 19  2  0  0  0  0
 18 20  1  0  0  0  0
 20 21  1  0  0  0  0
 20 28  1  0  0  0  0
 21 22  1  0  0  0  0
 21 27  2  0  0  0  0
 22 23  2  0  0  0  0
 22 57  1  0  0  0  0
 23 24  1  0  0  0  0
 23 58  1  0  0  0  0
 24 25  1  0  0  0  0
 24 26  2  0  0  0  0
 25 59  1  0  0  0  0
 25 60  1  0  0  0  0
 25 61  1  0  0  0  0
 26 27  1  0  0  0  0
 26 62  1  0  0  0  0
 27 63  1  0  0  0  0
 28 29  2  0  0  0  0
 30 31  1  0  0  0  0
 30 64  1  0  0  0  0
 31 32  1  0  0  0  0
 33 34  1  0  0  0  0
 33 65  1  0  0  0  0
 34 35  2  0  0  0  0
 34 66  1  0  0  0  0
 35 36  1  0  0  0  0
 36 37  2  0  0  0  0
 37 38  1  0  0  0  0
 37 67  1  0  0  0  0
 38 39  1  0  0  0  0
 39 40  1  0  0  0  0
 40 41  1  0  0  0  0
 40 68  1  0  0  0  0
 40 69  1  0  0  0  0
 41 42  1  0  0  0  0
 41 70  1  0  0  0  0
 41 71  1  0  0  0  0
 42 43  1  0  0  0  0
 42 72  1  0  0  0  0
 42 73  1  0  0  0  0
 43 44  1  0  0  0  0
 43 47  1  0  0  0  0
 44 45  1  0  0  0  0
 44 74  1  0  0  0  0
 44 75  1  0  0  0  0
 45 46  1  0  0  0  0
 45 76  1  0  0  0  0
 45 77  1  0  0  0  0
 46 47  1  0  0  0  0
 46 78  1  0  0  0  0
 46 79  1  0  0  0  0
 47 80  1  0  0  0  0
 47 81  1  0  0  0  0
M  END
$$$$
