CHEMBL3656101
 OpenBabel04072215373D

 52 55  0  0  0  0  0  0  0  0999 V2000
    2.8173    0.7410   -2.4156 C   0  0  0  0  0  0  0  0  0  0  0  0
    1.4048    0.5026   -1.9551 C   0  0  0  0  0  0  0  0  0  0  0  0
    0.8827   -0.7915   -2.0277 C   0  0  0  0  0  0  0  0  0  0  0  0
   -0.4111   -1.0391   -1.5944 C   0  0  0  0  0  0  0  0  0  0  0  0
   -1.1964   -0.0014   -1.0940 C   0  0  0  0  0  0  0  0  0  0  0  0
   -2.3764   -0.3705   -0.5815 F   0  0  0  0  0  0  0  0  0  0  0  0
   -0.7305    1.3235   -1.0358 C   0  0  0  0  0  0  0  0  0  0  0  0
   -1.5054    2.4392   -0.5690 N   0  0  0  0  0  0  0  0  0  0  0  0
   -2.8891    2.4682   -0.4805 C   0  0  0  0  0  0  0  0  0  0  0  0
   -3.6367    1.5564   -0.8155 O   0  0  0  0  0  0  0  0  0  0  0  0
   -3.4009    3.6941   -0.0310 N   0  0  0  0  0  0  0  0  0  0  0  0
   -4.8152    3.8214    0.0923 C   0  0  0  0  0  0  0  0  0  0  0  0
   -5.5382    2.9393    0.9068 C   0  0  0  0  0  0  0  0  0  0  0  0
   -6.9386    2.9952    0.9662 C   0  0  0  0  0  0  0  0  0  0  0  0
   -7.6445    3.9483    0.2227 C   0  0  0  0  0  0  0  0  0  0  0  0
   -9.4395    4.0186    0.2617 S   0  0  0  0  0  0  0  0  0  0  0  0
   -9.7969    5.2031    1.5555 C   0  0  0  0  0  0  0  0  0  0  0  0
  -10.9319    6.0122    1.5040 C   0  0  0  0  0  0  0  0  0  0  0  0
  -11.1579    6.9120    2.5407 C   0  0  0  0  0  0  0  0  0  0  0  0
  -10.3380    7.0653    3.6060 N   0  0  0  0  0  0  0  0  0  0  0  0
   -9.2502    6.2681    3.6356 C   0  0  0  0  0  0  0  0  0  0  0  0
   -8.3360    6.4664    4.7524 C   0  0  0  0  0  0  0  0  0  0  0  0
   -7.1386    5.8342    5.0479 C   0  0  0  0  0  0  0  0  0  0  0  0
   -6.6259    6.3537    6.2681 C   0  0  0  0  0  0  0  0  0  0  0  0
   -5.4227    5.9875    7.0040 C   0  0  0  0  0  0  0  0  0  0  0  0
   -5.0842    6.5207    8.0600 O   0  0  0  0  0  0  0  0  0  0  0  0
   -4.6740    5.0035    6.4465 O   0  0  0  0  0  0  0  0  0  0  0  0
   -7.5297    7.3286    6.6600 C   0  0  0  0  0  0  0  0  0  0  0  0
   -8.5356    7.4077    5.7321 N   0  0  0  0  0  0  0  0  0  0  0  0
   -8.9666    5.3237    2.6597 C   0  0  0  0  0  0  0  0  0  0  0  0
   -6.9213    4.8303   -0.5897 C   0  0  0  0  0  0  0  0  0  0  0  0
   -5.5159    4.7845   -0.6407 C   0  0  0  0  0  0  0  0  0  0  0  0
    0.5974    1.5542   -1.4584 C   0  0  0  0  0  0  0  0  0  0  0  0
    3.2858   -0.1941   -2.7491 H   0  0  0  0  0  0  0  0  0  0  0  0
    3.4264    1.1333   -1.5952 H   0  0  0  0  0  0  0  0  0  0  0  0
    2.8364    1.4346   -3.2590 H   0  0  0  0  0  0  0  0  0  0  0  0
    1.4816   -1.6180   -2.4051 H   0  0  0  0  0  0  0  0  0  0  0  0
   -0.8207   -2.0448   -1.6183 H   0  0  0  0  0  0  0  0  0  0  0  0
   -1.0025    3.2933   -0.3844 H   0  0  0  0  0  0  0  0  0  0  0  0
   -2.9120    4.4977   -0.4005 H   0  0  0  0  0  0  0  0  0  0  0  0
   -5.0104    2.1833    1.4848 H   0  0  0  0  0  0  0  0  0  0  0  0
   -7.4640    2.2758    1.5912 H   0  0  0  0  0  0  0  0  0  0  0  0
  -11.6323    5.9582    0.6766 H   0  0  0  0  0  0  0  0  0  0  0  0
  -12.0281    7.5641    2.5349 H   0  0  0  0  0  0  0  0  0  0  0  0
   -6.6988    5.0592    4.4361 H   0  0  0  0  0  0  0  0  0  0  0  0
   -5.0433    4.6665    5.6126 H   0  0  0  0  0  0  0  0  0  0  0  0
   -7.5309    7.9730    7.5315 H   0  0  0  0  0  0  0  0  0  0  0  0
   -9.3248    8.0435    5.7509 H   0  0  0  0  0  0  0  0  0  0  0  0
   -8.0926    4.6968    2.7583 H   0  0  0  0  0  0  0  0  0  0  0  0
   -7.4527    5.5432   -1.2162 H   0  0  0  0  0  0  0  0  0  0  0  0
   -4.9970    5.4520   -1.3229 H   0  0  0  0  0  0  0  0  0  0  0  0
    1.0135    2.5585   -1.4302 H   0  0  0  0  0  0  0  0  0  0  0  0
  1  2  1  0  0  0  0
  1 34  1  0  0  0  0
  1 35  1  0  0  0  0
  1 36  1  0  0  0  0
  2  3  1  0  0  0  0
  2 33  2  0  0  0  0
  3  4  2  0  0  0  0
  3 37  1  0  0  0  0
  4  5  1  0  0  0  0
  4 38  1  0  0  0  0
  5  6  1  0  0  0  0
  5  7  2  0  0  0  0
  7  8  1  0  0  0  0
  7 33  1  0  0  0  0
  8  9  1  0  0  0  0
  8 39  1  0  0  0  0
  9 10  2  0  0  0  0
  9 11  1  0  0  0  0
 11 12  1  0  0  0  0
 11 40  1  0  0  0  0
 12 13  1  0  0  0  0
 12 32  2  0  0  0  0
 13 14  2  0  0  0  0
 13 41  1  0  0  0  0
 14 15  1  0  0  0  0
 14 42  1  0  0  0  0
 15 16  1  0  0  0  0
 15 31  2  0  0  0  0
 16 17  1  0  0  0  0
 17 18  1  0  0  0  0
 17 30  2  0  0  0  0
 18 19  2  0  0  0  0
 18 43  1  0  0  0  0
 19 20  1  0  0  0  0
 19 44  1  0  0  0  0
 20 21  2  0  0  0  0
 21 22  1  0  0  0  0
 21 30  1  0  0  0  0
 22 23  2  0  0  0  0
 22 29  1  0  0  0  0
 23 24  1  0  0  0  0
 23 45  1  0  0  0  0
 24 25  1  0  0  0  0
 24 28  2  0  0  0  0
 25 26  2  0  0  0  0
 25 27  1  0  0  0  0
 27 46  1  0  0  0  0
 28 29  1  0  0  0  0
 28 47  1  0  0  0  0
 29 48  1  0  0  0  0
 30 49  1  0  0  0  0
 31 32  1  0  0  0  0
 31 50  1  0  0  0  0
 32 51  1  0  0  0  0
 33 52  1  0  0  0  0
M  END
$$$$
