CHEMBL3949470
 OpenBabel04072215373D

 65 68  0  0  0  0  0  0  0  0999 V2000
    7.3954   -6.7087    1.5984 C   0  0  0  0  0  0  0  0  0  0  0  0
    7.5930   -5.5123    0.8408 O   0  0  0  0  0  0  0  0  0  0  0  0
    6.8927   -5.3920   -0.3374 C   0  0  0  0  0  0  0  0  0  0  0  0
    6.0485   -6.3813   -0.8439 C   0  0  0  0  0  0  0  0  0  0  0  0
    5.3402   -6.1525   -2.0198 C   0  0  0  0  0  0  0  0  0  0  0  0
    4.4624   -7.0297   -2.6006 O   0  0  0  0  0  0  0  0  0  0  0  0
    4.3583   -8.3223   -2.0136 C   0  0  0  0  0  0  0  0  0  0  0  0
    5.4730   -4.9271   -2.6875 C   0  0  0  0  0  0  0  0  0  0  0  0
    6.3072   -3.9015   -2.2173 C   0  0  0  0  0  0  0  0  0  0  0  0
    6.3019   -2.5978   -2.7813 N   0  0  0  0  0  0  0  0  0  0  0  0
    4.9645   -2.1075   -3.3079 C   0  0  0  0  0  0  0  0  0  0  0  0
    3.7351   -2.1626   -2.3785 C   0  0  0  0  0  0  0  0  0  0  0  0
    3.6498   -1.1420   -1.2472 C   0  0  0  0  0  0  0  0  0  0  0  0
    3.6460    0.1907   -1.7427 O   0  0  0  0  0  0  0  0  0  0  0  0
    7.3384   -1.9428   -3.5656 C   0  0  0  0  0  0  0  0  0  0  0  0
    7.3893   -0.5625   -3.3885 C   0  0  0  0  0  0  0  0  0  0  0  0
    7.8720    0.2543   -4.3926 C   0  0  0  0  0  0  0  0  0  0  0  0
    8.4690   -0.2555   -5.5189 C   0  0  0  0  0  0  0  0  0  0  0  0
    8.7265    0.6542   -6.4571 N   0  0  0  0  0  0  0  0  0  0  0  0
    9.5250    0.2976   -7.4693 C   0  0  0  0  0  0  0  0  0  0  0  0
   10.1617   -0.9225   -7.4967 C   0  0  0  0  0  0  0  0  0  0  0  0
   11.4176   -0.9511   -8.2674 C   0  0  0  0  0  0  0  0  0  0  0  0
   11.8352   -1.5571   -9.4786 C   0  0  0  0  0  0  0  0  0  0  0  0
   13.0549   -1.1540   -9.8870 N   0  0  0  0  0  0  0  0  0  0  0  0
   13.4540   -0.2975   -8.9268 N   0  0  0  0  0  0  0  0  0  0  0  0
   14.8673    0.0205   -8.7549 C   0  0  0  0  0  0  0  0  0  0  0  0
   15.4993    1.0039   -9.7403 C   0  0  0  0  0  0  0  0  0  0  0  0
   17.2519    1.1476   -9.3565 S   0  0  0  0  0  0  0  0  0  0  0  0
   17.8960    2.3466  -10.5057 C   0  0  0  0  0  0  0  0  0  0  0  0
   17.3653    1.7270   -8.0305 O   0  0  0  0  0  0  0  0  0  0  0  0
   17.8830   -0.1204   -9.6622 O   0  0  0  0  0  0  0  0  0  0  0  0
   12.4473   -0.0396   -8.0283 C   0  0  0  0  0  0  0  0  0  0  0  0
    9.7695   -1.9317   -6.6351 N   0  0  0  0  0  0  0  0  0  0  0  0
    8.8302   -1.6190   -5.6099 C   0  0  0  0  0  0  0  0  0  0  0  0
    8.1450   -2.4742   -4.6382 C   0  0  0  0  0  0  0  0  0  0  0  0
    7.0284   -4.1691   -1.0324 C   0  0  0  0  0  0  0  0  0  0  0  0
    7.9747   -6.6365    2.5252 H   0  0  0  0  0  0  0  0  0  0  0  0
    7.7587   -7.5891    1.0543 H   0  0  0  0  0  0  0  0  0  0  0  0
    6.3437   -6.8381    1.8849 H   0  0  0  0  0  0  0  0  0  0  0  0
    5.9337   -7.3203   -0.3214 H   0  0  0  0  0  0  0  0  0  0  0  0
    3.6760   -8.9155   -2.6292 H   0  0  0  0  0  0  0  0  0  0  0  0
    3.9332   -8.2652   -1.0057 H   0  0  0  0  0  0  0  0  0  0  0  0
    5.3275   -8.8327   -2.0046 H   0  0  0  0  0  0  0  0  0  0  0  0
    4.8755   -4.7810   -3.5821 H   0  0  0  0  0  0  0  0  0  0  0  0
    4.7335   -2.6662   -4.2230 H   0  0  0  0  0  0  0  0  0  0  0  0
    5.0281   -1.0615   -3.6336 H   0  0  0  0  0  0  0  0  0  0  0  0
    3.5701   -3.1613   -1.9688 H   0  0  0  0  0  0  0  0  0  0  0  0
    2.8740   -1.9535   -3.0312 H   0  0  0  0  0  0  0  0  0  0  0  0
    4.4421   -1.2590   -0.5038 H   0  0  0  0  0  0  0  0  0  0  0  0
    2.6911   -1.2758   -0.7280 H   0  0  0  0  0  0  0  0  0  0  0  0
    4.5670    0.4463   -1.9126 H   0  0  0  0  0  0  0  0  0  0  0  0
    6.9087   -0.1076   -2.5303 H   0  0  0  0  0  0  0  0  0  0  0  0
    7.7416    1.3343   -4.3049 H   0  0  0  0  0  0  0  0  0  0  0  0
    9.7269    1.0695   -8.2068 H   0  0  0  0  0  0  0  0  0  0  0  0
   11.2999   -2.2580  -10.1064 H   0  0  0  0  0  0  0  0  0  0  0  0
   15.3957   -0.9392   -8.7919 H   0  0  0  0  0  0  0  0  0  0  0  0
   14.9826    0.4009   -7.7327 H   0  0  0  0  0  0  0  0  0  0  0  0
   15.0665    2.0049   -9.6504 H   0  0  0  0  0  0  0  0  0  0  0  0
   15.4219    0.6631  -10.7763 H   0  0  0  0  0  0  0  0  0  0  0  0
   17.4669    3.3256  -10.2856 H   0  0  0  0  0  0  0  0  0  0  0  0
   17.6639    2.0339  -11.5246 H   0  0  0  0  0  0  0  0  0  0  0  0
   18.9817    2.3879  -10.3739 H   0  0  0  0  0  0  0  0  0  0  0  0
   12.5669    0.7210   -7.2680 H   0  0  0  0  0  0  0  0  0  0  0  0
    8.2214   -3.5512   -4.7583 H   0  0  0  0  0  0  0  0  0  0  0  0
    7.6585   -3.3953   -0.5983 H   0  0  0  0  0  0  0  0  0  0  0  0
  1  2  1  0  0  0  0
  1 37  1  0  0  0  0
  1 38  1  0  0  0  0
  1 39  1  0  0  0  0
  2  3  1  0  0  0  0
  3  4  1  0  0  0  0
  3 36  2  0  0  0  0
  4  5  2  0  0  0  0
  4 40  1  0  0  0  0
  5  6  1  0  0  0  0
  5  8  1  0  0  0  0
  6  7  1  0  0  0  0
  7 41  1  0  0  0  0
  7 42  1  0  0  0  0
  7 43  1  0  0  0  0
  8  9  2  0  0  0  0
  8 44  1  0  0  0  0
  9 10  1  0  0  0  0
  9 36  1  0  0  0  0
 10 11  1  0  0  0  0
 10 15  1  0  0  0  0
 11 12  1  0  0  0  0
 11 45  1  0  0  0  0
 11 46  1  0  0  0  0
 12 13  1  0  0  0  0
 12 47  1  0  0  0  0
 12 48  1  0  0  0  0
 13 14  1  0  0  0  0
 13 49  1  0  0  0  0
 13 50  1  0  0  0  0
 14 51  1  0  0  0  0
 15 16  1  0  0  0  0
 15 35  2  0  0  0  0
 16 17  2  0  0  0  0
 16 52  1  0  0  0  0
 17 18  1  0  0  0  0
 17 53  1  0  0  0  0
 18 19  1  0  0  0  0
 18 34  2  0  0  0  0
 19 20  2  0  0  0  0
 20 21  1  0  0  0  0
 20 54  1  0  0  0  0
 21 22  1  0  0  0  0
 21 33  2  0  0  0  0
 22 23  1  0  0  0  0
 22 32  2  0  0  0  0
 23 24  2  0  0  0  0
 23 55  1  0  0  0  0
 24 25  1  0  0  0  0
 25 26  1  0  0  0  0
 25 32  1  0  0  0  0
 26 27  1  0  0  0  0
 26 56  1  0  0  0  0
 26 57  1  0  0  0  0
 27 28  1  0  0  0  0
 27 58  1  0  0  0  0
 27 59  1  0  0  0  0
 28 29  1  0  0  0  0
 28 30  2  0  0  0  0
 28 31  2  0  0  0  0
 29 60  1  0  0  0  0
 29 61  1  0  0  0  0
 29 62  1  0  0  0  0
 32 63  1  0  0  0  0
 33 34  1  0  0  0  0
 34 35  1  0  0  0  0
 35 64  1  0  0  0  0
 36 65  1  0  0  0  0
M  END
$$$$
