CHEMBL216693
 OpenBabel04072215363D

 73 78  0  0  0  0  0  0  0  0999 V2000
   -4.6166   -4.8616   -3.2454 C   0  0  0  0  0  0  0  0  0  0  0  0
   -5.4220   -5.0164   -2.0404 N   0  0  0  0  0  0  0  0  0  0  0  0
   -4.7244   -5.8290   -1.0303 C   0  0  0  0  0  0  0  0  0  0  0  0
   -5.5888   -5.9848    0.2396 C   0  0  0  0  0  0  0  0  0  0  0  0
   -5.9477   -4.7053    0.8860 N   0  0  0  0  0  0  0  0  0  0  0  0
   -4.8052   -4.0082    1.4964 C   0  0  0  0  0  0  0  0  0  0  0  0
   -4.0949   -4.8211    2.5879 C   0  0  0  0  0  0  0  0  0  0  0  0
   -2.9334   -4.0240    3.1737 C   0  0  0  0  0  0  0  0  0  0  0  0
   -3.4153   -2.8797    3.8737 O   0  0  0  0  0  0  0  0  0  0  0  0
   -3.7900   -3.0412    5.1762 C   0  0  0  0  0  0  0  0  0  0  0  0
   -4.2855   -1.8969    5.7780 C   0  0  0  0  0  0  0  0  0  0  0  0
   -4.5960   -1.8792    7.1450 C   0  0  0  0  0  0  0  0  0  0  0  0
   -4.9533   -0.7076    7.7830 O   0  0  0  0  0  0  0  0  0  0  0  0
   -4.3828    0.4911    7.2285 C   0  0  0  0  0  0  0  0  0  0  0  0
   -3.8186    1.3597    8.3499 C   0  0  0  0  0  0  0  0  0  0  0  0
   -3.2499    2.6323    7.7375 C   0  0  0  0  0  0  0  0  0  0  0  0
   -4.2560    3.3356    7.0067 O   0  0  0  0  0  0  0  0  0  0  0  0
   -4.7936    2.5704    5.9274 C   0  0  0  0  0  0  0  0  0  0  0  0
   -5.4277    1.2846    6.4440 C   0  0  0  0  0  0  0  0  0  0  0  0
   -4.5093   -3.0885    7.9090 C   0  0  0  0  0  0  0  0  0  0  0  0
   -4.8566   -3.3082    9.2674 C   0  0  0  0  0  0  0  0  0  0  0  0
   -5.5231   -2.3134   10.0172 N   0  0  0  0  0  0  0  0  0  0  0  0
   -6.2606   -2.5414   11.2026 C   0  0  0  0  0  0  0  0  0  0  0  0
   -6.1733   -1.6825   12.3155 C   0  0  0  0  0  0  0  0  0  0  0  0
   -5.1784   -0.2667   12.2569 Cl  0  0  0  0  0  0  0  0  0  0  0  0
   -6.8806   -1.9437   13.5105 C   0  0  0  0  0  0  0  0  0  0  0  0
   -7.6941   -3.0729   13.6228 C   0  0  0  0  0  0  0  0  0  0  0  0
   -7.7971   -3.8933   12.5224 C   0  0  0  0  0  0  0  0  0  0  0  0
   -7.1187   -3.6323   11.3497 C   0  0  0  0  0  0  0  0  0  0  0  0
   -7.4396   -4.5431   10.3810 O   0  0  0  0  0  0  0  0  0  0  0  0
   -8.3420   -5.4094   11.0835 C   0  0  0  0  0  0  0  0  0  0  0  0
   -8.5689   -5.0116   12.4494 O   0  0  0  0  0  0  0  0  0  0  0  0
   -4.6286   -4.4886    9.8855 N   0  0  0  0  0  0  0  0  0  0  0  0
   -4.1528   -5.4871    9.1495 C   0  0  0  0  0  0  0  0  0  0  0  0
   -3.8531   -5.4201    7.8549 N   0  0  0  0  0  0  0  0  0  0  0  0
   -4.0254   -4.2370    7.2642 C   0  0  0  0  0  0  0  0  0  0  0  0
   -3.6866   -4.2006    5.9271 C   0  0  0  0  0  0  0  0  0  0  0  0
   -6.5908   -3.8451   -0.1392 C   0  0  0  0  0  0  0  0  0  0  0  0
   -5.8033   -3.7100   -1.4705 C   0  0  0  0  0  0  0  0  0  0  0  0
   -4.3631   -5.8421   -3.6646 H   0  0  0  0  0  0  0  0  0  0  0  0
   -3.6847   -4.3172   -3.0577 H   0  0  0  0  0  0  0  0  0  0  0  0
   -5.1810   -4.3266   -4.0165 H   0  0  0  0  0  0  0  0  0  0  0  0
   -3.7517   -5.3878   -0.7739 H   0  0  0  0  0  0  0  0  0  0  0  0
   -4.5251   -6.8287   -1.4328 H   0  0  0  0  0  0  0  0  0  0  0  0
   -5.0980   -6.6630    0.9447 H   0  0  0  0  0  0  0  0  0  0  0  0
   -6.5203   -6.5017   -0.0312 H   0  0  0  0  0  0  0  0  0  0  0  0
   -5.1800   -3.0833    1.9534 H   0  0  0  0  0  0  0  0  0  0  0  0
   -4.0679   -3.7051    0.7444 H   0  0  0  0  0  0  0  0  0  0  0  0
   -3.6847   -5.7512    2.1860 H   0  0  0  0  0  0  0  0  0  0  0  0
   -4.8212   -5.0804    3.3672 H   0  0  0  0  0  0  0  0  0  0  0  0
   -2.2965   -3.6553    2.3610 H   0  0  0  0  0  0  0  0  0  0  0  0
   -2.2732   -4.6444    3.7896 H   0  0  0  0  0  0  0  0  0  0  0  0
   -4.3988   -1.0192    5.1496 H   0  0  0  0  0  0  0  0  0  0  0  0
   -3.5240    0.2672    6.5824 H   0  0  0  0  0  0  0  0  0  0  0  0
   -3.0445    0.8119    8.8990 H   0  0  0  0  0  0  0  0  0  0  0  0
   -4.6126    1.5982    9.0673 H   0  0  0  0  0  0  0  0  0  0  0  0
   -2.4090    2.4099    7.0682 H   0  0  0  0  0  0  0  0  0  0  0  0
   -2.8776    3.2960    8.5229 H   0  0  0  0  0  0  0  0  0  0  0  0
   -3.9985    2.3566    5.2023 H   0  0  0  0  0  0  0  0  0  0  0  0
   -5.5428    3.1854    5.4190 H   0  0  0  0  0  0  0  0  0  0  0  0
   -5.8370    0.7019    5.6131 H   0  0  0  0  0  0  0  0  0  0  0  0
   -6.2745    1.5235    7.0997 H   0  0  0  0  0  0  0  0  0  0  0  0
   -5.0175   -1.4337    9.9977 H   0  0  0  0  0  0  0  0  0  0  0  0
   -6.7961   -1.2650   14.3559 H   0  0  0  0  0  0  0  0  0  0  0  0
   -8.2399   -3.2919   14.5343 H   0  0  0  0  0  0  0  0  0  0  0  0
   -7.9378   -6.4285   11.0709 H   0  0  0  0  0  0  0  0  0  0  0  0
   -9.3032   -5.4088   10.5573 H   0  0  0  0  0  0  0  0  0  0  0  0
   -4.0041   -6.4400    9.6426 H   0  0  0  0  0  0  0  0  0  0  0  0
   -3.3336   -5.1294    5.4911 H   0  0  0  0  0  0  0  0  0  0  0  0
   -6.7896   -2.8475    0.2729 H   0  0  0  0  0  0  0  0  0  0  0  0
   -7.5777   -4.2714   -0.3618 H   0  0  0  0  0  0  0  0  0  0  0  0
   -4.9126   -3.0901   -1.3034 H   0  0  0  0  0  0  0  0  0  0  0  0
   -6.4367   -3.1740   -2.1877 H   0  0  0  0  0  0  0  0  0  0  0  0
  1  2  1  0  0  0  0
  1 40  1  0  0  0  0
  1 41  1  0  0  0  0
  1 42  1  0  0  0  0
  2  3  1  0  0  0  0
  2 39  1  0  0  0  0
  3  4  1  0  0  0  0
  3 43  1  0  0  0  0
  3 44  1  0  0  0  0
  4  5  1  0  0  0  0
  4 45  1  0  0  0  0
  4 46  1  0  0  0  0
  5  6  1  0  0  0  0
  5 38  1  0  0  0  0
  6  7  1  0  0  0  0
  6 47  1  0  0  0  0
  6 48  1  0  0  0  0
  7  8  1  0  0  0  0
  7 49  1  0  0  0  0
  7 50  1  0  0  0  0
  8  9  1  0  0  0  0
  8 51  1  0  0  0  0
  8 52  1  0  0  0  0
  9 10  1  0  0  0  0
 10 11  1  0  0  0  0
 10 37  2  0  0  0  0
 11 12  2  0  0  0  0
 11 53  1  0  0  0  0
 12 13  1  0  0  0  0
 12 20  1  0  0  0  0
 13 14  1  0  0  0  0
 14 15  1  0  0  0  0
 14 19  1  0  0  0  0
 14 54  1  0  0  0  0
 15 16  1  0  0  0  0
 15 55  1  0  0  0  0
 15 56  1  0  0  0  0
 16 17  1  0  0  0  0
 16 57  1  0  0  0  0
 16 58  1  0  0  0  0
 17 18  1  0  0  0  0
 18 19  1  0  0  0  0
 18 59  1  0  0  0  0
 18 60  1  0  0  0  0
 19 61  1  0  0  0  0
 19 62  1  0  0  0  0
 20 21  1  0  0  0  0
 20 36  2  0  0  0  0
 21 22  1  0  0  0  0
 21 33  2  0  0  0  0
 22 23  1  0  0  0  0
 22 63  1  0  0  0  0
 23 24  1  0  0  0  0
 23 29  2  0  0  0  0
 24 25  1  0  0  0  0
 24 26  2  0  0  0  0
 26 27  1  0  0  0  0
 26 64  1  0  0  0  0
 27 28  2  0  0  0  0
 27 65  1  0  0  0  0
 28 29  1  0  0  0  0
 28 32  1  0  0  0  0
 29 30  1  0  0  0  0
 30 31  1  0  0  0  0
 31 32  1  0  0  0  0
 31 66  1  0  0  0  0
 31 67  1  0  0  0  0
 33 34  1  0  0  0  0
 34 35  2  0  0  0  0
 34 68  1  0  0  0  0
 35 36  1  0  0  0  0
 36 37  1  0  0  0  0
 37 69  1  0  0  0  0
 38 39  1  0  0  0  0
 38 70  1  0  0  0  0
 38 71  1  0  0  0  0
 39 72  1  0  0  0  0
 39 73  1  0  0  0  0
M  END
$$$$
