CHEMBL4635284
 OpenBabel04072215383D

 99104  0  0  0  0  0  0  0  0999 V2000
   -0.5278   -2.7038    2.4478 C   0  0  0  0  0  0  0  0  0  0  0  0
    0.9180   -2.9213    2.0296 C   0  0  0  0  0  0  0  0  0  0  0  0
    1.3331   -4.2853    2.4058 N   0  0  0  0  0  0  0  0  0  0  0  0
    2.9298   -4.7396    1.9926 S   0  0  0  0  0  0  0  0  0  0  0  0
    3.7539   -3.5547    1.9881 O   0  0  0  0  0  0  0  0  0  0  0  0
    3.2607   -5.8967    2.8041 O   0  0  0  0  0  0  0  0  0  0  0  0
    2.7521   -5.3191    0.3311 C   0  0  0  0  0  0  0  0  0  0  0  0
    1.9144   -6.4454    0.1519 C   0  0  0  0  0  0  0  0  0  0  0  0
    1.6051   -6.9065   -1.1221 C   0  0  0  0  0  0  0  0  0  0  0  0
    2.1488   -6.2666   -2.2269 C   0  0  0  0  0  0  0  0  0  0  0  0
    3.0372   -5.2024   -2.0416 C   0  0  0  0  0  0  0  0  0  0  0  0
    3.3585   -4.6901   -0.7674 C   0  0  0  0  0  0  0  0  0  0  0  0
    4.3309   -3.6578   -0.6774 N   0  0  0  0  0  0  0  0  0  0  0  0
    4.4395   -2.5878   -1.6071 C   0  0  0  0  0  0  0  0  0  0  0  0
    3.2906   -2.2252   -2.1977 N   0  0  0  0  0  0  0  0  0  0  0  0
    3.2784   -1.2119   -3.0697 C   0  0  0  0  0  0  0  0  0  0  0  0
    2.0852   -0.8689   -3.6748 N   0  0  0  0  0  0  0  0  0  0  0  0
    0.9563   -1.6725   -3.8496 C   0  0  0  0  0  0  0  0  0  0  0  0
    1.0271   -3.0259   -4.1715 C   0  0  0  0  0  0  0  0  0  0  0  0
   -0.1339   -3.8037   -4.2611 C   0  0  0  0  0  0  0  0  0  0  0  0
   -1.4080   -3.2635   -4.0172 C   0  0  0  0  0  0  0  0  0  0  0  0
   -2.4978   -4.1594   -3.9986 N   0  0  0  0  0  0  0  0  0  0  0  0
   -3.5952   -3.8390   -3.0844 C   0  0  0  0  0  0  0  0  0  0  0  0
   -4.3430   -5.1294   -2.7902 C   0  0  0  0  0  0  0  0  0  0  0  0
   -4.9767   -5.7563   -4.0538 C   0  0  0  0  0  0  0  0  0  0  0  0
   -6.2379   -5.1346   -4.5553 N   0  0  0  0  0  0  0  0  0  0  0  0
   -7.1519   -4.6188   -3.5096 C   0  0  0  0  0  0  0  0  0  0  0  0
   -7.7841   -5.7039   -2.6069 C   0  0  0  0  0  0  0  0  0  0  0  0
   -8.5405   -6.7224   -3.3518 N   0  0  0  0  0  0  0  0  0  0  0  0
   -8.8824   -7.8421   -2.4691 C   0  0  0  0  0  0  0  0  0  0  0  0
   -7.8023   -7.1996   -4.5369 C   0  0  0  0  0  0  0  0  0  0  0  0
   -7.0538   -6.0999   -5.3501 C   0  0  0  0  0  0  0  0  0  0  0  0
   -3.8819   -5.8301   -5.1618 C   0  0  0  0  0  0  0  0  0  0  0  0
   -2.9957   -4.5801   -5.3184 C   0  0  0  0  0  0  0  0  0  0  0  0
   -1.4723   -1.8759   -3.7353 C   0  0  0  0  0  0  0  0  0  0  0  0
   -2.7050   -1.3088   -3.5122 O   0  0  0  0  0  0  0  0  0  0  0  0
   -2.7972    0.0950   -3.7187 C   0  0  0  0  0  0  0  0  0  0  0  0
   -0.2981   -1.1103   -3.6467 C   0  0  0  0  0  0  0  0  0  0  0  0
    4.3518   -0.4927   -3.3668 N   0  0  0  0  0  0  0  0  0  0  0  0
    5.5013   -0.8953   -2.7913 C   0  0  0  0  0  0  0  0  0  0  0  0
    5.6454   -1.9484   -1.8864 C   0  0  0  0  0  0  0  0  0  0  0  0
    6.9867   -2.3177   -1.3825 C   0  0  0  0  0  0  0  0  0  0  0  0
    7.9742   -1.3297   -1.1895 C   0  0  0  0  0  0  0  0  0  0  0  0
    9.2659   -1.6440   -0.7608 C   0  0  0  0  0  0  0  0  0  0  0  0
   10.2719   -0.7379   -0.5522 O   0  0  0  0  0  0  0  0  0  0  0  0
    9.9665    0.6305   -0.8052 C   0  0  0  0  0  0  0  0  0  0  0  0
    9.5982   -2.9743   -0.5054 C   0  0  0  0  0  0  0  0  0  0  0  0
    8.6488   -3.9793   -0.6792 C   0  0  0  0  0  0  0  0  0  0  0  0
    8.8395   -5.3148   -0.4481 O   0  0  0  0  0  0  0  0  0  0  0  0
   10.1008   -5.7071    0.0780 C   0  0  0  0  0  0  0  0  0  0  0  0
    7.3645   -3.6462   -1.1313 C   0  0  0  0  0  0  0  0  0  0  0  0
   -0.8345   -1.6743    2.2373 H   0  0  0  0  0  0  0  0  0  0  0  0
   -0.6659   -2.8863    3.5199 H   0  0  0  0  0  0  0  0  0  0  0  0
   -1.2025   -3.3760    1.9075 H   0  0  0  0  0  0  0  0  0  0  0  0
    1.5483   -2.1974    2.5583 H   0  0  0  0  0  0  0  0  0  0  0  0
    1.0149   -2.7726    0.9511 H   0  0  0  0  0  0  0  0  0  0  0  0
    0.6694   -4.9985    2.0912 H   0  0  0  0  0  0  0  0  0  0  0  0
    1.5022   -6.9658    1.0144 H   0  0  0  0  0  0  0  0  0  0  0  0
    0.9419   -7.7546   -1.2577 H   0  0  0  0  0  0  0  0  0  0  0  0
    1.9005   -6.5936   -3.2310 H   0  0  0  0  0  0  0  0  0  0  0  0
    3.4813   -4.7544   -2.9320 H   0  0  0  0  0  0  0  0  0  0  0  0
    4.4883   -3.3077    0.2725 H   0  0  0  0  0  0  0  0  0  0  0  0
    2.1663   -0.0396   -4.2435 H   0  0  0  0  0  0  0  0  0  0  0  0
    1.9937   -3.4954   -4.3372 H   0  0  0  0  0  0  0  0  0  0  0  0
   -0.0314   -4.8676   -4.4675 H   0  0  0  0  0  0  0  0  0  0  0  0
   -4.2785   -3.1013   -3.5224 H   0  0  0  0  0  0  0  0  0  0  0  0
   -3.2088   -3.4490   -2.1349 H   0  0  0  0  0  0  0  0  0  0  0  0
   -5.0735   -4.9532   -1.9972 H   0  0  0  0  0  0  0  0  0  0  0  0
   -3.6355   -5.8568   -2.3687 H   0  0  0  0  0  0  0  0  0  0  0  0
   -5.2115   -6.7904   -3.7690 H   0  0  0  0  0  0  0  0  0  0  0  0
   -7.9632   -4.0682   -4.0077 H   0  0  0  0  0  0  0  0  0  0  0  0
   -6.6583   -3.8588   -2.8954 H   0  0  0  0  0  0  0  0  0  0  0  0
   -8.4711   -5.2054   -1.9112 H   0  0  0  0  0  0  0  0  0  0  0  0
   -7.0027   -6.1766   -2.0005 H   0  0  0  0  0  0  0  0  0  0  0  0
   -9.3873   -7.4887   -1.5622 H   0  0  0  0  0  0  0  0  0  0  0  0
   -7.9925   -8.4036   -2.1556 H   0  0  0  0  0  0  0  0  0  0  0  0
   -9.5679   -8.5368   -2.9657 H   0  0  0  0  0  0  0  0  0  0  0  0
   -8.5222   -7.6847   -5.2095 H   0  0  0  0  0  0  0  0  0  0  0  0
   -7.0750   -7.9685   -4.2495 H   0  0  0  0  0  0  0  0  0  0  0  0
   -7.8040   -5.5196   -5.9053 H   0  0  0  0  0  0  0  0  0  0  0  0
   -6.4447   -6.5869   -6.1190 H   0  0  0  0  0  0  0  0  0  0  0  0
   -4.3173   -6.0763   -6.1410 H   0  0  0  0  0  0  0  0  0  0  0  0
   -3.2259   -6.6755   -4.9143 H   0  0  0  0  0  0  0  0  0  0  0  0
   -3.5593   -3.7640   -5.7910 H   0  0  0  0  0  0  0  0  0  0  0  0
   -2.1634   -4.8345   -5.9870 H   0  0  0  0  0  0  0  0  0  0  0  0
   -3.8522    0.3711   -3.6708 H   0  0  0  0  0  0  0  0  0  0  0  0
   -2.4156    0.3734   -4.7072 H   0  0  0  0  0  0  0  0  0  0  0  0
   -2.2806    0.6463   -2.9255 H   0  0  0  0  0  0  0  0  0  0  0  0
   -0.3264   -0.0700   -3.3428 H   0  0  0  0  0  0  0  0  0  0  0  0
    6.3622   -0.3176   -3.1297 H   0  0  0  0  0  0  0  0  0  0  0  0
    7.7168   -0.2935   -1.3778 H   0  0  0  0  0  0  0  0  0  0  0  0
   10.8246    1.2332   -0.4940 H   0  0  0  0  0  0  0  0  0  0  0  0
    9.1039    0.9663   -0.2194 H   0  0  0  0  0  0  0  0  0  0  0  0
    9.8049    0.7992   -1.8753 H   0  0  0  0  0  0  0  0  0  0  0  0
   10.6062   -3.1926   -0.1699 H   0  0  0  0  0  0  0  0  0  0  0  0
   10.0321   -6.7633    0.3557 H   0  0  0  0  0  0  0  0  0  0  0  0
   10.3578   -5.1476    0.9834 H   0  0  0  0  0  0  0  0  0  0  0  0
   10.8803   -5.6076   -0.6839 H   0  0  0  0  0  0  0  0  0  0  0  0
    6.6629   -4.4637   -1.2939 H   0  0  0  0  0  0  0  0  0  0  0  0
  1  2  1  0  0  0  0
  1 52  1  0  0  0  0
  1 53  1  0  0  0  0
  1 54  1  0  0  0  0
  2  3  1  0  0  0  0
  2 55  1  0  0  0  0
  2 56  1  0  0  0  0
  3  4  1  0  0  0  0
  3 57  1  0  0  0  0
  4  5  2  0  0  0  0
  4  6  2  0  0  0  0
  4  7  1  0  0  0  0
  7  8  1  0  0  0  0
  7 12  2  0  0  0  0
  8  9  2  0  0  0  0
  8 58  1  0  0  0  0
  9 10  1  0  0  0  0
  9 59  1  0  0  0  0
 10 11  2  0  0  0  0
 10 60  1  0  0  0  0
 11 12  1  0  0  0  0
 11 61  1  0  0  0  0
 12 13  1  0  0  0  0
 13 14  1  0  0  0  0
 13 62  1  0  0  0  0
 14 15  1  0  0  0  0
 14 41  2  0  0  0  0
 15 16  2  0  0  0  0
 16 17  1  0  0  0  0
 16 39  1  0  0  0  0
 17 18  1  0  0  0  0
 17 63  1  0  0  0  0
 18 19  1  0  0  0  0
 18 38  2  0  0  0  0
 19 20  2  0  0  0  0
 19 64  1  0  0  0  0
 20 21  1  0  0  0  0
 20 65  1  0  0  0  0
 21 22  1  0  0  0  0
 21 35  2  0  0  0  0
 22 23  1  0  0  0  0
 22 34  1  0  0  0  0
 23 24  1  0  0  0  0
 23 66  1  0  0  0  0
 23 67  1  0  0  0  0
 24 25  1  0  0  0  0
 24 68  1  0  0  0  0
 24 69  1  0  0  0  0
 25 26  1  0  0  0  0
 25 33  1  0  0  0  0
 25 70  1  0  0  0  0
 26 27  1  0  0  0  0
 26 32  1  0  0  0  0
 27 28  1  0  0  0  0
 27 71  1  0  0  0  0
 27 72  1  0  0  0  0
 28 29  1  0  0  0  0
 28 73  1  0  0  0  0
 28 74  1  0  0  0  0
 29 30  1  0  0  0  0
 29 31  1  0  0  0  0
 30 75  1  0  0  0  0
 30 76  1  0  0  0  0
 30 77  1  0  0  0  0
 31 32  1  0  0  0  0
 31 78  1  0  0  0  0
 31 79  1  0  0  0  0
 32 80  1  0  0  0  0
 32 81  1  0  0  0  0
 33 34  1  0  0  0  0
 33 82  1  0  0  0  0
 33 83  1  0  0  0  0
 34 84  1  0  0  0  0
 34 85  1  0  0  0  0
 35 36  1  0  0  0  0
 35 38  1  0  0  0  0
 36 37  1  0  0  0  0
 37 86  1  0  0  0  0
 37 87  1  0  0  0  0
 37 88  1  0  0  0  0
 38 89  1  0  0  0  0
 39 40  2  0  0  0  0
 40 41  1  0  0  0  0
 40 90  1  0  0  0  0
 41 42  1  0  0  0  0
 42 43  1  0  0  0  0
 42 51  2  0  0  0  0
 43 44  2  0  0  0  0
 43 91  1  0  0  0  0
 44 45  1  0  0  0  0
 44 47  1  0  0  0  0
 45 46  1  0  0  0  0
 46 92  1  0  0  0  0
 46 93  1  0  0  0  0
 46 94  1  0  0  0  0
 47 48  2  0  0  0  0
 47 95  1  0  0  0  0
 48 49  1  0  0  0  0
 48 51  1  0  0  0  0
 49 50  1  0  0  0  0
 50 96  1  0  0  0  0
 50 97  1  0  0  0  0
 50 98  1  0  0  0  0
 51 99  1  0  0  0  0
M  END
$$$$
