CHEMBL370493
 OpenBabel04072215373D

 59 65  0  0  1  0  0  0  0  0999 V2000
    2.3290   -0.4201    3.9431 C   0  0  0  0  0  0  0  0  0  0  0  0
    2.8901   -1.3070    2.8209 C   0  0  0  0  0  0  0  0  0  0  0  0
    2.7587   -2.7729    3.2573 C   0  0  0  0  0  0  0  0  0  0  0  0
    4.3227   -1.0286    2.6944 O   0  0  0  0  0  0  0  0  0  0  0  0
    4.6665   -0.8813    1.2961 C   0  0  1  0  0  0  0  0  0  0  0  0
    5.9061   -1.5868    0.9082 N   0  0  0  0  0  0  0  0  0  0  0  0
    6.3971   -1.5349   -0.4284 C   0  0  0  0  0  0  0  0  0  0  0  0
    6.0366   -0.7126   -1.5150 C   0  0  0  0  0  0  0  0  0  0  0  0
    6.6537   -0.9187   -2.7558 C   0  0  0  0  0  0  0  0  0  0  0  0
    7.6160   -1.9052   -2.9234 C   0  0  0  0  0  0  0  0  0  0  0  0
    7.9797   -2.7185   -1.8533 C   0  0  0  0  0  0  0  0  0  0  0  0
    7.3769   -2.5378   -0.5970 C   0  0  0  0  0  0  0  0  0  0  0  0
    7.4424   -3.1308    0.6467 C   0  0  0  0  0  0  0  0  0  0  0  0
    8.3258   -4.1692    1.0274 C   0  0  0  0  0  0  0  0  0  0  0  0
    8.1122   -4.7750    2.2938 C   0  0  0  0  0  0  0  0  0  0  0  0
    7.0203   -4.3227    3.1007 C   0  0  0  0  0  0  0  0  0  0  0  0
    6.8766   -4.6893    4.4177 C   0  0  0  0  0  0  0  0  0  0  0  0
    6.5563   -5.8418    5.1465 C   0  0  0  0  0  0  0  0  0  0  0  0
    6.5757   -5.7592    6.5387 C   0  0  0  0  0  0  0  0  0  0  0  0
    7.0581   -4.6088    7.1650 C   0  0  0  0  0  0  0  0  0  0  0  0
    7.2651   -3.4209    6.4459 C   0  0  0  0  0  0  0  0  0  0  0  0
    6.9562   -3.4614    5.0821 C   0  0  0  0  0  0  0  0  0  0  0  0
    6.6305   -2.4742    4.1375 N   0  0  0  0  0  0  0  0  0  0  0  0
    6.6743   -3.0288    2.8806 C   0  0  0  0  0  0  0  0  0  0  0  0
    6.6339   -2.5431    1.5864 C   0  0  0  0  0  0  0  0  0  0  0  0
    9.2204   -5.6858    2.6403 C   0  0  0  0  0  0  0  0  0  0  0  0
    9.9578   -5.6571    1.3872 N   0  0  0  0  0  0  0  0  0  0  0  0
    9.5176   -4.7319    0.4442 C   0  0  0  0  0  0  0  0  0  0  0  0
   10.1580   -4.5331   -0.5876 O   0  0  0  0  0  0  0  0  0  0  0  0
    3.4345   -1.3100    0.4949 C   0  0  0  0  0  0  0  0  0  0  0  0
    2.2754   -1.0067    1.4278 C   0  0  2  0  0  0  0  0  0  0  0  0
    1.9398    0.3899    1.2709 O   0  0  0  0  0  0  0  0  0  0  0  0
    1.0099   -1.7919    1.0380 C   0  0  0  0  0  0  0  0  0  0  0  0
   -0.0599   -1.5312    1.9431 O   0  0  0  0  0  0  0  0  0  0  0  0
    2.8150   -0.6472    4.8985 H   0  0  0  0  0  0  0  0  0  0  0  0
    1.2503   -0.5638    4.0694 H   0  0  0  0  0  0  0  0  0  0  0  0
    2.5141    0.6435    3.7627 H   0  0  0  0  0  0  0  0  0  0  0  0
    3.4763   -3.0069    4.0512 H   0  0  0  0  0  0  0  0  0  0  0  0
    2.9690   -3.4639    2.4356 H   0  0  0  0  0  0  0  0  0  0  0  0
    1.7529   -2.9893    3.6360 H   0  0  0  0  0  0  0  0  0  0  0  0
    4.8787    0.1841    1.1467 H   0  0  0  0  0  0  0  0  0  0  0  0
    5.2900    0.0675   -1.4198 H   0  0  0  0  0  0  0  0  0  0  0  0
    6.3756   -0.3007   -3.6062 H   0  0  0  0  0  0  0  0  0  0  0  0
    8.0902   -2.0556   -3.8904 H   0  0  0  0  0  0  0  0  0  0  0  0
    8.7236   -3.4910   -2.0190 H   0  0  0  0  0  0  0  0  0  0  0  0
    6.1827   -6.7268    4.6398 H   0  0  0  0  0  0  0  0  0  0  0  0
    6.2207   -6.5980    7.1322 H   0  0  0  0  0  0  0  0  0  0  0  0
    7.2075   -4.6169    8.2425 H   0  0  0  0  0  0  0  0  0  0  0  0
    7.5959   -2.5159    6.9423 H   0  0  0  0  0  0  0  0  0  0  0  0
    6.4935   -1.4967    4.3457 H   0  0  0  0  0  0  0  0  0  0  0  0
    8.9150   -6.7024    2.8716 H   0  0  0  0  0  0  0  0  0  0  0  0
    9.8570   -5.2550    3.4289 H   0  0  0  0  0  0  0  0  0  0  0  0
   10.8630   -6.0953    1.2634 H   0  0  0  0  0  0  0  0  0  0  0  0
    3.4804   -2.3799    0.2607 H   0  0  0  0  0  0  0  0  0  0  0  0
    3.3563   -0.7592   -0.4480 H   0  0  0  0  0  0  0  0  0  0  0  0
    2.6242    0.9336    1.6982 H   0  0  0  0  0  0  0  0  0  0  0  0
    0.6631   -1.4932    0.0413 H   0  0  0  0  0  0  0  0  0  0  0  0
    1.1801   -2.8720    1.0155 H   0  0  0  0  0  0  0  0  0  0  0  0
   -0.2737   -0.5852    1.8351 H   0  0  0  0  0  0  0  0  0  0  0  0
  1  2  1  0  0  0  0
  1 35  1  0  0  0  0
  1 36  1  0  0  0  0
  1 37  1  0  0  0  0
  2  3  1  0  0  0  0
  2  4  1  0  0  0  0
  2 31  1  0  0  0  0
  3 38  1  0  0  0  0
  3 39  1  0  0  0  0
  3 40  1  0  0  0  0
  4  5  1  0  0  0  0
  5  6  1  0  0  0  0
  5 30  1  0  0  0  0
  5 41  1  6  0  0  0
  6  7  1  0  0  0  0
  6 25  1  0  0  0  0
  7  8  1  0  0  0  0
  7 12  2  0  0  0  0
  8  9  2  0  0  0  0
  8 42  1  0  0  0  0
  9 10  1  0  0  0  0
  9 43  1  0  0  0  0
 10 11  2  0  0  0  0
 10 44  1  0  0  0  0
 11 12  1  0  0  0  0
 11 45  1  0  0  0  0
 12 13  1  0  0  0  0
 13 14  1  0  0  0  0
 13 25  2  0  0  0  0
 14 15  2  0  0  0  0
 14 28  1  0  0  0  0
 15 16  1  0  0  0  0
 15 26  1  0  0  0  0
 16 17  1  0  0  0  0
 16 24  2  0  0  0  0
 17 18  1  0  0  0  0
 17 22  2  0  0  0  0
 18 19  2  0  0  0  0
 18 46  1  0  0  0  0
 19 20  1  0  0  0  0
 19 47  1  0  0  0  0
 20 21  2  0  0  0  0
 20 48  1  0  0  0  0
 21 22  1  0  0  0  0
 21 49  1  0  0  0  0
 22 23  1  0  0  0  0
 23 24  1  0  0  0  0
 23 50  1  0  0  0  0
 24 25  1  0  0  0  0
 26 27  1  0  0  0  0
 26 51  1  0  0  0  0
 26 52  1  0  0  0  0
 27 28  1  0  0  0  0
 27 53  1  0  0  0  0
 28 29  2  0  0  0  0
 30 31  1  0  0  0  0
 30 54  1  0  0  0  0
 30 55  1  0  0  0  0
 31 33  1  0  0  0  0
 31 32  1  6  0  0  0
 32 56  1  0  0  0  0
 33 34  1  0  0  0  0
 33 57  1  0  0  0  0
 33 58  1  0  0  0  0
 34 59  1  0  0  0  0
M  END
$$$$
