CHEMBL263769
 OpenBabel04072215363D

 80 84  0  0  0  0  0  0  0  0999 V2000
    3.8744    1.7503   -0.9357 C   0  0  0  0  0  0  0  0  0  0  0  0
    2.8464    1.0642   -1.7874 C   0  0  0  0  0  0  0  0  0  0  0  0
    3.3409    0.0876   -2.6791 C   0  0  0  0  0  0  0  0  0  0  0  0
    2.4974   -0.6244   -3.5254 C   0  0  0  0  0  0  0  0  0  0  0  0
    1.1296   -0.3935   -3.4839 C   0  0  0  0  0  0  0  0  0  0  0  0
    0.5929    0.5651   -2.6065 C   0  0  0  0  0  0  0  0  0  0  0  0
   -0.8971    0.7760   -2.5968 C   0  0  0  0  0  0  0  0  0  0  0  0
    1.4560    1.2993   -1.7569 C   0  0  0  0  0  0  0  0  0  0  0  0
    0.7999    2.3750   -1.0534 O   0  0  0  0  0  0  0  0  0  0  0  0
    1.3460    3.2647   -0.1064 C   0  0  0  0  0  0  0  0  0  0  0  0
    2.0512    2.8911    0.8275 O   0  0  0  0  0  0  0  0  0  0  0  0
    1.1706    4.6010   -0.4816 N   0  0  0  0  0  0  0  0  0  0  0  0
   -0.1180    5.1567   -0.7420 C   0  0  0  0  0  0  0  0  0  0  0  0
   -0.2464    6.4805   -1.1399 C   0  0  0  0  0  0  0  0  0  0  0  0
   -1.5059    6.9250   -1.4200 C   0  0  0  0  0  0  0  0  0  0  0  0
   -2.5840    6.1669   -1.2429 N   0  0  0  0  0  0  0  0  0  0  0  0
   -2.4086    4.9246   -0.7679 C   0  0  0  0  0  0  0  0  0  0  0  0
   -3.5316    4.1566   -0.4805 N   0  0  0  0  0  0  0  0  0  0  0  0
   -4.8408    4.5967   -0.2588 C   0  0  0  0  0  0  0  0  0  0  0  0
   -5.9122    3.7804   -0.6082 C   0  0  0  0  0  0  0  0  0  0  0  0
   -7.2236    4.2484   -0.5135 C   0  0  0  0  0  0  0  0  0  0  0  0
   -7.5212    5.5410   -0.0428 C   0  0  0  0  0  0  0  0  0  0  0  0
   -8.8423    5.9413    0.0618 N   0  0  0  0  0  0  0  0  0  0  0  0
   -9.2501    7.0231    0.9707 C   0  0  0  0  0  0  0  0  0  0  0  0
  -10.7317    6.8012    1.3661 C   0  0  0  0  0  0  0  0  0  0  0  0
  -11.6387    6.7077    0.1953 N   0  0  0  0  0  0  0  0  0  0  0  0
  -13.0001    6.4019    0.6279 C   0  0  0  0  0  0  0  0  0  0  0  0
  -11.1471    5.6562   -0.7278 C   0  0  0  0  0  0  0  0  0  0  0  0
   -9.6784    5.8766   -1.1508 C   0  0  0  0  0  0  0  0  0  0  0  0
   -6.4453    6.3410    0.3423 C   0  0  0  0  0  0  0  0  0  0  0  0
   -5.1318    5.8800    0.2224 C   0  0  0  0  0  0  0  0  0  0  0  0
   -1.2031    4.3761   -0.5561 N   0  0  0  0  0  0  0  0  0  0  0  0
    2.2651    5.4953   -0.3459 C   0  0  0  0  0  0  0  0  0  0  0  0
    2.5477    5.9761    0.9516 C   0  0  0  0  0  0  0  0  0  0  0  0
    3.5707    6.8995    1.1630 C   0  0  0  0  0  0  0  0  0  0  0  0
    4.3313    7.3237    0.0857 C   0  0  0  0  0  0  0  0  0  0  0  0
    5.3228    8.2023    0.2821 F   0  0  0  0  0  0  0  0  0  0  0  0
    4.0642    6.8697   -1.2007 C   0  0  0  0  0  0  0  0  0  0  0  0
    3.0197    5.9651   -1.4466 C   0  0  0  0  0  0  0  0  0  0  0  0
    2.8471    5.7665   -2.7918 O   0  0  0  0  0  0  0  0  0  0  0  0
    2.1727    4.6336   -3.3351 C   0  0  0  0  0  0  0  0  0  0  0  0
    0.9591    5.0959   -4.1363 C   0  0  0  0  0  0  0  0  0  0  0  0
    3.1395    3.8824   -4.2419 C   0  0  0  0  0  0  0  0  0  0  0  0
    4.8936    1.4938   -1.2491 H   0  0  0  0  0  0  0  0  0  0  0  0
    3.7825    1.4166    0.1032 H   0  0  0  0  0  0  0  0  0  0  0  0
    3.7986    2.8313   -1.0208 H   0  0  0  0  0  0  0  0  0  0  0  0
    4.4098   -0.1169   -2.7281 H   0  0  0  0  0  0  0  0  0  0  0  0
    2.9101   -1.3565   -4.2159 H   0  0  0  0  0  0  0  0  0  0  0  0
    0.4813   -0.9588   -4.1467 H   0  0  0  0  0  0  0  0  0  0  0  0
   -1.3905    0.1522   -3.3513 H   0  0  0  0  0  0  0  0  0  0  0  0
   -1.1374    1.8199   -2.8323 H   0  0  0  0  0  0  0  0  0  0  0  0
   -1.3095    0.5098   -1.6227 H   0  0  0  0  0  0  0  0  0  0  0  0
    0.5840    7.1544   -1.2902 H   0  0  0  0  0  0  0  0  0  0  0  0
   -1.6897    7.9225   -1.8051 H   0  0  0  0  0  0  0  0  0  0  0  0
   -3.2961    3.2270   -0.1669 H   0  0  0  0  0  0  0  0  0  0  0  0
   -5.7355    2.7801   -1.0028 H   0  0  0  0  0  0  0  0  0  0  0  0
   -8.0320    3.5790   -0.7865 H   0  0  0  0  0  0  0  0  0  0  0  0
   -9.1276    8.0012    0.4870 H   0  0  0  0  0  0  0  0  0  0  0  0
   -8.6510    7.0190    1.8891 H   0  0  0  0  0  0  0  0  0  0  0  0
  -11.0478    7.6288    2.0114 H   0  0  0  0  0  0  0  0  0  0  0  0
  -10.7923    5.8783    1.9600 H   0  0  0  0  0  0  0  0  0  0  0  0
  -13.3791    7.1917    1.2849 H   0  0  0  0  0  0  0  0  0  0  0  0
  -13.0624    5.4473    1.1634 H   0  0  0  0  0  0  0  0  0  0  0  0
  -13.6732    6.3563   -0.2351 H   0  0  0  0  0  0  0  0  0  0  0  0
  -11.7692    5.6379   -1.6299 H   0  0  0  0  0  0  0  0  0  0  0  0
  -11.2244    4.6688   -0.2516 H   0  0  0  0  0  0  0  0  0  0  0  0
   -9.5853    6.8139   -1.7163 H   0  0  0  0  0  0  0  0  0  0  0  0
   -9.3846    5.0662   -1.8263 H   0  0  0  0  0  0  0  0  0  0  0  0
   -6.6033    7.3490    0.7111 H   0  0  0  0  0  0  0  0  0  0  0  0
   -4.3287    6.5483    0.5220 H   0  0  0  0  0  0  0  0  0  0  0  0
    1.9512    5.6467    1.8014 H   0  0  0  0  0  0  0  0  0  0  0  0
    3.7752    7.2899    2.1553 H   0  0  0  0  0  0  0  0  0  0  0  0
    4.6713    7.2397   -2.0228 H   0  0  0  0  0  0  0  0  0  0  0  0
    1.8632    3.9365   -2.5743 H   0  0  0  0  0  0  0  0  0  0  0  0
    1.2563    5.5260   -5.0986 H   0  0  0  0  0  0  0  0  0  0  0  0
    0.4034    5.8794   -3.6199 H   0  0  0  0  0  0  0  0  0  0  0  0
    0.2816    4.2584   -4.3320 H   0  0  0  0  0  0  0  0  0  0  0  0
    3.4238    4.4903   -5.1070 H   0  0  0  0  0  0  0  0  0  0  0  0
    2.6871    2.9534   -4.6038 H   0  0  0  0  0  0  0  0  0  0  0  0
    4.0613    3.6398   -3.7042 H   0  0  0  0  0  0  0  0  0  0  0  0
  1  2  1  0  0  0  0
  1 44  1  0  0  0  0
  1 45  1  0  0  0  0
  1 46  1  0  0  0  0
  2  3  1  0  0  0  0
  2  8  2  0  0  0  0
  3  4  2  0  0  0  0
  3 47  1  0  0  0  0
  4  5  1  0  0  0  0
  4 48  1  0  0  0  0
  5  6  2  0  0  0  0
  5 49  1  0  0  0  0
  6  7  1  0  0  0  0
  6  8  1  0  0  0  0
  7 50  1  0  0  0  0
  7 51  1  0  0  0  0
  7 52  1  0  0  0  0
  8  9  1  0  0  0  0
  9 10  1  0  0  0  0
 10 11  2  0  0  0  0
 10 12  1  0  0  0  0
 12 13  1  0  0  0  0
 12 33  1  0  0  0  0
 13 14  1  0  0  0  0
 13 32  2  0  0  0  0
 14 15  2  0  0  0  0
 14 53  1  0  0  0  0
 15 16  1  0  0  0  0
 15 54  1  0  0  0  0
 16 17  2  0  0  0  0
 17 18  1  0  0  0  0
 17 32  1  0  0  0  0
 18 19  1  0  0  0  0
 18 55  1  0  0  0  0
 19 20  1  0  0  0  0
 19 31  2  0  0  0  0
 20 21  2  0  0  0  0
 20 56  1  0  0  0  0
 21 22  1  0  0  0  0
 21 57  1  0  0  0  0
 22 23  1  0  0  0  0
 22 30  2  0  0  0  0
 23 24  1  0  0  0  0
 23 29  1  0  0  0  0
 24 25  1  0  0  0  0
 24 58  1  0  0  0  0
 24 59  1  0  0  0  0
 25 26  1  0  0  0  0
 25 60  1  0  0  0  0
 25 61  1  0  0  0  0
 26 27  1  0  0  0  0
 26 28  1  0  0  0  0
 27 62  1  0  0  0  0
 27 63  1  0  0  0  0
 27 64  1  0  0  0  0
 28 29  1  0  0  0  0
 28 65  1  0  0  0  0
 28 66  1  0  0  0  0
 29 67  1  0  0  0  0
 29 68  1  0  0  0  0
 30 31  1  0  0  0  0
 30 69  1  0  0  0  0
 31 70  1  0  0  0  0
 33 34  1  0  0  0  0
 33 39  2  0  0  0  0
 34 35  2  0  0  0  0
 34 71  1  0  0  0  0
 35 36  1  0  0  0  0
 35 72  1  0  0  0  0
 36 37  1  0  0  0  0
 36 38  2  0  0  0  0
 38 39  1  0  0  0  0
 38 73  1  0  0  0  0
 39 40  1  0  0  0  0
 40 41  1  0  0  0  0
 41 42  1  0  0  0  0
 41 43  1  0  0  0  0
 41 74  1  0  0  0  0
 42 75  1  0  0  0  0
 42 76  1  0  0  0  0
 42 77  1  0  0  0  0
 43 78  1  0  0  0  0
 43 79  1  0  0  0  0
 43 80  1  0  0  0  0
M  END
$$$$
