CHEMBL194911
 OpenBabel04072215363D

 58 62  0  0  0  0  0  0  0  0999 V2000
   -1.1424    3.9177   -8.0093 C   0  0  0  0  0  0  0  0  0  0  0  0
   -0.4090    4.7581   -7.1237 O   0  0  0  0  0  0  0  0  0  0  0  0
    0.9151    4.4629   -6.9498 C   0  0  0  0  0  0  0  0  0  0  0  0
    1.6197    3.4599   -7.6085 C   0  0  0  0  0  0  0  0  0  0  0  0
    2.9672    3.2285   -7.3027 C   0  0  0  0  0  0  0  0  0  0  0  0
    3.6135    3.9385   -6.2792 C   0  0  0  0  0  0  0  0  0  0  0  0
    4.8993    3.4778   -5.7364 C   0  0  0  0  0  0  0  0  0  0  0  0
    5.7509    4.4616   -5.3253 O   0  0  0  0  0  0  0  0  0  0  0  0
    6.8383    3.8602   -4.7725 C   0  0  0  0  0  0  0  0  0  0  0  0
    7.8660    4.5579   -4.2704 N   0  0  0  0  0  0  0  0  0  0  0  0
    8.7989    3.7491   -3.7602 C   0  0  0  0  0  0  0  0  0  0  0  0
    8.7855    2.4044   -3.6970 N   0  0  0  0  0  0  0  0  0  0  0  0
    7.7272    1.7419   -4.2018 C   0  0  0  0  0  0  0  0  0  0  0  0
    7.7510    0.3750   -4.0763 N   0  0  0  0  0  0  0  0  0  0  0  0
    6.6965    2.4802   -4.8028 C   0  0  0  0  0  0  0  0  0  0  0  0
    5.4542    2.2268   -5.4631 C   0  0  0  0  0  0  0  0  0  0  0  0
    4.8016    0.9601   -5.7623 C   0  0  0  0  0  0  0  0  0  0  0  0
    3.4478    0.7847   -5.4801 C   0  0  0  0  0  0  0  0  0  0  0  0
    2.7805   -0.3629   -5.8927 C   0  0  0  0  0  0  0  0  0  0  0  0
    3.4689   -1.4083   -6.5090 C   0  0  0  0  0  0  0  0  0  0  0  0
    2.8307   -2.5972   -6.9109 N   0  0  0  0  0  0  0  0  0  0  0  0
    1.4652   -2.7481   -7.0582 C   0  0  0  0  0  0  0  0  0  0  0  0
    0.6501   -1.8367   -7.0012 O   0  0  0  0  0  0  0  0  0  0  0  0
    1.1051   -4.0736   -7.2450 N   0  0  0  0  0  0  0  0  0  0  0  0
   -0.2700   -4.4078   -7.3325 C   0  0  0  0  0  0  0  0  0  0  0  0
   -1.1533   -3.6669   -8.1237 C   0  0  0  0  0  0  0  0  0  0  0  0
   -2.5342   -3.9224   -8.0915 C   0  0  0  0  0  0  0  0  0  0  0  0
   -3.4909   -3.1031   -8.9243 C   0  0  0  0  0  0  0  0  0  0  0  0
   -2.8825   -2.1632   -9.6990 F   0  0  0  0  0  0  0  0  0  0  0  0
   -4.2136   -3.8772   -9.7816 F   0  0  0  0  0  0  0  0  0  0  0  0
   -4.4048   -2.4377   -8.1662 F   0  0  0  0  0  0  0  0  0  0  0  0
   -3.0130   -4.9347   -7.2446 C   0  0  0  0  0  0  0  0  0  0  0  0
   -2.1301   -5.6996   -6.4783 C   0  0  0  0  0  0  0  0  0  0  0  0
   -0.7641   -5.4440   -6.5420 C   0  0  0  0  0  0  0  0  0  0  0  0
    0.0763   -6.1577   -5.7777 F   0  0  0  0  0  0  0  0  0  0  0  0
    4.8448   -1.2760   -6.7217 C   0  0  0  0  0  0  0  0  0  0  0  0
    5.4989   -0.0835   -6.3853 C   0  0  0  0  0  0  0  0  0  0  0  0
    2.9204    4.9938   -5.6760 C   0  0  0  0  0  0  0  0  0  0  0  0
    1.5843    5.2543   -6.0121 C   0  0  0  0  0  0  0  0  0  0  0  0
   -2.1685    4.2950   -8.0583 H   0  0  0  0  0  0  0  0  0  0  0  0
   -1.1830    2.8879   -7.6372 H   0  0  0  0  0  0  0  0  0  0  0  0
   -0.7288    3.9554   -9.0223 H   0  0  0  0  0  0  0  0  0  0  0  0
    1.1482    2.8097   -8.3383 H   0  0  0  0  0  0  0  0  0  0  0  0
    3.4785    2.4225   -7.8244 H   0  0  0  0  0  0  0  0  0  0  0  0
    9.6742    4.2302   -3.3353 H   0  0  0  0  0  0  0  0  0  0  0  0
    8.5923   -0.0288   -3.6899 H   0  0  0  0  0  0  0  0  0  0  0  0
    6.9837   -0.2110   -4.3590 H   0  0  0  0  0  0  0  0  0  0  0  0
    2.8643    1.5596   -4.9880 H   0  0  0  0  0  0  0  0  0  0  0  0
    1.7115   -0.4001   -5.7128 H   0  0  0  0  0  0  0  0  0  0  0  0
    3.4044   -3.3188   -7.3328 H   0  0  0  0  0  0  0  0  0  0  0  0
    1.6685   -4.7315   -6.7175 H   0  0  0  0  0  0  0  0  0  0  0  0
   -0.7727   -2.8682   -8.7625 H   0  0  0  0  0  0  0  0  0  0  0  0
   -4.0850   -5.1198   -7.1730 H   0  0  0  0  0  0  0  0  0  0  0  0
   -2.5007   -6.4691   -5.8091 H   0  0  0  0  0  0  0  0  0  0  0  0
    5.4205   -2.0792   -7.1756 H   0  0  0  0  0  0  0  0  0  0  0  0
    6.5542    0.0220   -6.6262 H   0  0  0  0  0  0  0  0  0  0  0  0
    3.3916    5.5902   -4.8971 H   0  0  0  0  0  0  0  0  0  0  0  0
    1.0484    6.0541   -5.5066 H   0  0  0  0  0  0  0  0  0  0  0  0
  1  2  1  0  0  0  0
  1 40  1  0  0  0  0
  1 41  1  0  0  0  0
  1 42  1  0  0  0  0
  2  3  1  0  0  0  0
  3  4  1  0  0  0  0
  3 39  2  0  0  0  0
  4  5  2  0  0  0  0
  4 43  1  0  0  0  0
  5  6  1  0  0  0  0
  5 44  1  0  0  0  0
  6  7  1  0  0  0  0
  6 38  2  0  0  0  0
  7  8  1  0  0  0  0
  7 16  2  0  0  0  0
  8  9  1  0  0  0  0
  9 10  1  0  0  0  0
  9 15  2  0  0  0  0
 10 11  2  0  0  0  0
 11 12  1  0  0  0  0
 11 45  1  0  0  0  0
 12 13  2  0  0  0  0
 13 14  1  0  0  0  0
 13 15  1  0  0  0  0
 14 46  1  0  0  0  0
 14 47  1  0  0  0  0
 15 16  1  0  0  0  0
 16 17  1  0  0  0  0
 17 18  1  0  0  0  0
 17 37  2  0  0  0  0
 18 19  2  0  0  0  0
 18 48  1  0  0  0  0
 19 20  1  0  0  0  0
 19 49  1  0  0  0  0
 20 21  1  0  0  0  0
 20 36  2  0  0  0  0
 21 22  1  0  0  0  0
 21 50  1  0  0  0  0
 22 23  2  0  0  0  0
 22 24  1  0  0  0  0
 24 25  1  0  0  0  0
 24 51  1  0  0  0  0
 25 26  1  0  0  0  0
 25 34  2  0  0  0  0
 26 27  2  0  0  0  0
 26 52  1  0  0  0  0
 27 28  1  0  0  0  0
 27 32  1  0  0  0  0
 28 29  1  0  0  0  0
 28 30  1  0  0  0  0
 28 31  1  0  0  0  0
 32 33  2  0  0  0  0
 32 53  1  0  0  0  0
 33 34  1  0  0  0  0
 33 54  1  0  0  0  0
 34 35  1  0  0  0  0
 36 37  1  0  0  0  0
 36 55  1  0  0  0  0
 37 56  1  0  0  0  0
 38 39  1  0  0  0  0
 38 57  1  0  0  0  0
 39 58  1  0  0  0  0
M  END
$$$$
