CHEMBL4649124
 OpenBabel04072215383D

 44 47  0  0  0  0  0  0  0  0999 V2000
   -0.3260   -2.9673   -0.3216 C   0  0  0  0  0  0  0  0  0  0  0  0
   -0.5412   -1.4816   -0.3154 C   0  0  0  0  0  0  0  0  0  0  0  0
   -1.7740   -0.9575   -0.3917 C   0  0  0  0  0  0  0  0  0  0  0  0
   -2.0457    0.4879   -0.3868 C   0  0  0  0  0  0  0  0  0  0  0  0
   -3.1911    0.9097   -0.4513 O   0  0  0  0  0  0  0  0  0  0  0  0
   -0.9471    1.3254   -0.3022 O   0  0  0  0  0  0  0  0  0  0  0  0
    0.3611    0.8072   -0.2158 C   0  0  0  0  0  0  0  0  0  0  0  0
    1.3853    1.7553   -0.1200 C   0  0  0  0  0  0  0  0  0  0  0  0
    2.7081    1.3332   -0.0215 C   0  0  0  0  0  0  0  0  0  0  0  0
    3.8013    2.1528    0.0993 O   0  0  0  0  0  0  0  0  0  0  0  0
    3.5522    3.5511   -0.0030 C   0  0  0  0  0  0  0  0  0  0  0  0
    4.8409    4.3693    0.0213 C   0  0  0  0  0  0  0  0  0  0  0  0
    5.2334    4.9965   -0.9614 O   0  0  0  0  0  0  0  0  0  0  0  0
    5.4677    4.3817    1.2531 N   0  0  0  0  0  0  0  0  0  0  0  0
    6.6612    5.1233    1.4212 N   0  0  0  0  0  0  0  0  0  0  0  0
    6.7085    5.9967    2.5070 C   0  0  0  0  0  0  0  0  0  0  0  0
    5.7679    6.1770    3.2822 O   0  0  0  0  0  0  0  0  0  0  0  0
    7.9142    6.6216    2.7250 N   0  0  0  0  0  0  0  0  0  0  0  0
    9.0627    6.3675    1.9704 C   0  0  0  0  0  0  0  0  0  0  0  0
   10.2675    6.9979    2.2849 C   0  0  0  0  0  0  0  0  0  0  0  0
   11.4228    6.6863    1.5586 C   0  0  0  0  0  0  0  0  0  0  0  0
   11.3683    5.7763    0.5011 C   0  0  0  0  0  0  0  0  0  0  0  0
   10.1626    5.1579    0.1797 C   0  0  0  0  0  0  0  0  0  0  0  0
    9.0202    5.4398    0.9334 C   0  0  0  0  0  0  0  0  0  0  0  0
    7.7776    4.6871    0.7068 C   0  0  0  0  0  0  0  0  0  0  0  0
    7.8066    3.6939   -0.0155 O   0  0  0  0  0  0  0  0  0  0  0  0
    2.9767   -0.0391   -0.0305 C   0  0  0  0  0  0  0  0  0  0  0  0
    1.9372   -0.9810   -0.1297 C   0  0  0  0  0  0  0  0  0  0  0  0
    0.6050   -0.5657   -0.2188 C   0  0  0  0  0  0  0  0  0  0  0  0
   -1.2727   -3.5154   -0.3928 H   0  0  0  0  0  0  0  0  0  0  0  0
    0.1671   -3.2953    0.5999 H   0  0  0  0  0  0  0  0  0  0  0  0
    0.2859   -3.2691   -1.1787 H   0  0  0  0  0  0  0  0  0  0  0  0
   -2.6597   -1.5791   -0.4574 H   0  0  0  0  0  0  0  0  0  0  0  0
    1.1076    2.8031   -0.1235 H   0  0  0  0  0  0  0  0  0  0  0  0
    2.9360    3.8853    0.8406 H   0  0  0  0  0  0  0  0  0  0  0  0
    3.0436    3.7843   -0.9463 H   0  0  0  0  0  0  0  0  0  0  0  0
    5.0367    4.0209    2.0965 H   0  0  0  0  0  0  0  0  0  0  0  0
    7.9478    7.2553    3.5144 H   0  0  0  0  0  0  0  0  0  0  0  0
   10.3344    7.7104    3.1029 H   0  0  0  0  0  0  0  0  0  0  0  0
   12.3731    7.1461    1.8221 H   0  0  0  0  0  0  0  0  0  0  0  0
   12.2673    5.5321   -0.0612 H   0  0  0  0  0  0  0  0  0  0  0  0
   10.1174    4.4403   -0.6374 H   0  0  0  0  0  0  0  0  0  0  0  0
    4.0063   -0.3868    0.0361 H   0  0  0  0  0  0  0  0  0  0  0  0
    2.2011   -2.0359   -0.1328 H   0  0  0  0  0  0  0  0  0  0  0  0
  1  2  1  0  0  0  0
  1 30  1  0  0  0  0
  1 31  1  0  0  0  0
  1 32  1  0  0  0  0
  2  3  2  0  0  0  0
  2 29  1  0  0  0  0
  3  4  1  0  0  0  0
  3 33  1  0  0  0  0
  4  5  2  0  0  0  0
  4  6  1  0  0  0  0
  6  7  1  0  0  0  0
  7  8  1  0  0  0  0
  7 29  2  0  0  0  0
  8  9  2  0  0  0  0
  8 34  1  0  0  0  0
  9 10  1  0  0  0  0
  9 27  1  0  0  0  0
 10 11  1  0  0  0  0
 11 12  1  0  0  0  0
 11 35  1  0  0  0  0
 11 36  1  0  0  0  0
 12 13  2  0  0  0  0
 12 14  1  0  0  0  0
 14 15  1  0  0  0  0
 14 37  1  0  0  0  0
 15 16  1  0  0  0  0
 15 25  1  0  0  0  0
 16 17  2  0  0  0  0
 16 18  1  0  0  0  0
 18 19  1  0  0  0  0
 18 38  1  0  0  0  0
 19 20  1  0  0  0  0
 19 24  2  0  0  0  0
 20 21  2  0  0  0  0
 20 39  1  0  0  0  0
 21 22  1  0  0  0  0
 21 40  1  0  0  0  0
 22 23  2  0  0  0  0
 22 41  1  0  0  0  0
 23 24  1  0  0  0  0
 23 42  1  0  0  0  0
 24 25  1  0  0  0  0
 25 26  2  0  0  0  0
 27 28  2  0  0  0  0
 27 43  1  0  0  0  0
 28 29  1  0  0  0  0
 28 44  1  0  0  0  0
M  END
$$$$
