CHEMBL4516513
 OpenBabel04072215383D

 75 80  0  0  0  0  0  0  0  0999 V2000
   -3.4095   -0.0218   -0.5982 O   0  0  0  0  0  0  0  0  0  0  0  0
   -4.2003   -0.8687   -0.1993 C   0  0  0  0  0  0  0  0  0  0  0  0
   -4.0651   -2.2309   -0.3993 N   0  0  0  0  0  0  0  0  0  0  0  0
   -3.0393   -2.8127   -1.1806 C   0  0  0  0  0  0  0  0  0  0  0  0
   -1.8598   -2.1351   -1.5051 C   0  0  0  0  0  0  0  0  0  0  0  0
   -0.9564   -2.6687   -2.4164 C   0  0  0  0  0  0  0  0  0  0  0  0
   -1.2028   -3.9093   -2.9941 C   0  0  0  0  0  0  0  0  0  0  0  0
   -0.3110   -4.2566   -3.9732 O   0  0  0  0  0  0  0  0  0  0  0  0
   -0.0551   -5.5932   -4.1899 C   0  0  0  0  0  0  0  0  0  0  0  0
    0.0240   -6.3876   -3.0987 N   0  0  0  0  0  0  0  0  0  0  0  0
    0.2636   -7.6688   -3.3497 C   0  0  0  0  0  0  0  0  0  0  0  0
    0.4847   -8.1950   -4.5537 N   0  0  0  0  0  0  0  0  0  0  0  0
    0.4532   -7.3613   -5.6000 C   0  0  0  0  0  0  0  0  0  0  0  0
    0.7103   -7.9101   -6.8348 C   0  0  0  0  0  0  0  0  0  0  0  0
    0.7341   -7.1560   -8.0125 C   0  0  0  0  0  0  0  0  0  0  0  0
    1.0201   -7.7018   -9.2440 O   0  0  0  0  0  0  0  0  0  0  0  0
    1.3157   -9.1013   -9.2353 C   0  0  0  0  0  0  0  0  0  0  0  0
    1.6554   -9.5691  -10.6394 C   0  0  0  0  0  0  0  0  0  0  0  0
    2.0240  -11.0606  -10.6302 C   0  0  0  0  0  0  0  0  0  0  0  0
    2.2820  -11.6012  -11.9707 N   0  0  0  0  0  0  0  0  0  0  0  0
    2.5634  -13.0529  -11.9274 C   0  0  0  0  0  0  0  0  0  0  0  0
    3.9708  -13.4048  -11.4131 C   0  0  0  0  0  0  0  0  0  0  0  0
    4.9881  -12.7440  -12.1738 O   0  0  0  0  0  0  0  0  0  0  0  0
    4.7942  -11.3249  -12.1599 C   0  0  0  0  0  0  0  0  0  0  0  0
    3.3998  -10.9420  -12.6811 C   0  0  0  0  0  0  0  0  0  0  0  0
    0.4742   -5.7811   -7.9411 C   0  0  0  0  0  0  0  0  0  0  0  0
    0.1668   -5.2053   -6.6988 C   0  0  0  0  0  0  0  0  0  0  0  0
    0.1815   -5.9995   -5.5097 C   0  0  0  0  0  0  0  0  0  0  0  0
   -0.1334   -3.8672   -6.5718 O   0  0  0  0  0  0  0  0  0  0  0  0
   -0.4370   -3.2430   -7.8217 C   0  0  0  0  0  0  0  0  0  0  0  0
    0.5919   -3.6405   -8.8607 C   0  0  0  0  0  0  0  0  0  0  0  0
    0.5283   -5.0500   -9.1052 O   0  0  0  0  0  0  0  0  0  0  0  0
   -2.3482   -4.6192   -2.6260 C   0  0  0  0  0  0  0  0  0  0  0  0
   -2.6570   -5.7947   -3.1954 F   0  0  0  0  0  0  0  0  0  0  0  0
   -3.2512   -4.0909   -1.7023 C   0  0  0  0  0  0  0  0  0  0  0  0
   -5.3689   -0.5546    0.4651 N   0  0  0  0  0  0  0  0  0  0  0  0
   -5.8847    0.7586    0.5811 C   0  0  0  0  0  0  0  0  0  0  0  0
   -5.5156    1.7980   -0.2835 C   0  0  0  0  0  0  0  0  0  0  0  0
   -6.0495    3.0886   -0.1475 C   0  0  0  0  0  0  0  0  0  0  0  0
   -5.6364    4.1892   -1.0974 C   0  0  0  0  0  0  0  0  0  0  0  0
   -4.7038    3.8089   -2.0136 F   0  0  0  0  0  0  0  0  0  0  0  0
   -6.6898    4.6646   -1.8187 F   0  0  0  0  0  0  0  0  0  0  0  0
   -5.1083    5.2657   -0.4522 F   0  0  0  0  0  0  0  0  0  0  0  0
   -6.9798    3.3287    0.8745 C   0  0  0  0  0  0  0  0  0  0  0  0
   -7.3674    2.2963    1.7336 C   0  0  0  0  0  0  0  0  0  0  0  0
   -6.8246    1.0233    1.5771 C   0  0  0  0  0  0  0  0  0  0  0  0
   -7.2012    0.0431    2.4137 F   0  0  0  0  0  0  0  0  0  0  0  0
   -4.8936   -2.7879   -0.2466 H   0  0  0  0  0  0  0  0  0  0  0  0
   -1.6182   -1.1607   -1.0921 H   0  0  0  0  0  0  0  0  0  0  0  0
   -0.0765   -2.0981   -2.7036 H   0  0  0  0  0  0  0  0  0  0  0  0
    0.2775   -8.3483   -2.5050 H   0  0  0  0  0  0  0  0  0  0  0  0
    0.9076   -8.9802   -6.8371 H   0  0  0  0  0  0  0  0  0  0  0  0
    0.4446   -9.6624   -8.8754 H   0  0  0  0  0  0  0  0  0  0  0  0
    2.1850   -9.2903   -8.5905 H   0  0  0  0  0  0  0  0  0  0  0  0
    2.4837   -8.9531  -11.0021 H   0  0  0  0  0  0  0  0  0  0  0  0
    0.8059   -9.3824  -11.3064 H   0  0  0  0  0  0  0  0  0  0  0  0
    1.1733  -11.6088  -10.1986 H   0  0  0  0  0  0  0  0  0  0  0  0
    2.8709  -11.2233   -9.9533 H   0  0  0  0  0  0  0  0  0  0  0  0
    2.4693  -13.4308  -12.9531 H   0  0  0  0  0  0  0  0  0  0  0  0
    1.8029  -13.5799  -11.3387 H   0  0  0  0  0  0  0  0  0  0  0  0
    4.1387  -14.4832  -11.5128 H   0  0  0  0  0  0  0  0  0  0  0  0
    4.0930  -13.1536  -10.3531 H   0  0  0  0  0  0  0  0  0  0  0  0
    5.5559  -10.8858  -12.8123 H   0  0  0  0  0  0  0  0  0  0  0  0
    4.9696  -10.9449  -11.1468 H   0  0  0  0  0  0  0  0  0  0  0  0
    3.3300  -11.2467  -13.7331 H   0  0  0  0  0  0  0  0  0  0  0  0
    3.2912   -9.8540  -12.6932 H   0  0  0  0  0  0  0  0  0  0  0  0
   -0.4215   -2.1584   -7.6653 H   0  0  0  0  0  0  0  0  0  0  0  0
   -1.4517   -3.5287   -8.1238 H   0  0  0  0  0  0  0  0  0  0  0  0
    1.6083   -3.3829   -8.5372 H   0  0  0  0  0  0  0  0  0  0  0  0
    0.3956   -3.1236   -9.8058 H   0  0  0  0  0  0  0  0  0  0  0  0
   -4.1359   -4.6698   -1.4608 H   0  0  0  0  0  0  0  0  0  0  0  0
   -5.7441   -1.2417    1.1064 H   0  0  0  0  0  0  0  0  0  0  0  0
   -4.8117    1.6241   -1.0954 H   0  0  0  0  0  0  0  0  0  0  0  0
   -7.4095    4.3218    0.9986 H   0  0  0  0  0  0  0  0  0  0  0  0
   -8.0876    2.4779    2.5250 H   0  0  0  0  0  0  0  0  0  0  0  0
  1  2  2  0  0  0  0
  2  3  1  0  0  0  0
  2 36  1  0  0  0  0
  3  4  1  0  0  0  0
  3 48  1  0  0  0  0
  4  5  1  0  0  0  0
  4 35  2  0  0  0  0
  5  6  2  0  0  0  0
  5 49  1  0  0  0  0
  6  7  1  0  0  0  0
  6 50  1  0  0  0  0
  7  8  1  0  0  0  0
  7 33  2  0  0  0  0
  8  9  1  0  0  0  0
  9 10  1  0  0  0  0
  9 28  2  0  0  0  0
 10 11  2  0  0  0  0
 11 12  1  0  0  0  0
 11 51  1  0  0  0  0
 12 13  2  0  0  0  0
 13 14  1  0  0  0  0
 13 28  1  0  0  0  0
 14 15  2  0  0  0  0
 14 52  1  0  0  0  0
 15 16  1  0  0  0  0
 15 26  1  0  0  0  0
 16 17  1  0  0  0  0
 17 18  1  0  0  0  0
 17 53  1  0  0  0  0
 17 54  1  0  0  0  0
 18 19  1  0  0  0  0
 18 55  1  0  0  0  0
 18 56  1  0  0  0  0
 19 20  1  0  0  0  0
 19 57  1  0  0  0  0
 19 58  1  0  0  0  0
 20 21  1  0  0  0  0
 20 25  1  0  0  0  0
 21 22  1  0  0  0  0
 21 59  1  0  0  0  0
 21 60  1  0  0  0  0
 22 23  1  0  0  0  0
 22 61  1  0  0  0  0
 22 62  1  0  0  0  0
 23 24  1  0  0  0  0
 24 25  1  0  0  0  0
 24 63  1  0  0  0  0
 24 64  1  0  0  0  0
 25 65  1  0  0  0  0
 25 66  1  0  0  0  0
 26 27  2  0  0  0  0
 26 32  1  0  0  0  0
 27 28  1  0  0  0  0
 27 29  1  0  0  0  0
 29 30  1  0  0  0  0
 30 31  1  0  0  0  0
 30 67  1  0  0  0  0
 30 68  1  0  0  0  0
 31 32  1  0  0  0  0
 31 69  1  0  0  0  0
 31 70  1  0  0  0  0
 33 34  1  0  0  0  0
 33 35  1  0  0  0  0
 35 71  1  0  0  0  0
 36 37  1  0  0  0  0
 36 72  1  0  0  0  0
 37 38  1  0  0  0  0
 37 46  2  0  0  0  0
 38 39  2  0  0  0  0
 38 73  1  0  0  0  0
 39 40  1  0  0  0  0
 39 44  1  0  0  0  0
 40 41  1  0  0  0  0
 40 42  1  0  0  0  0
 40 43  1  0  0  0  0
 44 45  2  0  0  0  0
 44 74  1  0  0  0  0
 45 46  1  0  0  0  0
 45 75  1  0  0  0  0
 46 47  1  0  0  0  0
M  END
$$$$
