CHEMBL1271615
 OpenBabel04072215363D

 32 34  0  0  0  0  0  0  0  0999 V2000
    1.0634   -0.4974    0.0530 O   0  0  0  0  0  0  0  0  0  0  0  0
    2.2075   -0.0516   -0.0057 C   0  0  0  0  0  0  0  0  0  0  0  0
    2.8051    0.7572    0.9361 N   0  0  0  0  0  0  0  0  0  0  0  0
    2.2284    1.2366    2.1430 C   0  0  0  0  0  0  0  0  0  0  0  0
    1.0103    0.7460    2.6342 C   0  0  0  0  0  0  0  0  0  0  0  0
    0.4423    1.2768    3.7868 C   0  0  0  0  0  0  0  0  0  0  0  0
    1.0924    2.3011    4.4615 C   0  0  0  0  0  0  0  0  0  0  0  0
    2.3238    2.7842    3.9983 C   0  0  0  0  0  0  0  0  0  0  0  0
    2.9817    3.8176    4.6760 C   0  0  0  0  0  0  0  0  0  0  0  0
    4.2006    4.2853    4.2080 C   0  0  0  0  0  0  0  0  0  0  0  0
    4.7269    3.6965    3.0754 C   0  0  0  0  0  0  0  0  0  0  0  0
    4.1205    2.7032    2.3870 N   0  0  0  0  0  0  0  0  0  0  0  0
    2.9230    2.2461    2.8339 C   0  0  0  0  0  0  0  0  0  0  0  0
    3.0136   -0.4187   -1.2058 C   0  0  0  0  0  0  0  0  0  0  0  0
    2.6213   -1.5811   -1.8931 C   0  0  0  0  0  0  0  0  0  0  0  0
    3.2746   -1.9661   -3.0585 C   0  0  0  0  0  0  0  0  0  0  0  0
    2.7765   -3.3909   -3.8846 Cl  0  0  0  0  0  0  0  0  0  0  0  0
    4.3231   -1.2013   -3.5610 C   0  0  0  0  0  0  0  0  0  0  0  0
    4.7295   -0.0486   -2.8833 C   0  0  0  0  0  0  0  0  0  0  0  0
    4.0807    0.3385   -1.7065 C   0  0  0  0  0  0  0  0  0  0  0  0
    4.4910    1.4726   -1.0625 O   0  0  0  0  0  0  0  0  0  0  0  0
    3.7088    1.1741    0.7062 H   0  0  0  0  0  0  0  0  0  0  0  0
    0.4778   -0.0578    2.1371 H   0  0  0  0  0  0  0  0  0  0  0  0
   -0.5085    0.8924    4.1468 H   0  0  0  0  0  0  0  0  0  0  0  0
    0.6309    2.7172    5.3544 H   0  0  0  0  0  0  0  0  0  0  0  0
    2.5433    4.2663    5.5642 H   0  0  0  0  0  0  0  0  0  0  0  0
    4.7237    5.0889    4.7139 H   0  0  0  0  0  0  0  0  0  0  0  0
    5.6826    4.0206    2.6735 H   0  0  0  0  0  0  0  0  0  0  0  0
    1.7931   -2.1799   -1.5119 H   0  0  0  0  0  0  0  0  0  0  0  0
    4.8219   -1.4976   -4.4776 H   0  0  0  0  0  0  0  0  0  0  0  0
    5.5494    0.5343   -3.2932 H   0  0  0  0  0  0  0  0  0  0  0  0
    5.1492    1.9385   -1.6067 H   0  0  0  0  0  0  0  0  0  0  0  0
  1  2  2  0  0  0  0
  2  3  1  0  0  0  0
  2 14  1  0  0  0  0
  3  4  1  0  0  0  0
  3 22  1  0  0  0  0
  4  5  1  0  0  0  0
  4 13  2  0  0  0  0
  5  6  2  0  0  0  0
  5 23  1  0  0  0  0
  6  7  1  0  0  0  0
  6 24  1  0  0  0  0
  7  8  2  0  0  0  0
  7 25  1  0  0  0  0
  8  9  1  0  0  0  0
  8 13  1  0  0  0  0
  9 10  2  0  0  0  0
  9 26  1  0  0  0  0
 10 11  1  0  0  0  0
 10 27  1  0  0  0  0
 11 12  2  0  0  0  0
 11 28  1  0  0  0  0
 12 13  1  0  0  0  0
 14 15  1  0  0  0  0
 14 20  2  0  0  0  0
 15 16  2  0  0  0  0
 15 29  1  0  0  0  0
 16 17  1  0  0  0  0
 16 18  1  0  0  0  0
 18 19  2  0  0  0  0
 18 30  1  0  0  0  0
 19 20  1  0  0  0  0
 19 31  1  0  0  0  0
 20 21  1  0  0  0  0
 21 32  1  0  0  0  0
M  END
$$$$
