CHEMBL1270399
 OpenBabel04072215363D

 57 61  0  0  1  0  0  0  0  0999 V2000
    6.4123   -2.1293    5.6311 C   0  0  0  0  0  0  0  0  0  0  0  0
    6.1774   -1.4191    4.3305 C   0  0  0  0  0  0  0  0  0  0  0  0
    6.2786   -0.0817    4.2648 C   0  0  0  0  0  0  0  0  0  0  0  0
    5.9648    0.5479    3.0839 N   0  0  0  0  0  0  0  0  0  0  0  0
    5.8867    1.8769    2.7392 C   0  0  0  0  0  0  0  0  0  0  0  0
    6.3264    3.0433    3.5483 C   0  0  0  0  0  0  0  0  0  0  0  0
    7.3748    3.1021    4.4933 C   0  0  0  0  0  0  0  0  0  0  0  0
    7.4804    4.3031    5.0653 N   0  0  0  0  0  0  0  0  0  0  0  0
    6.5068    5.0163    4.4714 N   0  0  0  0  0  0  0  0  0  0  0  0
    5.8061    4.3128    3.5305 C   0  0  0  0  0  0  0  0  0  0  0  0
    5.2734    1.8674    1.4991 C   0  0  0  0  0  0  0  0  0  0  0  0
    5.0947    0.5794    1.0257 N   0  0  0  0  0  0  0  0  0  0  0  0
    5.5248   -0.1871    2.0103 C   0  0  0  0  0  0  0  0  0  0  0  0
    5.4906   -1.6576    2.0980 C   0  0  0  0  0  0  0  0  0  0  0  0
    5.0932   -2.3909    0.9783 N   0  0  0  0  0  0  0  0  0  0  0  0
    4.7060   -3.6966    0.8241 C   0  0  0  0  0  0  0  0  0  0  0  0
    4.0216   -4.2149   -0.2668 C   0  0  0  0  0  0  0  0  0  0  0  0
    3.6183   -5.6013   -0.0914 C   0  0  0  0  0  0  0  0  0  0  0  0
    2.6586   -6.3266   -1.0771 C   0  0  1  0  0  0  0  0  0  0  0  0
    3.3473   -6.4232   -2.4544 C   0  0  0  0  0  0  0  0  0  0  0  0
    2.1266   -7.6773   -0.6868 N   0  0  0  0  0  0  0  0  0  0  0  0
    1.0886   -8.1688   -1.6368 C   0  0  0  0  0  0  0  0  0  0  0  0
   -0.2386   -7.3603   -1.6485 C   0  0  2  0  0  0  0  0  0  0  0  0
   -0.3555   -6.5040   -2.9130 C   0  0  0  0  0  0  0  0  0  0  0  0
   -0.3770   -6.4466   -0.5527 O   0  0  0  0  0  0  0  0  0  0  0  0
    0.1469   -6.8720    0.7134 C   0  0  2  0  0  0  0  0  0  0  0  0
    0.4170   -5.5987    1.5082 C   0  0  0  0  0  0  0  0  0  0  0  0
    1.4347   -7.7229    0.6191 C   0  0  0  0  0  0  0  0  0  0  0  0
    4.0989   -6.1566    1.0223 N   0  0  0  0  0  0  0  0  0  0  0  0
    4.9149   -5.0087    1.9117 S   0  0  0  0  0  0  0  0  0  0  0  0
    5.8239   -2.2143    3.2441 N   0  0  0  0  0  0  0  0  0  0  0  0
    6.7837   -1.4477    6.4050 H   0  0  0  0  0  0  0  0  0  0  0  0
    7.1508   -2.9253    5.5069 H   0  0  0  0  0  0  0  0  0  0  0  0
    5.4768   -2.5646    5.9959 H   0  0  0  0  0  0  0  0  0  0  0  0
    6.5273    0.5320    5.1189 H   0  0  0  0  0  0  0  0  0  0  0  0
    8.0855    2.3343    4.7728 H   0  0  0  0  0  0  0  0  0  0  0  0
    6.3793    5.9811    4.7719 H   0  0  0  0  0  0  0  0  0  0  0  0
    4.9786    4.7691    3.0064 H   0  0  0  0  0  0  0  0  0  0  0  0
    4.9905    2.7256    0.8927 H   0  0  0  0  0  0  0  0  0  0  0  0
    4.9150   -1.7697    0.1912 H   0  0  0  0  0  0  0  0  0  0  0  0
    3.7432   -3.6202   -1.1260 H   0  0  0  0  0  0  0  0  0  0  0  0
    1.8225   -5.6270   -1.1871 H   0  0  0  0  0  0  0  0  0  0  0  0
    4.1886   -7.1231   -2.4286 H   0  0  0  0  0  0  0  0  0  0  0  0
    3.7269   -5.4487   -2.7780 H   0  0  0  0  0  0  0  0  0  0  0  0
    2.6625   -6.7449   -3.2440 H   0  0  0  0  0  0  0  0  0  0  0  0
    0.8302   -9.1982   -1.3391 H   0  0  0  0  0  0  0  0  0  0  0  0
    1.4786   -8.3219   -2.6485 H   0  0  0  0  0  0  0  0  0  0  0  0
   -1.0899   -8.0529   -1.6219 H   0  0  0  0  0  0  0  0  0  0  0  0
    0.5080   -5.8423   -3.0239 H   0  0  0  0  0  0  0  0  0  0  0  0
   -1.2304   -5.8467   -2.8569 H   0  0  0  0  0  0  0  0  0  0  0  0
   -0.4316   -7.1216   -3.8112 H   0  0  0  0  0  0  0  0  0  0  0  0
   -0.6377   -7.4453    1.2234 H   0  0  0  0  0  0  0  0  0  0  0  0
    1.2601   -5.0459    1.0881 H   0  0  0  0  0  0  0  0  0  0  0  0
    0.6502   -5.8268    2.5519 H   0  0  0  0  0  0  0  0  0  0  0  0
   -0.4376   -4.9176    1.4667 H   0  0  0  0  0  0  0  0  0  0  0  0
    1.1310   -8.7704    0.7850 H   0  0  0  0  0  0  0  0  0  0  0  0
    2.1046   -7.5466    1.4642 H   0  0  0  0  0  0  0  0  0  0  0  0
  1  2  1  0  0  0  0
  1 32  1  0  0  0  0
  1 33  1  0  0  0  0
  1 34  1  0  0  0  0
  2  3  2  0  0  0  0
  2 31  1  0  0  0  0
  3  4  1  0  0  0  0
  3 35  1  0  0  0  0
  4  5  1  0  0  0  0
  4 13  1  0  0  0  0
  5  6  1  0  0  0  0
  5 11  2  0  0  0  0
  6  7  1  0  0  0  0
  6 10  2  0  0  0  0
  7  8  2  0  0  0  0
  7 36  1  0  0  0  0
  8  9  1  0  0  0  0
  9 10  1  0  0  0  0
  9 37  1  0  0  0  0
 10 38  1  0  0  0  0
 11 12  1  0  0  0  0
 11 39  1  0  0  0  0
 12 13  2  0  0  0  0
 13 14  1  0  0  0  0
 14 15  1  0  0  0  0
 14 31  2  0  0  0  0
 15 16  1  0  0  0  0
 15 40  1  0  0  0  0
 16 17  2  0  0  0  0
 16 30  1  0  0  0  0
 17 18  1  0  0  0  0
 17 41  1  0  0  0  0
 18 19  1  0  0  0  0
 18 29  2  0  0  0  0
 19 20  1  0  0  0  0
 19 21  1  0  0  0  0
 19 42  1  6  0  0  0
 20 43  1  0  0  0  0
 20 44  1  0  0  0  0
 20 45  1  0  0  0  0
 21 22  1  0  0  0  0
 21 28  1  0  0  0  0
 22 23  1  0  0  0  0
 22 46  1  0  0  0  0
 22 47  1  0  0  0  0
 23 25  1  0  0  0  0
 23 24  1  0  0  0  0
 23 48  1  1  0  0  0
 24 49  1  0  0  0  0
 24 50  1  0  0  0  0
 24 51  1  0  0  0  0
 25 26  1  0  0  0  0
 26 28  1  0  0  0  0
 26 27  1  0  0  0  0
 26 52  1  1  0  0  0
 27 53  1  0  0  0  0
 27 54  1  0  0  0  0
 27 55  1  0  0  0  0
 28 56  1  0  0  0  0
 28 57  1  0  0  0  0
 29 30  1  0  0  0  0
M  END
$$$$
