CHEMBL183025
 OpenBabel04072215363D

 60 64  0  0  0  0  0  0  0  0999 V2000
    2.4194   -0.4202    1.4763 C   0  0  0  0  0  0  0  0  0  0  0  0
    0.9273   -0.2919    1.4744 C   0  0  0  0  0  0  0  0  0  0  0  0
    0.3255    0.8989    1.9032 C   0  0  0  0  0  0  0  0  0  0  0  0
   -1.0543    1.0180    1.9085 C   0  0  0  0  0  0  0  0  0  0  0  0
   -1.8477   -0.0457    1.4828 C   0  0  0  0  0  0  0  0  0  0  0  0
   -1.2789   -1.2433    1.0430 C   0  0  0  0  0  0  0  0  0  0  0  0
   -2.0468   -2.3464    0.6005 N   0  0  0  0  0  0  0  0  0  0  0  0
   -3.4181   -2.3483    0.4401 C   0  0  0  0  0  0  0  0  0  0  0  0
   -4.1474   -1.3743    0.5944 O   0  0  0  0  0  0  0  0  0  0  0  0
   -3.9109   -3.6077    0.1198 N   0  0  0  0  0  0  0  0  0  0  0  0
   -5.3047   -3.7655   -0.0586 C   0  0  0  0  0  0  0  0  0  0  0  0
   -6.0446   -2.8511   -0.8082 C   0  0  0  0  0  0  0  0  0  0  0  0
   -7.4390   -2.9170   -0.8300 C   0  0  0  0  0  0  0  0  0  0  0  0
   -8.1371   -3.9241   -0.1413 C   0  0  0  0  0  0  0  0  0  0  0  0
   -9.6176   -3.9823   -0.1776 C   0  0  0  0  0  0  0  0  0  0  0  0
  -10.3098   -3.5815   -1.3403 C   0  0  0  0  0  0  0  0  0  0  0  0
  -11.7143   -3.6005   -1.4430 C   0  0  0  0  0  0  0  0  0  0  0  0
  -12.5080   -4.0570   -0.3969 C   0  0  0  0  0  0  0  0  0  0  0  0
  -13.9226   -4.0700   -0.4400 N   0  0  0  0  0  0  0  0  0  0  0  0
  -14.7018   -3.3828   -1.3589 C   0  0  0  0  0  0  0  0  0  0  0  0
  -14.2816   -2.6478   -2.2480 O   0  0  0  0  0  0  0  0  0  0  0  0
  -16.1776   -3.5508   -1.2564 C   0  0  0  0  0  0  0  0  0  0  0  0
  -16.8336   -3.8089   -0.0487 C   0  0  0  0  0  0  0  0  0  0  0  0
  -18.2233   -3.9637   -0.0332 C   0  0  0  0  0  0  0  0  0  0  0  0
  -18.9598   -3.8510   -1.2143 C   0  0  0  0  0  0  0  0  0  0  0  0
  -18.3153   -3.5622   -2.4139 C   0  0  0  0  0  0  0  0  0  0  0  0
  -16.9297   -3.4059   -2.4341 C   0  0  0  0  0  0  0  0  0  0  0  0
  -11.8259   -4.4960    0.7290 C   0  0  0  0  0  0  0  0  0  0  0  0
  -10.4257   -4.4212    0.8752 C   0  0  0  0  0  0  0  0  0  0  0  0
  -10.0646   -4.8102    2.2762 C   0  0  0  0  0  0  0  0  0  0  0  0
  -11.3245   -5.1868    2.8496 N   0  0  0  0  0  0  0  0  0  0  0  0
  -12.3761   -5.0620    1.9678 C   0  0  0  0  0  0  0  0  0  0  0  0
  -13.5334   -5.3861    2.1405 O   0  0  0  0  0  0  0  0  0  0  0  0
   -7.3588   -4.8812    0.5348 C   0  0  0  0  0  0  0  0  0  0  0  0
   -5.9607   -4.8062    0.5842 C   0  0  0  0  0  0  0  0  0  0  0  0
    0.1186   -1.3600    1.0492 C   0  0  0  0  0  0  0  0  0  0  0  0
    2.8945    0.4888    1.8667 H   0  0  0  0  0  0  0  0  0  0  0  0
    2.7835   -0.5764    0.4577 H   0  0  0  0  0  0  0  0  0  0  0  0
    2.7305   -1.2549    2.1117 H   0  0  0  0  0  0  0  0  0  0  0  0
    0.9317    1.7391    2.2344 H   0  0  0  0  0  0  0  0  0  0  0  0
   -1.5284    1.9412    2.2355 H   0  0  0  0  0  0  0  0  0  0  0  0
   -2.9211    0.1103    1.5243 H   0  0  0  0  0  0  0  0  0  0  0  0
   -1.5446   -3.1511    0.2566 H   0  0  0  0  0  0  0  0  0  0  0  0
   -3.4246   -4.3728    0.5643 H   0  0  0  0  0  0  0  0  0  0  0  0
   -5.5493   -2.0501   -1.3536 H   0  0  0  0  0  0  0  0  0  0  0  0
   -7.9660   -2.1428   -1.3846 H   0  0  0  0  0  0  0  0  0  0  0  0
   -9.7641   -3.2352   -2.2177 H   0  0  0  0  0  0  0  0  0  0  0  0
  -12.1453   -3.2679   -2.3826 H   0  0  0  0  0  0  0  0  0  0  0  0
  -14.3745   -4.5824    0.3148 H   0  0  0  0  0  0  0  0  0  0  0  0
  -16.2918   -3.8657    0.8909 H   0  0  0  0  0  0  0  0  0  0  0  0
  -18.7349   -4.1660    0.9044 H   0  0  0  0  0  0  0  0  0  0  0  0
  -20.0395   -3.9784   -1.1971 H   0  0  0  0  0  0  0  0  0  0  0  0
  -18.8867   -3.4556   -3.3329 H   0  0  0  0  0  0  0  0  0  0  0  0
  -16.4326   -3.1705   -3.3740 H   0  0  0  0  0  0  0  0  0  0  0  0
   -9.6546   -3.9708    2.8456 H   0  0  0  0  0  0  0  0  0  0  0  0
   -9.4211   -5.6858    2.3390 H   0  0  0  0  0  0  0  0  0  0  0  0
  -11.4511   -5.6262    3.7549 H   0  0  0  0  0  0  0  0  0  0  0  0
   -7.8226   -5.7193    1.0411 H   0  0  0  0  0  0  0  0  0  0  0  0
   -5.4151   -5.5302    1.1814 H   0  0  0  0  0  0  0  0  0  0  0  0
    0.5923   -2.2808    0.7186 H   0  0  0  0  0  0  0  0  0  0  0  0
  1  2  1  0  0  0  0
  1 37  1  0  0  0  0
  1 38  1  0  0  0  0
  1 39  1  0  0  0  0
  2  3  1  0  0  0  0
  2 36  2  0  0  0  0
  3  4  2  0  0  0  0
  3 40  1  0  0  0  0
  4  5  1  0  0  0  0
  4 41  1  0  0  0  0
  5  6  2  0  0  0  0
  5 42  1  0  0  0  0
  6  7  1  0  0  0  0
  6 36  1  0  0  0  0
  7  8  1  0  0  0  0
  7 43  1  0  0  0  0
  8  9  2  0  0  0  0
  8 10  1  0  0  0  0
 10 11  1  0  0  0  0
 10 44  1  0  0  0  0
 11 12  1  0  0  0  0
 11 35  2  0  0  0  0
 12 13  2  0  0  0  0
 12 45  1  0  0  0  0
 13 14  1  0  0  0  0
 13 46  1  0  0  0  0
 14 15  1  0  0  0  0
 14 34  2  0  0  0  0
 15 16  1  0  0  0  0
 15 29  2  0  0  0  0
 16 17  2  0  0  0  0
 16 47  1  0  0  0  0
 17 18  1  0  0  0  0
 17 48  1  0  0  0  0
 18 19  1  0  0  0  0
 18 28  2  0  0  0  0
 19 20  1  0  0  0  0
 19 49  1  0  0  0  0
 20 21  2  0  0  0  0
 20 22  1  0  0  0  0
 22 23  1  0  0  0  0
 22 27  2  0  0  0  0
 23 24  2  0  0  0  0
 23 50  1  0  0  0  0
 24 25  1  0  0  0  0
 24 51  1  0  0  0  0
 25 26  2  0  0  0  0
 25 52  1  0  0  0  0
 26 27  1  0  0  0  0
 26 53  1  0  0  0  0
 27 54  1  0  0  0  0
 28 29  1  0  0  0  0
 28 32  1  0  0  0  0
 29 30  1  0  0  0  0
 30 31  1  0  0  0  0
 30 55  1  0  0  0  0
 30 56  1  0  0  0  0
 31 32  1  0  0  0  0
 31 57  1  0  0  0  0
 32 33  2  0  0  0  0
 34 35  1  0  0  0  0
 34 58  1  0  0  0  0
 35 59  1  0  0  0  0
 36 60  1  0  0  0  0
M  END
$$$$
