CHEMBL499067
 OpenBabel04072215383D

 48 52  0  0  0  0  0  0  0  0999 V2000
    1.3090    0.1296   -0.1987 N   0  0  0  0  0  0  0  0  0  0  0  0
    2.6862    0.0974   -0.1185 C   0  0  0  0  0  0  0  0  0  0  0  0
    3.2423   -1.1176   -0.0339 N   0  0  0  0  0  0  0  0  0  0  0  0
    4.5947   -1.2533   -0.0665 C   0  0  0  0  0  0  0  0  0  0  0  0
    5.1792   -2.5245   -0.0861 N   0  0  0  0  0  0  0  0  0  0  0  0
    4.7116   -3.7198    0.4861 C   0  0  0  0  0  0  0  0  0  0  0  0
    3.8104   -3.7262    1.5566 C   0  0  0  0  0  0  0  0  0  0  0  0
    3.3304   -4.9134    2.1195 C   0  0  0  0  0  0  0  0  0  0  0  0
    3.7496   -6.1114    1.5406 C   0  0  0  0  0  0  0  0  0  0  0  0
    3.4294   -7.4101    1.8606 N   0  0  0  0  0  0  0  0  0  0  0  0
    4.0455   -8.2764    0.9934 C   0  0  0  0  0  0  0  0  0  0  0  0
    4.7928   -7.5281    0.1148 C   0  0  0  0  0  0  0  0  0  0  0  0
    4.6194   -6.1586    0.4532 C   0  0  0  0  0  0  0  0  0  0  0  0
    5.1115   -4.9443   -0.0728 C   0  0  0  0  0  0  0  0  0  0  0  0
    5.3605   -0.0823   -0.1675 C   0  0  0  0  0  0  0  0  0  0  0  0
    6.7392    0.2510   -0.2836 C   0  0  0  0  0  0  0  0  0  0  0  0
    6.8381    1.6239   -0.4483 C   0  0  0  0  0  0  0  0  0  0  0  0
    8.0322    2.4512   -0.8274 C   0  0  0  0  0  0  0  0  0  0  0  0
    8.0159    3.8863   -0.2984 C   0  0  0  0  0  0  0  0  0  0  0  0
    9.1860    4.6983   -0.8033 C   0  0  0  0  0  0  0  0  0  0  0  0
    9.0801    5.4278   -1.9967 C   0  0  0  0  0  0  0  0  0  0  0  0
   10.1502    6.2037   -2.4502 C   0  0  0  0  0  0  0  0  0  0  0  0
   11.3352    6.2550   -1.7212 C   0  0  0  0  0  0  0  0  0  0  0  0
   11.4581    5.5176   -0.5440 C   0  0  0  0  0  0  0  0  0  0  0  0
   10.3886    4.7401   -0.0879 C   0  0  0  0  0  0  0  0  0  0  0  0
    5.5657    2.1325   -0.2955 N   0  0  0  0  0  0  0  0  0  0  0  0
    4.6622    1.1105   -0.1824 C   0  0  0  0  0  0  0  0  0  0  0  0
    3.3331    1.2678   -0.1410 N   0  0  0  0  0  0  0  0  0  0  0  0
    0.9252   -0.7449    0.1305 H   0  0  0  0  0  0  0  0  0  0  0  0
    0.9402    0.9909    0.1722 H   0  0  0  0  0  0  0  0  0  0  0  0
    6.1420   -2.5475   -0.3886 H   0  0  0  0  0  0  0  0  0  0  0  0
    3.4838   -2.7844    1.9931 H   0  0  0  0  0  0  0  0  0  0  0  0
    2.6509   -4.8898    2.9648 H   0  0  0  0  0  0  0  0  0  0  0  0
    2.8127   -7.6780    2.6164 H   0  0  0  0  0  0  0  0  0  0  0  0
    3.8926   -9.3426    1.0778 H   0  0  0  0  0  0  0  0  0  0  0  0
    5.3945   -7.9219   -0.6930 H   0  0  0  0  0  0  0  0  0  0  0  0
    5.7755   -4.9668   -0.9346 H   0  0  0  0  0  0  0  0  0  0  0  0
    7.5671   -0.4452   -0.3268 H   0  0  0  0  0  0  0  0  0  0  0  0
    8.0892    2.4606   -1.9238 H   0  0  0  0  0  0  0  0  0  0  0  0
    8.9405    1.9433   -0.4774 H   0  0  0  0  0  0  0  0  0  0  0  0
    8.0143    3.8861    0.7991 H   0  0  0  0  0  0  0  0  0  0  0  0
    7.0919    4.3985   -0.5951 H   0  0  0  0  0  0  0  0  0  0  0  0
    8.1631    5.4025   -2.5804 H   0  0  0  0  0  0  0  0  0  0  0  0
   10.0543    6.7738   -3.3712 H   0  0  0  0  0  0  0  0  0  0  0  0
   12.1646    6.8664   -2.0671 H   0  0  0  0  0  0  0  0  0  0  0  0
   12.3833    5.5522    0.0238 H   0  0  0  0  0  0  0  0  0  0  0  0
   10.5014    4.1748    0.8349 H   0  0  0  0  0  0  0  0  0  0  0  0
    5.2906    3.1022   -0.3431 H   0  0  0  0  0  0  0  0  0  0  0  0
  1  2  1  0  0  0  0
  1 29  1  0  0  0  0
  1 30  1  0  0  0  0
  2  3  1  0  0  0  0
  2 28  2  0  0  0  0
  3  4  2  0  0  0  0
  4  5  1  0  0  0  0
  4 15  1  0  0  0  0
  5  6  1  0  0  0  0
  5 31  1  0  0  0  0
  6  7  1  0  0  0  0
  6 14  2  0  0  0  0
  7  8  2  0  0  0  0
  7 32  1  0  0  0  0
  8  9  1  0  0  0  0
  8 33  1  0  0  0  0
  9 10  1  0  0  0  0
  9 13  2  0  0  0  0
 10 11  1  0  0  0  0
 10 34  1  0  0  0  0
 11 12  2  0  0  0  0
 11 35  1  0  0  0  0
 12 13  1  0  0  0  0
 12 36  1  0  0  0  0
 13 14  1  0  0  0  0
 14 37  1  0  0  0  0
 15 16  1  0  0  0  0
 15 27  2  0  0  0  0
 16 17  2  0  0  0  0
 16 38  1  0  0  0  0
 17 18  1  0  0  0  0
 17 26  1  0  0  0  0
 18 19  1  0  0  0  0
 18 39  1  0  0  0  0
 18 40  1  0  0  0  0
 19 20  1  0  0  0  0
 19 41  1  0  0  0  0
 19 42  1  0  0  0  0
 20 21  1  0  0  0  0
 20 25  2  0  0  0  0
 21 22  2  0  0  0  0
 21 43  1  0  0  0  0
 22 23  1  0  0  0  0
 22 44  1  0  0  0  0
 23 24  2  0  0  0  0
 23 45  1  0  0  0  0
 24 25  1  0  0  0  0
 24 46  1  0  0  0  0
 25 47  1  0  0  0  0
 26 27  1  0  0  0  0
 26 48  1  0  0  0  0
 27 28  1  0  0  0  0
M  END
$$$$
