CHEMBL1681964
 OpenBabel04072215363D

 42 43  0  0  0  0  0  0  0  0999 V2000
    0.9161    0.0274    0.2791 C   0  0  0  0  0  0  0  0  0  0  0  0
    2.3999    0.2228    0.0655 C   0  0  0  0  0  0  0  0  0  0  0  0
    3.0175    1.0671    1.0734 N   0  0  0  0  0  0  0  0  0  0  0  0
    4.3844    1.2393    0.9643 C   0  0  0  0  0  0  0  0  0  0  0  0
    5.0277    0.6665    0.0922 O   0  0  0  0  0  0  0  0  0  0  0  0
    4.8927    2.0680    1.9434 N   0  0  0  0  0  0  0  0  0  0  0  0
    6.2529    2.4490    2.0320 C   0  0  0  0  0  0  0  0  0  0  0  0
    7.1179    2.3515    0.9426 C   0  0  0  0  0  0  0  0  0  0  0  0
    8.4725    2.6460    1.0656 C   0  0  0  0  0  0  0  0  0  0  0  0
    8.9747    3.1333    2.2713 C   0  0  0  0  0  0  0  0  0  0  0  0
   10.3080    3.4541    2.4423 O   0  0  0  0  0  0  0  0  0  0  0  0
   10.9571    4.0963    1.3879 C   0  0  0  0  0  0  0  0  0  0  0  0
   10.2130    4.8410    0.5378 N   0  0  0  0  0  0  0  0  0  0  0  0
   10.8739    5.4384   -0.4550 C   0  0  0  0  0  0  0  0  0  0  0  0
   12.1976    5.4083   -0.6409 N   0  0  0  0  0  0  0  0  0  0  0  0
   12.9160    4.7017    0.2492 C   0  0  0  0  0  0  0  0  0  0  0  0
   14.2781    4.6335   -0.0365 N   0  0  0  0  0  0  0  0  0  0  0  0
   12.3308    4.0009    1.2948 C   0  0  0  0  0  0  0  0  0  0  0  0
   13.1120    3.2277    2.2688 C   0  0  0  0  0  0  0  0  0  0  0  0
   14.3359    3.5457    2.5582 N   0  0  0  0  0  0  0  0  0  0  0  0
   14.8300    2.6501    3.5161 O   0  0  0  0  0  0  0  0  0  0  0  0
   16.1536    3.0483    3.8575 C   0  0  0  0  0  0  0  0  0  0  0  0
    8.1215    3.2556    3.3670 C   0  0  0  0  0  0  0  0  0  0  0  0
    6.7588    2.9235    3.2490 C   0  0  0  0  0  0  0  0  0  0  0  0
    0.5250   -0.6819   -0.4581 H   0  0  0  0  0  0  0  0  0  0  0  0
    0.3782    0.9731    0.1610 H   0  0  0  0  0  0  0  0  0  0  0  0
    0.7071   -0.3632    1.2794 H   0  0  0  0  0  0  0  0  0  0  0  0
    2.5834    0.6715   -0.9180 H   0  0  0  0  0  0  0  0  0  0  0  0
    2.9067   -0.7498    0.0847 H   0  0  0  0  0  0  0  0  0  0  0  0
    2.5095    1.8903    1.3625 H   0  0  0  0  0  0  0  0  0  0  0  0
    4.3238    2.1721    2.7712 H   0  0  0  0  0  0  0  0  0  0  0  0
    6.7686    2.0471   -0.0402 H   0  0  0  0  0  0  0  0  0  0  0  0
    9.1082    2.5151    0.1974 H   0  0  0  0  0  0  0  0  0  0  0  0
   10.2827    5.9864   -1.1805 H   0  0  0  0  0  0  0  0  0  0  0  0
   14.5127    5.3259   -0.7396 H   0  0  0  0  0  0  0  0  0  0  0  0
   14.8451    4.6787    0.8101 H   0  0  0  0  0  0  0  0  0  0  0  0
   12.6139    2.3745    2.7641 H   0  0  0  0  0  0  0  0  0  0  0  0
   16.5400    2.3606    4.6140 H   0  0  0  0  0  0  0  0  0  0  0  0
   16.1476    4.0615    4.2719 H   0  0  0  0  0  0  0  0  0  0  0  0
   16.8023    3.0069    2.9769 H   0  0  0  0  0  0  0  0  0  0  0  0
    8.5074    3.6098    4.3202 H   0  0  0  0  0  0  0  0  0  0  0  0
    6.1210    3.0196    4.1168 H   0  0  0  0  0  0  0  0  0  0  0  0
  1  2  1  0  0  0  0
  1 25  1  0  0  0  0
  1 26  1  0  0  0  0
  1 27  1  0  0  0  0
  2  3  1  0  0  0  0
  2 28  1  0  0  0  0
  2 29  1  0  0  0  0
  3  4  1  0  0  0  0
  3 30  1  0  0  0  0
  4  5  2  0  0  0  0
  4  6  1  0  0  0  0
  6  7  1  0  0  0  0
  6 31  1  0  0  0  0
  7  8  1  0  0  0  0
  7 24  2  0  0  0  0
  8  9  2  0  0  0  0
  8 32  1  0  0  0  0
  9 10  1  0  0  0  0
  9 33  1  0  0  0  0
 10 11  1  0  0  0  0
 10 23  2  0  0  0  0
 11 12  1  0  0  0  0
 12 13  1  0  0  0  0
 12 18  2  0  0  0  0
 13 14  2  0  0  0  0
 14 15  1  0  0  0  0
 14 34  1  0  0  0  0
 15 16  2  0  0  0  0
 16 17  1  0  0  0  0
 16 18  1  0  0  0  0
 17 35  1  0  0  0  0
 17 36  1  0  0  0  0
 18 19  1  0  0  0  0
 19 20  2  0  0  0  0
 19 37  1  0  0  0  0
 20 21  1  0  0  0  0
 21 22  1  0  0  0  0
 22 38  1  0  0  0  0
 22 39  1  0  0  0  0
 22 40  1  0  0  0  0
 23 24  1  0  0  0  0
 23 41  1  0  0  0  0
 24 42  1  0  0  0  0
M  END
$$$$
