CHEMBL3633275
 OpenBabel04072215373D

 66 68  0  0  0  0  0  0  0  0999 V2000
    4.2563   -1.2667    1.7130 C   0  0  0  0  0  0  0  0  0  0  0  0
    3.9377   -0.1701    0.8631 O   0  0  0  0  0  0  0  0  0  0  0  0
    4.3672   -0.3649   -0.4307 C   0  0  0  0  0  0  0  0  0  0  0  0
    4.0971    0.6472   -1.3308 C   0  0  0  0  0  0  0  0  0  0  0  0
    4.5613    0.5066   -2.6390 C   0  0  0  0  0  0  0  0  0  0  0  0
    5.3072   -0.6238   -3.0224 C   0  0  0  0  0  0  0  0  0  0  0  0
    5.8795   -0.7461   -4.3792 C   0  0  0  0  0  0  0  0  0  0  0  0
    6.2984    0.4025   -5.0635 C   0  0  0  0  0  0  0  0  0  0  0  0
    6.7324    0.3436   -6.3828 C   0  0  0  0  0  0  0  0  0  0  0  0
    6.7497   -0.8727   -7.0594 C   0  0  0  0  0  0  0  0  0  0  0  0
    6.9549   -0.9376   -8.4054 O   0  0  0  0  0  0  0  0  0  0  0  0
    6.2891    0.0031   -9.2350 C   0  0  0  0  0  0  0  0  0  0  0  0
    5.5485    0.9168   -8.5703 F   0  0  0  0  0  0  0  0  0  0  0  0
    7.1999    0.6615   -9.9846 F   0  0  0  0  0  0  0  0  0  0  0  0
    5.4565   -0.6627  -10.0697 F   0  0  0  0  0  0  0  0  0  0  0  0
    6.5707   -2.0652   -6.3371 C   0  0  0  0  0  0  0  0  0  0  0  0
    6.8986   -3.3568   -6.8481 N   0  0  0  0  0  0  0  0  0  0  0  0
    7.9677   -3.5661   -7.7118 C   0  0  0  0  0  0  0  0  0  0  0  0
    8.7663   -2.7021   -8.0572 O   0  0  0  0  0  0  0  0  0  0  0  0
    8.0365   -4.8855   -8.1482 N   0  0  0  0  0  0  0  0  0  0  0  0
    8.9620   -5.2409   -9.1664 C   0  0  0  0  0  0  0  0  0  0  0  0
   10.2955   -4.8318   -9.0281 C   0  0  0  0  0  0  0  0  0  0  0  0
   11.2657   -5.1433   -9.9880 C   0  0  0  0  0  0  0  0  0  0  0  0
   12.7056   -4.8352   -9.7666 C   0  0  0  0  0  0  0  0  0  0  0  0
   13.6050   -5.2137  -10.4975 O   0  0  0  0  0  0  0  0  0  0  0  0
   12.8566   -4.2511   -8.5532 O   0  0  0  0  0  0  0  0  0  0  0  0
   13.8999   -4.8075   -7.7358 C   0  0  0  0  0  0  0  0  0  0  0  0
   13.2749   -5.9722   -6.9421 C   0  0  0  0  0  0  0  0  0  0  0  0
   14.1683   -6.6819   -6.0149 N   0  0  0  0  0  0  0  0  0  0  0  0
   14.6569   -5.8060   -4.9507 C   0  0  0  0  0  0  0  0  0  0  0  0
   13.4571   -7.8246   -5.4289 C   0  0  0  0  0  0  0  0  0  0  0  0
   10.8927   -5.8759  -11.1141 C   0  0  0  0  0  0  0  0  0  0  0  0
    9.5693   -6.3095  -11.2552 C   0  0  0  0  0  0  0  0  0  0  0  0
    8.5976   -6.0018  -10.2868 C   0  0  0  0  0  0  0  0  0  0  0  0
    7.3588   -6.5226  -10.5475 O   0  0  0  0  0  0  0  0  0  0  0  0
    6.2500   -5.6461  -10.3648 C   0  0  0  0  0  0  0  0  0  0  0  0
    6.0545   -1.9876   -5.0281 C   0  0  0  0  0  0  0  0  0  0  0  0
    5.4867   -1.5891   -2.0299 C   0  0  0  0  0  0  0  0  0  0  0  0
    5.0328   -1.4932   -0.7571 N   0  0  0  0  0  0  0  0  0  0  0  0
    4.0032   -0.9832    2.7383 H   0  0  0  0  0  0  0  0  0  0  0  0
    5.3272   -1.5012    1.6943 H   0  0  0  0  0  0  0  0  0  0  0  0
    3.6577   -2.1441    1.4450 H   0  0  0  0  0  0  0  0  0  0  0  0
    3.5560    1.5352   -1.0228 H   0  0  0  0  0  0  0  0  0  0  0  0
    4.3382    1.3017   -3.3476 H   0  0  0  0  0  0  0  0  0  0  0  0
    6.2926    1.3764   -4.5751 H   0  0  0  0  0  0  0  0  0  0  0  0
    7.0292    1.2650   -6.8735 H   0  0  0  0  0  0  0  0  0  0  0  0
    6.6932   -4.1466   -6.2521 H   0  0  0  0  0  0  0  0  0  0  0  0
    7.1803   -5.4106   -8.1072 H   0  0  0  0  0  0  0  0  0  0  0  0
   10.5859   -4.2912   -8.1282 H   0  0  0  0  0  0  0  0  0  0  0  0
   14.2327   -4.0074   -7.0683 H   0  0  0  0  0  0  0  0  0  0  0  0
   14.7589   -5.1351   -8.3313 H   0  0  0  0  0  0  0  0  0  0  0  0
   12.8907   -6.6932   -7.6763 H   0  0  0  0  0  0  0  0  0  0  0  0
   12.3855   -5.5991   -6.4133 H   0  0  0  0  0  0  0  0  0  0  0  0
   15.2831   -5.0062   -5.3576 H   0  0  0  0  0  0  0  0  0  0  0  0
   15.2942   -6.3649   -4.2564 H   0  0  0  0  0  0  0  0  0  0  0  0
   13.8388   -5.3529   -4.3789 H   0  0  0  0  0  0  0  0  0  0  0  0
   13.1144   -8.5121   -6.2116 H   0  0  0  0  0  0  0  0  0  0  0  0
   12.5844   -7.5124   -4.8429 H   0  0  0  0  0  0  0  0  0  0  0  0
   14.1220   -8.3997   -4.7777 H   0  0  0  0  0  0  0  0  0  0  0  0
   11.6323   -6.1363  -11.8704 H   0  0  0  0  0  0  0  0  0  0  0  0
    9.2930   -6.8877  -12.1328 H   0  0  0  0  0  0  0  0  0  0  0  0
    5.5104   -5.8622  -11.1406 H   0  0  0  0  0  0  0  0  0  0  0  0
    6.5142   -4.5857  -10.4331 H   0  0  0  0  0  0  0  0  0  0  0  0
    5.7728   -5.8689   -9.4059 H   0  0  0  0  0  0  0  0  0  0  0  0
    5.8073   -2.9104   -4.5077 H   0  0  0  0  0  0  0  0  0  0  0  0
    6.0495   -2.4971   -2.2214 H   0  0  0  0  0  0  0  0  0  0  0  0
  1  2  1  0  0  0  0
  1 40  1  0  0  0  0
  1 41  1  0  0  0  0
  1 42  1  0  0  0  0
  2  3  1  0  0  0  0
  3  4  1  0  0  0  0
  3 39  2  0  0  0  0
  4  5  2  0  0  0  0
  4 43  1  0  0  0  0
  5  6  1  0  0  0  0
  5 44  1  0  0  0  0
  6  7  1  0  0  0  0
  6 38  2  0  0  0  0
  7  8  1  0  0  0  0
  7 37  2  0  0  0  0
  8  9  2  0  0  0  0
  8 45  1  0  0  0  0
  9 10  1  0  0  0  0
  9 46  1  0  0  0  0
 10 11  1  0  0  0  0
 10 16  2  0  0  0  0
 11 12  1  0  0  0  0
 12 13  1  0  0  0  0
 12 14  1  0  0  0  0
 12 15  1  0  0  0  0
 16 17  1  0  0  0  0
 16 37  1  0  0  0  0
 17 18  1  0  0  0  0
 17 47  1  0  0  0  0
 18 19  2  0  0  0  0
 18 20  1  0  0  0  0
 20 21  1  0  0  0  0
 20 48  1  0  0  0  0
 21 22  1  0  0  0  0
 21 34  2  0  0  0  0
 22 23  2  0  0  0  0
 22 49  1  0  0  0  0
 23 24  1  0  0  0  0
 23 32  1  0  0  0  0
 24 25  2  0  0  0  0
 24 26  1  0  0  0  0
 26 27  1  0  0  0  0
 27 28  1  0  0  0  0
 27 50  1  0  0  0  0
 27 51  1  0  0  0  0
 28 29  1  0  0  0  0
 28 52  1  0  0  0  0
 28 53  1  0  0  0  0
 29 30  1  0  0  0  0
 29 31  1  0  0  0  0
 30 54  1  0  0  0  0
 30 55  1  0  0  0  0
 30 56  1  0  0  0  0
 31 57  1  0  0  0  0
 31 58  1  0  0  0  0
 31 59  1  0  0  0  0
 32 33  2  0  0  0  0
 32 60  1  0  0  0  0
 33 34  1  0  0  0  0
 33 61  1  0  0  0  0
 34 35  1  0  0  0  0
 35 36  1  0  0  0  0
 36 62  1  0  0  0  0
 36 63  1  0  0  0  0
 36 64  1  0  0  0  0
 37 65  1  0  0  0  0
 38 39  1  0  0  0  0
 38 66  1  0  0  0  0
M  END
$$$$
