CHEMBL3809643
 OpenBabel04072215373D

 57 62  0  0  1  0  0  0  0  0999 V2000
   -0.1656    1.2378    1.0380 C   0  0  0  0  0  0  0  0  0  0  0  0
    0.8760    1.3492    2.1506 C   0  0  1  0  0  0  0  0  0  0  0  0
    2.0003    2.3279    1.7446 C   0  0  0  0  0  0  0  0  0  0  0  0
    2.8662    2.7155    2.9074 C   0  0  0  0  0  0  0  0  0  0  0  0
    2.5212    2.3990    4.2115 C   0  0  0  0  0  0  0  0  0  0  0  0
    3.3232    2.6716    5.2635 N   0  0  0  0  0  0  0  0  0  0  0  0
    4.4657    3.3168    4.9908 C   0  0  0  0  0  0  0  0  0  0  0  0
    4.8506    3.7563    3.7859 N   0  0  0  0  0  0  0  0  0  0  0  0
    4.0195    3.4625    2.7688 C   0  0  0  0  0  0  0  0  0  0  0  0
    4.2901    3.9383    1.4870 O   0  0  0  0  0  0  0  0  0  0  0  0
    5.2031    4.9621    1.3616 C   0  0  0  0  0  0  0  0  0  0  0  0
    6.2755    4.7020    0.5181 C   0  0  0  0  0  0  0  0  0  0  0  0
    7.3068    5.6239    0.4229 C   0  0  0  0  0  0  0  0  0  0  0  0
    7.1978    6.8573    1.0849 C   0  0  0  0  0  0  0  0  0  0  0  0
    8.1352    7.8898    1.2611 C   0  0  0  0  0  0  0  0  0  0  0  0
    7.4165    8.9721    1.6572 C   0  0  0  0  0  0  0  0  0  0  0  0
    6.1616    8.5674    2.1094 N   0  0  0  0  0  0  0  0  0  0  0  0
    5.3739    9.5165    2.7953 C   0  0  0  0  0  0  0  0  0  0  0  0
    5.9899   10.4877    3.2545 O   0  0  0  0  0  0  0  0  0  0  0  0
    4.0433    9.2742    2.9303 N   0  0  0  0  0  0  0  0  0  0  0  0
    3.3087   10.1131    3.7601 C   0  0  0  0  0  0  0  0  0  0  0  0
    3.6239   11.4348    4.1612 C   0  0  0  0  0  0  0  0  0  0  0  0
    2.8932   11.6320    5.3078 C   0  0  0  0  0  0  0  0  0  0  0  0
    3.1046   12.7613    6.3417 C   0  0  0  0  0  0  0  0  0  0  0  0
    2.3475   12.6440    7.6452 C   0  0  0  0  0  0  0  0  0  0  0  0
    1.5714   11.5393    7.7193 F   0  0  0  0  0  0  0  0  0  0  0  0
    3.2069   12.5947    8.6950 F   0  0  0  0  0  0  0  0  0  0  0  0
    1.5440   13.7185    7.8343 F   0  0  0  0  0  0  0  0  0  0  0  0
    3.4183   14.1621    5.7854 C   0  0  0  0  0  0  0  0  0  0  0  0
    4.5178   13.3850    6.4088 C   0  0  0  0  0  0  0  0  0  0  0  0
    1.9846   10.6173    5.4001 O   0  0  0  0  0  0  0  0  0  0  0  0
    2.2109    9.6878    4.3897 N   0  0  0  0  0  0  0  0  0  0  0  0
    6.0061    7.2174    1.7520 C   0  0  0  0  0  0  0  0  0  0  0  0
    5.0181    6.2269    1.9694 C   0  0  0  0  0  0  0  0  0  0  0  0
    1.1965    1.7273    4.5054 C   0  0  0  0  0  0  0  0  0  0  0  0
    0.2226    1.7972    3.4001 N   0  0  0  0  0  0  0  0  0  0  0  0
    0.2973    0.8340    0.1200 H   0  0  0  0  0  0  0  0  0  0  0  0
   -0.6060    2.2072    0.7941 H   0  0  0  0  0  0  0  0  0  0  0  0
   -0.9707    0.5568    1.3256 H   0  0  0  0  0  0  0  0  0  0  0  0
    1.3018    0.3474    2.3103 H   0  0  0  0  0  0  0  0  0  0  0  0
    1.5706    3.2410    1.3127 H   0  0  0  0  0  0  0  0  0  0  0  0
    2.6182    1.8494    0.9742 H   0  0  0  0  0  0  0  0  0  0  0  0
    5.1302    3.5129    5.8247 H   0  0  0  0  0  0  0  0  0  0  0  0
    6.3447    3.7649   -0.0253 H   0  0  0  0  0  0  0  0  0  0  0  0
    8.1920    5.4049   -0.1675 H   0  0  0  0  0  0  0  0  0  0  0  0
    9.1856    7.8885    1.0087 H   0  0  0  0  0  0  0  0  0  0  0  0
    7.6955   10.0173    1.7241 H   0  0  0  0  0  0  0  0  0  0  0  0
    3.6149    8.3995    2.6720 H   0  0  0  0  0  0  0  0  0  0  0  0
    4.4181   12.0696    3.7914 H   0  0  0  0  0  0  0  0  0  0  0  0
    3.0383   15.0246    6.3264 H   0  0  0  0  0  0  0  0  0  0  0  0
    3.4526   14.3215    4.7133 H   0  0  0  0  0  0  0  0  0  0  0  0
    4.8921   13.7286    7.3702 H   0  0  0  0  0  0  0  0  0  0  0  0
    5.3134   13.0110    5.7730 H   0  0  0  0  0  0  0  0  0  0  0  0
    4.1554    6.3860    2.6061 H   0  0  0  0  0  0  0  0  0  0  0  0
    0.7392    2.2111    5.3734 H   0  0  0  0  0  0  0  0  0  0  0  0
    1.3750    0.6800    4.7673 H   0  0  0  0  0  0  0  0  0  0  0  0
   -0.0795    2.7596    3.2866 H   0  0  0  0  0  0  0  0  0  0  0  0
  1  2  1  0  0  0  0
  1 37  1  0  0  0  0
  1 38  1  0  0  0  0
  1 39  1  0  0  0  0
  2  3  1  0  0  0  0
  2 36  1  0  0  0  0
  2 40  1  1  0  0  0
  3  4  1  0  0  0  0
  3 41  1  0  0  0  0
  3 42  1  0  0  0  0
  4  5  1  0  0  0  0
  4  9  2  0  0  0  0
  5  6  2  0  0  0  0
  5 35  1  0  0  0  0
  6  7  1  0  0  0  0
  7  8  2  0  0  0  0
  7 43  1  0  0  0  0
  8  9  1  0  0  0  0
  9 10  1  0  0  0  0
 10 11  1  0  0  0  0
 11 12  1  0  0  0  0
 11 34  2  0  0  0  0
 12 13  2  0  0  0  0
 12 44  1  0  0  0  0
 13 14  1  0  0  0  0
 13 45  1  0  0  0  0
 14 15  1  0  0  0  0
 14 33  2  0  0  0  0
 15 16  2  0  0  0  0
 15 46  1  0  0  0  0
 16 17  1  0  0  0  0
 16 47  1  0  0  0  0
 17 18  1  0  0  0  0
 17 33  1  0  0  0  0
 18 19  2  0  0  0  0
 18 20  1  0  0  0  0
 20 21  1  0  0  0  0
 20 48  1  0  0  0  0
 21 22  1  0  0  0  0
 21 32  2  0  0  0  0
 22 23  2  0  0  0  0
 22 49  1  0  0  0  0
 23 24  1  0  0  0  0
 23 31  1  0  0  0  0
 24 25  1  0  0  0  0
 24 29  1  0  0  0  0
 24 30  1  0  0  0  0
 25 26  1  0  0  0  0
 25 27  1  0  0  0  0
 25 28  1  0  0  0  0
 29 30  1  0  0  0  0
 29 50  1  0  0  0  0
 29 51  1  0  0  0  0
 30 52  1  0  0  0  0
 30 53  1  0  0  0  0
 31 32  1  0  0  0  0
 33 34  1  0  0  0  0
 34 54  1  0  0  0  0
 35 36  1  0  0  0  0
 35 55  1  0  0  0  0
 35 56  1  0  0  0  0
 36 57  1  0  0  0  0
M  END
$$$$
