CHEMBL402049
 OpenBabel04072215373D

 36 39  0  0  0  0  0  0  0  0999 V2000
   -2.2204   -0.3325   -1.3180 C   0  0  0  0  0  0  0  0  0  0  0  0
   -0.9731   -0.2099   -0.5228 C   0  0  0  0  0  0  0  0  0  0  0  0
   -0.4487    1.0649   -0.3309 N   0  0  0  0  0  0  0  0  0  0  0  0
    0.6778    1.0378    0.3561 N   0  0  0  0  0  0  0  0  0  0  0  0
    1.1443   -0.5065    0.7627 S   0  0  0  0  0  0  0  0  0  0  0  0
   -0.2474   -1.2345    0.0743 C   0  0  0  0  0  0  0  0  0  0  0  0
   -0.4655   -2.6528    0.0586 C   0  0  0  0  0  0  0  0  0  0  0  0
   -1.0901   -3.2341   -0.9414 N   0  0  0  0  0  0  0  0  0  0  0  0
   -1.0535   -4.5883   -0.6928 N   0  0  0  0  0  0  0  0  0  0  0  0
   -0.3879   -4.9610    0.4638 C   0  0  0  0  0  0  0  0  0  0  0  0
   -0.1724   -6.0835    0.8671 O   0  0  0  0  0  0  0  0  0  0  0  0
   -0.0294   -3.6557    1.0629 C   0  0  0  0  0  0  0  0  0  0  0  0
    0.4767   -3.4401    2.2819 C   0  0  0  0  0  0  0  0  0  0  0  0
    0.8938   -4.4212    3.2190 C   0  0  0  0  0  0  0  0  0  0  0  0
    2.1926   -4.8683    3.2866 C   0  0  0  0  0  0  0  0  0  0  0  0
    2.2849   -5.7045    4.3651 N   0  0  0  0  0  0  0  0  0  0  0  0
    3.5028   -6.3592    4.7883 C   0  0  0  0  0  0  0  0  0  0  0  0
    1.0661   -5.7958    5.0074 C   0  0  0  0  0  0  0  0  0  0  0  0
    0.6980   -6.4929    6.1731 C   0  0  0  0  0  0  0  0  0  0  0  0
   -0.6281   -6.4111    6.6095 C   0  0  0  0  0  0  0  0  0  0  0  0
   -1.5687   -5.6726    5.9011 C   0  0  0  0  0  0  0  0  0  0  0  0
   -1.1827   -4.9853    4.7503 C   0  0  0  0  0  0  0  0  0  0  0  0
   -2.3234   -4.0742    3.8549 Cl  0  0  0  0  0  0  0  0  0  0  0  0
    0.1491   -5.0179    4.2813 C   0  0  0  0  0  0  0  0  0  0  0  0
   -2.5871    0.6531   -1.6216 H   0  0  0  0  0  0  0  0  0  0  0  0
   -3.0051   -0.8209   -0.7326 H   0  0  0  0  0  0  0  0  0  0  0  0
   -2.0400   -0.9156   -2.2262 H   0  0  0  0  0  0  0  0  0  0  0  0
   -1.4447   -5.2517   -1.3515 H   0  0  0  0  0  0  0  0  0  0  0  0
    0.5784   -2.4263    2.6517 H   0  0  0  0  0  0  0  0  0  0  0  0
    3.0544   -4.6487    2.6697 H   0  0  0  0  0  0  0  0  0  0  0  0
    4.3064   -6.1275    4.0845 H   0  0  0  0  0  0  0  0  0  0  0  0
    3.3284   -7.4375    4.8080 H   0  0  0  0  0  0  0  0  0  0  0  0
    3.7646   -5.9875    5.7821 H   0  0  0  0  0  0  0  0  0  0  0  0
    1.4213   -7.0785    6.7318 H   0  0  0  0  0  0  0  0  0  0  0  0
   -0.9275   -6.9367    7.5137 H   0  0  0  0  0  0  0  0  0  0  0  0
   -2.5979   -5.6300    6.2457 H   0  0  0  0  0  0  0  0  0  0  0  0
  1  2  1  0  0  0  0
  1 25  1  0  0  0  0
  1 26  1  0  0  0  0
  1 27  1  0  0  0  0
  2  3  1  0  0  0  0
  2  6  2  0  0  0  0
  3  4  2  0  0  0  0
  4  5  1  0  0  0  0
  5  6  1  0  0  0  0
  6  7  1  0  0  0  0
  7  8  2  0  0  0  0
  7 12  1  0  0  0  0
  8  9  1  0  0  0  0
  9 10  1  0  0  0  0
  9 28  1  0  0  0  0
 10 11  2  0  0  0  0
 10 12  1  0  0  0  0
 12 13  2  0  0  0  0
 13 14  1  0  0  0  0
 13 29  1  0  0  0  0
 14 15  2  0  0  0  0
 14 24  1  0  0  0  0
 15 16  1  0  0  0  0
 15 30  1  0  0  0  0
 16 17  1  0  0  0  0
 16 18  1  0  0  0  0
 17 31  1  0  0  0  0
 17 32  1  0  0  0  0
 17 33  1  0  0  0  0
 18 19  1  0  0  0  0
 18 24  2  0  0  0  0
 19 20  2  0  0  0  0
 19 34  1  0  0  0  0
 20 21  1  0  0  0  0
 20 35  1  0  0  0  0
 21 22  2  0  0  0  0
 21 36  1  0  0  0  0
 22 23  1  0  0  0  0
 22 24  1  0  0  0  0
M  END
$$$$
