CHEMBL3935457
 OpenBabel04072215373D

 64 68  0  0  0  0  0  0  0  0999 V2000
    0.8087   -3.5406    2.6964 C   0  0  0  0  0  0  0  0  0  0  0  0
    2.1667   -3.3369    3.0460 O   0  0  0  0  0  0  0  0  0  0  0  0
    2.9256   -2.6217    2.1644 C   0  0  0  0  0  0  0  0  0  0  0  0
    2.5468   -2.1044    0.9665 C   0  0  0  0  0  0  0  0  0  0  0  0
    3.4248   -1.2791    0.2589 C   0  0  0  0  0  0  0  0  0  0  0  0
    3.0770   -0.6462   -0.9057 O   0  0  0  0  0  0  0  0  0  0  0  0
    1.7321   -0.8729   -1.3110 C   0  0  0  0  0  0  0  0  0  0  0  0
    4.7009   -0.9675    0.7578 C   0  0  0  0  0  0  0  0  0  0  0  0
    5.1459   -1.4638    1.9775 C   0  0  0  0  0  0  0  0  0  0  0  0
    6.4137   -1.1105    2.5134 N   0  0  0  0  0  0  0  0  0  0  0  0
    6.9821    0.2745    2.1772 C   0  0  0  0  0  0  0  0  0  0  0  0
    6.1081    1.4758    2.5712 C   0  0  0  0  0  0  0  0  0  0  0  0
    5.7805    1.7206    3.9613 N   0  0  0  0  0  0  0  0  0  0  0  0
    6.9379    1.9439    4.7786 C   0  0  0  0  0  0  0  0  0  0  0  0
    6.3729    2.2167    6.1431 C   0  0  0  0  0  0  0  0  0  0  0  0
    5.4437    1.2960    6.9415 C   0  0  0  0  0  0  0  0  0  0  0  0
    5.0816    2.7516    6.7316 C   0  0  0  0  0  0  0  0  0  0  0  0
    7.5168   -2.0324    2.7486 C   0  0  0  0  0  0  0  0  0  0  0  0
    8.3706   -1.7106    3.7856 C   0  0  0  0  0  0  0  0  0  0  0  0
    9.4097   -2.4755    3.9860 C   0  0  0  0  0  0  0  0  0  0  0  0
    9.6914   -3.4280    3.0936 C   0  0  0  0  0  0  0  0  0  0  0  0
   11.0199   -3.2852    3.1469 N   0  0  0  0  0  0  0  0  0  0  0  0
   11.6529   -4.0708    3.8658 C   0  0  0  0  0  0  0  0  0  0  0  0
   11.8790   -5.2532    3.4123 C   0  0  0  0  0  0  0  0  0  0  0  0
   13.5119   -5.4700    4.1153 C   0  0  0  0  0  0  0  0  0  0  0  0
   14.2616   -4.7782    5.3067 C   0  0  0  0  0  0  0  0  0  0  0  0
   15.3818   -5.3843    5.7739 N   0  0  0  0  0  0  0  0  0  0  0  0
   15.5081   -6.4889    5.0194 N   0  0  0  0  0  0  0  0  0  0  0  0
   16.5874   -7.4877    5.3207 C   0  0  0  0  0  0  0  0  0  0  0  0
   14.4445   -6.5007    4.0286 C   0  0  0  0  0  0  0  0  0  0  0  0
   10.7076   -5.4033    2.2986 N   0  0  0  0  0  0  0  0  0  0  0  0
    9.3682   -4.2596    2.2368 C   0  0  0  0  0  0  0  0  0  0  0  0
    7.9291   -3.2938    1.9403 C   0  0  0  0  0  0  0  0  0  0  0  0
    4.2369   -2.3805    2.5788 C   0  0  0  0  0  0  0  0  0  0  0  0
    0.3119   -4.0046    3.5508 H   0  0  0  0  0  0  0  0  0  0  0  0
    0.7558   -4.2260    1.8470 H   0  0  0  0  0  0  0  0  0  0  0  0
    0.2914   -2.5983    2.4843 H   0  0  0  0  0  0  0  0  0  0  0  0
    1.5636   -2.3402    0.6040 H   0  0  0  0  0  0  0  0  0  0  0  0
    1.5562   -0.3215   -2.2331 H   0  0  0  0  0  0  0  0  0  0  0  0
    1.0212   -0.5089   -0.5564 H   0  0  0  0  0  0  0  0  0  0  0  0
    1.5731   -1.9391   -1.5134 H   0  0  0  0  0  0  0  0  0  0  0  0
    5.3515   -0.3435    0.1588 H   0  0  0  0  0  0  0  0  0  0  0  0
    7.2171    0.3987    1.1029 H   0  0  0  0  0  0  0  0  0  0  0  0
    7.9176    0.4034    2.7190 H   0  0  0  0  0  0  0  0  0  0  0  0
    5.1410    1.2941    2.1087 H   0  0  0  0  0  0  0  0  0  0  0  0
    6.6234    2.3851    2.2413 H   0  0  0  0  0  0  0  0  0  0  0  0
    5.2948    0.8825    4.2701 H   0  0  0  0  0  0  0  0  0  0  0  0
    7.6030    2.7630    4.3853 H   0  0  0  0  0  0  0  0  0  0  0  0
    7.5864    1.0529    4.8224 H   0  0  0  0  0  0  0  0  0  0  0  0
    7.1441    2.7627    6.6463 H   0  0  0  0  0  0  0  0  0  0  0  0
    5.8208    0.9948    7.9122 H   0  0  0  0  0  0  0  0  0  0  0  0
    4.7508    0.5479    6.5523 H   0  0  0  0  0  0  0  0  0  0  0  0
    5.2719    3.4162    7.5751 H   0  0  0  0  0  0  0  0  0  0  0  0
    4.1981    3.0708    6.1942 H   0  0  0  0  0  0  0  0  0  0  0  0
    8.3744   -0.8172    4.3879 H   0  0  0  0  0  0  0  0  0  0  0  0
   10.1933   -2.2093    4.6864 H   0  0  0  0  0  0  0  0  0  0  0  0
   12.1575   -3.6202    4.6483 H   0  0  0  0  0  0  0  0  0  0  0  0
   14.0471   -3.8910    5.9404 H   0  0  0  0  0  0  0  0  0  0  0  0
   17.2971   -7.1611    6.1118 H   0  0  0  0  0  0  0  0  0  0  0  0
   17.2060   -7.7063    4.4376 H   0  0  0  0  0  0  0  0  0  0  0  0
   16.1601   -8.4343    5.6842 H   0  0  0  0  0  0  0  0  0  0  0  0
   14.4902   -7.3478    3.4023 H   0  0  0  0  0  0  0  0  0  0  0  0
    7.2426   -3.4095    1.1077 H   0  0  0  0  0  0  0  0  0  0  0  0
    4.4393   -3.0644    3.3855 H   0  0  0  0  0  0  0  0  0  0  0  0
  1  2  1  0  0  0  0
  1 35  1  0  0  0  0
  1 36  1  0  0  0  0
  1 37  1  0  0  0  0
  2  3  1  0  0  0  0
  3  4  1  0  0  0  0
  3 34  2  0  0  0  0
  4  5  2  0  0  0  0
  4 38  1  0  0  0  0
  5  6  1  0  0  0  0
  5  8  1  0  0  0  0
  6  7  1  0  0  0  0
  7 39  1  0  0  0  0
  7 40  1  0  0  0  0
  7 41  1  0  0  0  0
  8  9  2  0  0  0  0
  8 42  1  0  0  0  0
  9 10  1  0  0  0  0
  9 34  1  0  0  0  0
 10 11  1  0  0  0  0
 10 18  1  0  0  0  0
 11 12  1  0  0  0  0
 11 43  1  0  0  0  0
 11 44  1  0  0  0  0
 12 13  1  0  0  0  0
 12 45  1  0  0  0  0
 12 46  1  0  0  0  0
 13 14  1  0  0  0  0
 13 47  1  0  0  0  0
 14 15  1  0  0  0  0
 14 48  1  0  0  0  0
 14 49  1  0  0  0  0
 15 16  1  0  0  0  0
 15 17  1  0  0  0  0
 15 50  1  0  0  0  0
 16 17  1  0  0  0  0
 16 51  1  0  0  0  0
 16 52  1  0  0  0  0
 17 53  1  0  0  0  0
 17 54  1  0  0  0  0
 18 19  1  0  0  0  0
 18 33  2  0  0  0  0
 19 20  2  0  0  0  0
 19 55  1  0  0  0  0
 20 21  1  0  0  0  0
 20 56  1  0  0  0  0
 21 22  1  0  0  0  0
 21 32  2  0  0  0  0
 22 23  2  0  0  0  0
 23 24  1  0  0  0  0
 23 57  1  0  0  0  0
 24 25  1  0  0  0  0
 24 31  2  0  0  0  0
 25 26  1  0  0  0  0
 25 30  2  0  0  0  0
 26 27  2  0  0  0  0
 26 58  1  0  0  0  0
 27 28  1  0  0  0  0
 28 29  1  0  0  0  0
 28 30  1  0  0  0  0
 29 59  1  0  0  0  0
 29 60  1  0  0  0  0
 29 61  1  0  0  0  0
 30 62  1  0  0  0  0
 31 32  1  0  0  0  0
 32 33  1  0  0  0  0
 33 63  1  0  0  0  0
 34 64  1  0  0  0  0
M  END
$$$$
