CHEMBL3895848
 OpenBabel04072215373D

 56 60  0  0  0  0  0  0  0  0999 V2000
    0.9524    0.1579   -0.2634 C   0  0  0  0  0  0  0  0  0  0  0  0
    2.3694    0.0761   -0.1597 O   0  0  0  0  0  0  0  0  0  0  0  0
    2.9711   -0.9505   -0.8347 C   0  0  0  0  0  0  0  0  0  0  0  0
    4.0186   -1.5476   -0.1238 C   0  0  0  0  0  0  0  0  0  0  0  0
    4.7765   -2.6048   -0.6802 C   0  0  0  0  0  0  0  0  0  0  0  0
    5.8318   -3.2802   -0.0423 C   0  0  0  0  0  0  0  0  0  0  0  0
    6.1775   -2.9377    1.2937 N   0  0  0  0  0  0  0  0  0  0  0  0
    7.3911   -3.2906    1.9217 C   0  0  0  0  0  0  0  0  0  0  0  0
    8.6154   -3.1291    1.2573 C   0  0  0  0  0  0  0  0  0  0  0  0
    9.8182   -3.5000    1.8621 C   0  0  0  0  0  0  0  0  0  0  0  0
    9.8128   -4.0362    3.1484 C   0  0  0  0  0  0  0  0  0  0  0  0
   11.3292   -4.5058    3.8289 Cl  0  0  0  0  0  0  0  0  0  0  0  0
    8.6017   -4.1786    3.8344 C   0  0  0  0  0  0  0  0  0  0  0  0
    8.5184   -4.8317    5.4334 Cl  0  0  0  0  0  0  0  0  0  0  0  0
    7.3989   -3.7957    3.2262 C   0  0  0  0  0  0  0  0  0  0  0  0
    6.5278   -4.2580   -0.6542 N   0  0  0  0  0  0  0  0  0  0  0  0
    6.1637   -4.5729   -1.8975 C   0  0  0  0  0  0  0  0  0  0  0  0
    5.1803   -3.9984   -2.5943 N   0  0  0  0  0  0  0  0  0  0  0  0
    4.5023   -3.0242   -1.9833 C   0  0  0  0  0  0  0  0  0  0  0  0
    3.4825   -2.4000   -2.6871 C   0  0  0  0  0  0  0  0  0  0  0  0
    2.6882   -1.3819   -2.1347 C   0  0  0  0  0  0  0  0  0  0  0  0
    1.6746   -0.7671   -2.8307 O   0  0  0  0  0  0  0  0  0  0  0  0
    1.2094   -1.4649   -3.9942 C   0  0  0  0  0  0  0  0  0  0  0  0
   -0.1629   -0.9783   -4.3153 C   0  0  0  0  0  0  0  0  0  0  0  0
   -1.2533   -1.7268   -4.2280 N   0  0  0  0  0  0  0  0  0  0  0  0
   -2.2963   -0.9205   -4.5801 C   0  0  0  0  0  0  0  0  0  0  0  0
   -1.8467    0.3351   -4.9099 C   0  0  0  0  0  0  0  0  0  0  0  0
   -0.4806    0.2807   -4.7763 N   0  0  0  0  0  0  0  0  0  0  0  0
    0.4113    1.4221   -4.9447 C   0  0  0  0  0  0  0  0  0  0  0  0
    0.8153    1.7533   -6.3656 C   0  0  0  0  0  0  0  0  0  0  0  0
    0.5476    0.9466   -7.4828 C   0  0  0  0  0  0  0  0  0  0  0  0
    0.9922    1.3216   -8.7578 C   0  0  0  0  0  0  0  0  0  0  0  0
    1.7121    2.5004   -8.9389 C   0  0  0  0  0  0  0  0  0  0  0  0
    1.9837    3.3157   -7.8458 C   0  0  0  0  0  0  0  0  0  0  0  0
    1.5397    2.9448   -6.5738 C   0  0  0  0  0  0  0  0  0  0  0  0
    0.5698    0.4369    0.7245 H   0  0  0  0  0  0  0  0  0  0  0  0
    0.4759   -0.7872   -0.5422 H   0  0  0  0  0  0  0  0  0  0  0  0
    0.6834    0.9547   -0.9626 H   0  0  0  0  0  0  0  0  0  0  0  0
    4.2463   -1.1760    0.8732 H   0  0  0  0  0  0  0  0  0  0  0  0
    5.3662   -3.0664    1.8897 H   0  0  0  0  0  0  0  0  0  0  0  0
    8.6357   -2.7149    0.2512 H   0  0  0  0  0  0  0  0  0  0  0  0
   10.7487   -3.3730    1.3151 H   0  0  0  0  0  0  0  0  0  0  0  0
    6.4648   -3.9221    3.7677 H   0  0  0  0  0  0  0  0  0  0  0  0
    6.7148   -5.3690   -2.3859 H   0  0  0  0  0  0  0  0  0  0  0  0
    3.3371   -2.7401   -3.7087 H   0  0  0  0  0  0  0  0  0  0  0  0
    1.1273   -2.5410   -3.7950 H   0  0  0  0  0  0  0  0  0  0  0  0
    1.8876   -1.2932   -4.8377 H   0  0  0  0  0  0  0  0  0  0  0  0
   -3.3146   -1.2848   -4.5643 H   0  0  0  0  0  0  0  0  0  0  0  0
   -2.3671    1.2307   -5.2134 H   0  0  0  0  0  0  0  0  0  0  0  0
    1.3091    1.2485   -4.3452 H   0  0  0  0  0  0  0  0  0  0  0  0
   -0.1187    2.2815   -4.5145 H   0  0  0  0  0  0  0  0  0  0  0  0
   -0.0115    0.0194   -7.3879 H   0  0  0  0  0  0  0  0  0  0  0  0
    0.7755    0.6868   -9.6145 H   0  0  0  0  0  0  0  0  0  0  0  0
    2.0583    2.7837   -9.9300 H   0  0  0  0  0  0  0  0  0  0  0  0
    2.5425    4.2375   -7.9810 H   0  0  0  0  0  0  0  0  0  0  0  0
    1.7669    3.6008   -5.7344 H   0  0  0  0  0  0  0  0  0  0  0  0
  1  2  1  0  0  0  0
  1 36  1  0  0  0  0
  1 37  1  0  0  0  0
  1 38  1  0  0  0  0
  2  3  1  0  0  0  0
  3  4  1  0  0  0  0
  3 21  2  0  0  0  0
  4  5  2  0  0  0  0
  4 39  1  0  0  0  0
  5  6  1  0  0  0  0
  5 19  1  0  0  0  0
  6  7  1  0  0  0  0
  6 16  2  0  0  0  0
  7  8  1  0  0  0  0
  7 40  1  0  0  0  0
  8  9  1  0  0  0  0
  8 15  2  0  0  0  0
  9 10  2  0  0  0  0
  9 41  1  0  0  0  0
 10 11  1  0  0  0  0
 10 42  1  0  0  0  0
 11 12  1  0  0  0  0
 11 13  2  0  0  0  0
 13 14  1  0  0  0  0
 13 15  1  0  0  0  0
 15 43  1  0  0  0  0
 16 17  1  0  0  0  0
 17 18  2  0  0  0  0
 17 44  1  0  0  0  0
 18 19  1  0  0  0  0
 19 20  2  0  0  0  0
 20 21  1  0  0  0  0
 20 45  1  0  0  0  0
 21 22  1  0  0  0  0
 22 23  1  0  0  0  0
 23 24  1  0  0  0  0
 23 46  1  0  0  0  0
 23 47  1  0  0  0  0
 24 25  2  0  0  0  0
 24 28  1  0  0  0  0
 25 26  1  0  0  0  0
 26 27  2  0  0  0  0
 26 48  1  0  0  0  0
 27 28  1  0  0  0  0
 27 49  1  0  0  0  0
 28 29  1  0  0  0  0
 29 30  1  0  0  0  0
 29 50  1  0  0  0  0
 29 51  1  0  0  0  0
 30 31  1  0  0  0  0
 30 35  2  0  0  0  0
 31 32  2  0  0  0  0
 31 52  1  0  0  0  0
 32 33  1  0  0  0  0
 32 53  1  0  0  0  0
 33 34  2  0  0  0  0
 33 54  1  0  0  0  0
 34 35  1  0  0  0  0
 34 55  1  0  0  0  0
 35 56  1  0  0  0  0
M  END
$$$$
