CHEMBL3955817
 OpenBabel04072215373D

 56 59  0  0  0  0  0  0  0  0999 V2000
    0.2893   -3.1666   -3.1806 C   0  0  0  0  0  0  0  0  0  0  0  0
    1.6758   -3.3262   -3.4855 O   0  0  0  0  0  0  0  0  0  0  0  0
    2.5527   -2.4479   -2.8994 C   0  0  0  0  0  0  0  0  0  0  0  0
    2.1890   -1.2355   -2.3154 C   0  0  0  0  0  0  0  0  0  0  0  0
    3.1599   -0.4577   -1.6856 C   0  0  0  0  0  0  0  0  0  0  0  0
    2.9180    0.7375   -1.0600 O   0  0  0  0  0  0  0  0  0  0  0  0
    1.8144    1.4841   -1.5611 C   0  0  0  0  0  0  0  0  0  0  0  0
    4.4815   -0.9170   -1.5936 C   0  0  0  0  0  0  0  0  0  0  0  0
    4.8831   -2.1265   -2.1728 C   0  0  0  0  0  0  0  0  0  0  0  0
    6.1322   -2.7331   -1.8945 N   0  0  0  0  0  0  0  0  0  0  0  0
    6.6792   -2.5262   -0.5103 C   0  0  0  0  0  0  0  0  0  0  0  0
    5.7794   -2.7940    0.6940 C   0  0  0  0  0  0  0  0  0  0  0  0
    4.9847   -4.0770    0.7998 C   0  0  0  0  0  0  0  0  0  0  0  0
    5.9068   -1.9666    1.6958 N   0  0  0  0  0  0  0  0  0  0  0  0
    5.2138   -2.4023    2.8300 O   0  0  0  0  0  0  0  0  0  0  0  0
    7.2813   -2.9112   -2.7586 C   0  0  0  0  0  0  0  0  0  0  0  0
    7.9679   -4.1150   -2.5524 C   0  0  0  0  0  0  0  0  0  0  0  0
    9.3299   -4.1779   -2.7530 C   0  0  0  0  0  0  0  0  0  0  0  0
   10.0259   -3.1347   -3.3145 C   0  0  0  0  0  0  0  0  0  0  0  0
   11.3559   -3.2638   -3.2598 N   0  0  0  0  0  0  0  0  0  0  0  0
   12.0665   -2.3553   -3.9445 C   0  0  0  0  0  0  0  0  0  0  0  0
   11.4584   -1.3974   -4.7339 C   0  0  0  0  0  0  0  0  0  0  0  0
   12.3008   -0.7677   -5.7408 C   0  0  0  0  0  0  0  0  0  0  0  0
   12.4664   -1.1021   -7.1090 C   0  0  0  0  0  0  0  0  0  0  0  0
   13.4584   -0.4177   -7.6920 N   0  0  0  0  0  0  0  0  0  0  0  0
   13.9204    0.3599   -6.6983 N   0  0  0  0  0  0  0  0  0  0  0  0
   14.7175    1.5266   -6.9943 C   0  0  0  0  0  0  0  0  0  0  0  0
   13.3970    0.0333   -5.4764 C   0  0  0  0  0  0  0  0  0  0  0  0
   10.1074   -1.1794   -4.6836 N   0  0  0  0  0  0  0  0  0  0  0  0
    9.3456   -2.0316   -3.8839 C   0  0  0  0  0  0  0  0  0  0  0  0
    7.9485   -1.9163   -3.5269 C   0  0  0  0  0  0  0  0  0  0  0  0
    3.9016   -2.8563   -2.8740 C   0  0  0  0  0  0  0  0  0  0  0  0
   -0.2146   -4.1169   -3.3877 H   0  0  0  0  0  0  0  0  0  0  0  0
   -0.1581   -2.4024   -3.8248 H   0  0  0  0  0  0  0  0  0  0  0  0
    0.1106   -2.9363   -2.1239 H   0  0  0  0  0  0  0  0  0  0  0  0
    1.1565   -0.9085   -2.3269 H   0  0  0  0  0  0  0  0  0  0  0  0
    1.9010    2.5046   -1.1759 H   0  0  0  0  0  0  0  0  0  0  0  0
    0.8670    1.0701   -1.2012 H   0  0  0  0  0  0  0  0  0  0  0  0
    1.8289    1.5388   -2.6552 H   0  0  0  0  0  0  0  0  0  0  0  0
    5.1893   -0.3115   -1.0344 H   0  0  0  0  0  0  0  0  0  0  0  0
    7.0909   -1.5129   -0.4315 H   0  0  0  0  0  0  0  0  0  0  0  0
    7.5171   -3.2115   -0.3204 H   0  0  0  0  0  0  0  0  0  0  0  0
    4.9280   -4.6072   -0.1507 H   0  0  0  0  0  0  0  0  0  0  0  0
    3.9688   -3.8543    1.1436 H   0  0  0  0  0  0  0  0  0  0  0  0
    5.4597   -4.7324    1.5395 H   0  0  0  0  0  0  0  0  0  0  0  0
    5.4566   -1.7296    3.4944 H   0  0  0  0  0  0  0  0  0  0  0  0
    7.4668   -4.9397   -2.0557 H   0  0  0  0  0  0  0  0  0  0  0  0
    9.8766   -5.0518   -2.4097 H   0  0  0  0  0  0  0  0  0  0  0  0
   13.1417   -2.4629   -3.8824 H   0  0  0  0  0  0  0  0  0  0  0  0
   11.9256   -1.8310   -7.6996 H   0  0  0  0  0  0  0  0  0  0  0  0
   14.7993    1.6526   -8.0773 H   0  0  0  0  0  0  0  0  0  0  0  0
   15.7055    1.4192   -6.5429 H   0  0  0  0  0  0  0  0  0  0  0  0
   14.1939    2.3885   -6.5703 H   0  0  0  0  0  0  0  0  0  0  0  0
   13.8037    0.4466   -4.5637 H   0  0  0  0  0  0  0  0  0  0  0  0
    7.4251   -0.9974   -3.7956 H   0  0  0  0  0  0  0  0  0  0  0  0
    4.1609   -3.8125   -3.3240 H   0  0  0  0  0  0  0  0  0  0  0  0
  1  2  1  0  0  0  0
  1 33  1  0  0  0  0
  1 34  1  0  0  0  0
  1 35  1  0  0  0  0
  2  3  1  0  0  0  0
  3  4  1  0  0  0  0
  3 32  2  0  0  0  0
  4  5  2  0  0  0  0
  4 36  1  0  0  0  0
  5  6  1  0  0  0  0
  5  8  1  0  0  0  0
  6  7  1  0  0  0  0
  7 37  1  0  0  0  0
  7 38  1  0  0  0  0
  7 39  1  0  0  0  0
  8  9  2  0  0  0  0
  8 40  1  0  0  0  0
  9 10  1  0  0  0  0
  9 32  1  0  0  0  0
 10 11  1  0  0  0  0
 10 16  1  0  0  0  0
 11 12  1  0  0  0  0
 11 41  1  0  0  0  0
 11 42  1  0  0  0  0
 12 13  1  0  0  0  0
 12 14  2  0  0  0  0
 13 43  1  0  0  0  0
 13 44  1  0  0  0  0
 13 45  1  0  0  0  0
 14 15  1  0  0  0  0
 15 46  1  0  0  0  0
 16 17  1  0  0  0  0
 16 31  2  0  0  0  0
 17 18  2  0  0  0  0
 17 47  1  0  0  0  0
 18 19  1  0  0  0  0
 18 48  1  0  0  0  0
 19 20  1  0  0  0  0
 19 30  2  0  0  0  0
 20 21  2  0  0  0  0
 21 22  1  0  0  0  0
 21 49  1  0  0  0  0
 22 23  1  0  0  0  0
 22 29  2  0  0  0  0
 23 24  1  0  0  0  0
 23 28  2  0  0  0  0
 24 25  2  0  0  0  0
 24 50  1  0  0  0  0
 25 26  1  0  0  0  0
 26 27  1  0  0  0  0
 26 28  1  0  0  0  0
 27 51  1  0  0  0  0
 27 52  1  0  0  0  0
 27 53  1  0  0  0  0
 28 54  1  0  0  0  0
 29 30  1  0  0  0  0
 30 31  1  0  0  0  0
 31 55  1  0  0  0  0
 32 56  1  0  0  0  0
M  END
$$$$
