CHEMBL3926088
 OpenBabel04072215373D

 63 67  0  0  0  0  0  0  0  0999 V2000
    1.4057   -0.5494   -1.0579 C   0  0  0  0  0  0  0  0  0  0  0  0
    2.5476   -0.1707   -0.2923 O   0  0  0  0  0  0  0  0  0  0  0  0
    3.1363   -1.1537    0.4583 C   0  0  0  0  0  0  0  0  0  0  0  0
    2.6761   -2.4422    0.6047 C   0  0  0  0  0  0  0  0  0  0  0  0
    3.4732   -3.3884    1.2634 C   0  0  0  0  0  0  0  0  0  0  0  0
    3.0969   -4.8396    1.1950 C   0  0  0  0  0  0  0  0  0  0  0  0
    3.0116   -5.2898   -0.2060 N   0  0  0  0  0  0  0  0  0  0  0  0
    4.2918   -5.1421   -0.9144 C   0  0  0  0  0  0  0  0  0  0  0  0
    2.6046   -6.6897   -0.2330 C   0  0  0  0  0  0  0  0  0  0  0  0
    4.7159   -3.0407    1.8046 C   0  0  0  0  0  0  0  0  0  0  0  0
    5.2374   -1.7706    1.6279 C   0  0  0  0  0  0  0  0  0  0  0  0
    6.6066   -1.5326    1.9409 N   0  0  0  0  0  0  0  0  0  0  0  0
    7.0119   -0.0987    1.8893 C   0  0  0  0  0  0  0  0  0  0  0  0
    7.8058    0.2824    0.6670 C   0  0  0  0  0  0  0  0  0  0  0  0
    7.2084    0.0363   -0.7131 C   0  0  0  0  0  0  0  0  0  0  0  0
    8.5325   -0.5675   -0.3517 C   0  0  0  0  0  0  0  0  0  0  0  0
    7.6523   -2.4495    2.3329 C   0  0  0  0  0  0  0  0  0  0  0  0
    8.4032   -2.0522    3.4064 C   0  0  0  0  0  0  0  0  0  0  0  0
    9.5319   -2.7267    3.7158 C   0  0  0  0  0  0  0  0  0  0  0  0
   10.0155   -3.7219    2.9235 C   0  0  0  0  0  0  0  0  0  0  0  0
   11.2588   -3.5661    2.8586 N   0  0  0  0  0  0  0  0  0  0  0  0
   11.8317   -4.4554    3.5882 C   0  0  0  0  0  0  0  0  0  0  0  0
   12.0234   -5.7863    3.3304 C   0  0  0  0  0  0  0  0  0  0  0  0
   13.4495   -5.6883    4.2092 C   0  0  0  0  0  0  0  0  0  0  0  0
   14.3316   -4.4854    4.5150 C   0  0  0  0  0  0  0  0  0  0  0  0
   15.3496   -4.6724    5.3626 N   0  0  0  0  0  0  0  0  0  0  0  0
   15.2997   -5.9775    5.6486 N   0  0  0  0  0  0  0  0  0  0  0  0
   16.2661   -6.4997    6.6266 C   0  0  0  0  0  0  0  0  0  0  0  0
   14.2338   -6.6181    4.9497 C   0  0  0  0  0  0  0  0  0  0  0  0
   10.7307   -5.7957    2.5431 N   0  0  0  0  0  0  0  0  0  0  0  0
    9.4594   -4.6949    2.2518 C   0  0  0  0  0  0  0  0  0  0  0  0
    8.1118   -3.7583    1.7619 C   0  0  0  0  0  0  0  0  0  0  0  0
    4.3471   -0.8083    1.0703 C   0  0  0  0  0  0  0  0  0  0  0  0
    1.1332    0.2915   -1.7043 H   0  0  0  0  0  0  0  0  0  0  0  0
    0.5642   -0.7449   -0.3877 H   0  0  0  0  0  0  0  0  0  0  0  0
    1.5996   -1.4103   -1.7102 H   0  0  0  0  0  0  0  0  0  0  0  0
    1.7266   -2.7612    0.1891 H   0  0  0  0  0  0  0  0  0  0  0  0
    2.1285   -4.9407    1.6998 H   0  0  0  0  0  0  0  0  0  0  0  0
    3.8205   -5.4468    1.7538 H   0  0  0  0  0  0  0  0  0  0  0  0
    4.6462   -4.1051   -0.9511 H   0  0  0  0  0  0  0  0  0  0  0  0
    4.1752   -5.4437   -1.9609 H   0  0  0  0  0  0  0  0  0  0  0  0
    5.0796   -5.7492   -0.4555 H   0  0  0  0  0  0  0  0  0  0  0  0
    1.6468   -6.8247    0.2800 H   0  0  0  0  0  0  0  0  0  0  0  0
    3.3516   -7.3299    0.2488 H   0  0  0  0  0  0  0  0  0  0  0  0
    2.4682   -7.0238   -1.2658 H   0  0  0  0  0  0  0  0  0  0  0  0
    5.3027   -3.7890    2.3254 H   0  0  0  0  0  0  0  0  0  0  0  0
    7.5338    0.2383    2.7958 H   0  0  0  0  0  0  0  0  0  0  0  0
    6.1683    0.6004    1.9325 H   0  0  0  0  0  0  0  0  0  0  0  0
    8.3752    1.1751    0.9012 H   0  0  0  0  0  0  0  0  0  0  0  0
    7.1994    0.8348   -1.4462 H   0  0  0  0  0  0  0  0  0  0  0  0
    6.3715   -0.6438   -0.8524 H   0  0  0  0  0  0  0  0  0  0  0  0
    9.3965   -0.1125   -0.8307 H   0  0  0  0  0  0  0  0  0  0  0  0
    8.6465   -1.6305   -0.2083 H   0  0  0  0  0  0  0  0  0  0  0  0
    8.3171   -1.1263    3.9541 H   0  0  0  0  0  0  0  0  0  0  0  0
   10.2247   -2.3620    4.4321 H   0  0  0  0  0  0  0  0  0  0  0  0
   12.1315   -4.0197    4.5238 H   0  0  0  0  0  0  0  0  0  0  0  0
   14.2093   -3.4494    4.2040 H   0  0  0  0  0  0  0  0  0  0  0  0
   16.9955   -5.7306    6.9448 H   0  0  0  0  0  0  0  0  0  0  0  0
   16.8396   -7.3292    6.2034 H   0  0  0  0  0  0  0  0  0  0  0  0
   15.7411   -6.8261    7.5300 H   0  0  0  0  0  0  0  0  0  0  0  0
   14.1642   -7.6790    5.1005 H   0  0  0  0  0  0  0  0  0  0  0  0
    7.5138   -4.0587    0.8710 H   0  0  0  0  0  0  0  0  0  0  0  0
    4.5451    0.2587    1.0533 H   0  0  0  0  0  0  0  0  0  0  0  0
  1  2  1  0  0  0  0
  1 34  1  0  0  0  0
  1 35  1  0  0  0  0
  1 36  1  0  0  0  0
  2  3  1  0  0  0  0
  3  4  1  0  0  0  0
  3 33  2  0  0  0  0
  4  5  2  0  0  0  0
  4 37  1  0  0  0  0
  5  6  1  0  0  0  0
  5 10  1  0  0  0  0
  6  7  1  0  0  0  0
  6 38  1  0  0  0  0
  6 39  1  0  0  0  0
  7  8  1  0  0  0  0
  7  9  1  0  0  0  0
  8 40  1  0  0  0  0
  8 41  1  0  0  0  0
  8 42  1  0  0  0  0
  9 43  1  0  0  0  0
  9 44  1  0  0  0  0
  9 45  1  0  0  0  0
 10 11  2  0  0  0  0
 10 46  1  0  0  0  0
 11 12  1  0  0  0  0
 11 33  1  0  0  0  0
 12 13  1  0  0  0  0
 12 17  1  0  0  0  0
 13 14  1  0  0  0  0
 13 47  1  0  0  0  0
 13 48  1  0  0  0  0
 14 15  1  0  0  0  0
 14 16  1  0  0  0  0
 14 49  1  0  0  0  0
 15 16  1  0  0  0  0
 15 50  1  0  0  0  0
 15 51  1  0  0  0  0
 16 52  1  0  0  0  0
 16 53  1  0  0  0  0
 17 18  1  0  0  0  0
 17 32  2  0  0  0  0
 18 19  2  0  0  0  0
 18 54  1  0  0  0  0
 19 20  1  0  0  0  0
 19 55  1  0  0  0  0
 20 21  1  0  0  0  0
 20 31  2  0  0  0  0
 21 22  2  0  0  0  0
 22 23  1  0  0  0  0
 22 56  1  0  0  0  0
 23 24  1  0  0  0  0
 23 30  2  0  0  0  0
 24 25  1  0  0  0  0
 24 29  2  0  0  0  0
 25 26  2  0  0  0  0
 25 57  1  0  0  0  0
 26 27  1  0  0  0  0
 27 28  1  0  0  0  0
 27 29  1  0  0  0  0
 28 58  1  0  0  0  0
 28 59  1  0  0  0  0
 28 60  1  0  0  0  0
 29 61  1  0  0  0  0
 30 31  1  0  0  0  0
 31 32  1  0  0  0  0
 32 62  1  0  0  0  0
 33 63  1  0  0  0  0
M  END
$$$$
