CHEMBL3978686
 OpenBabel04072215373D

 42 45  0  0  0  0  0  0  0  0999 V2000
    1.5090   -0.0814    0.9352 O   0  0  0  0  0  0  0  0  0  0  0  0
    2.5621   -0.1108   -0.0574 S   0  0  0  0  0  0  0  0  0  0  0  0
    3.8088   -0.8006    0.2117 O   0  0  0  0  0  0  0  0  0  0  0  0
    1.8708   -0.7152   -1.4733 N   0  0  0  0  0  0  0  0  0  0  0  0
    2.7646   -0.8974   -2.5454 C   0  0  0  0  0  0  0  0  0  0  0  0
    3.5809   -2.0114   -2.6425 C   0  0  0  0  0  0  0  0  0  0  0  0
    4.4306   -2.0978   -3.7403 C   0  0  0  0  0  0  0  0  0  0  0  0
    4.4405   -1.0655   -4.6733 C   0  0  0  0  0  0  0  0  0  0  0  0
    3.5890    0.0113   -4.4713 C   0  0  0  0  0  0  0  0  0  0  0  0
    2.7419    0.1170   -3.4241 N   0  0  0  0  0  0  0  0  0  0  0  0
    2.9412    1.5850   -0.4569 C   0  0  0  0  0  0  0  0  0  0  0  0
    1.9689    2.5634   -0.2561 C   0  0  0  0  0  0  0  0  0  0  0  0
    2.2819    3.9126   -0.4674 C   0  0  0  0  0  0  0  0  0  0  0  0
    3.5548    4.3124   -0.8949 C   0  0  0  0  0  0  0  0  0  0  0  0
    3.9613    5.6618   -1.0421 N   0  0  0  0  0  0  0  0  0  0  0  0
    3.2635    6.8716   -0.7763 C   0  0  0  0  0  0  0  0  0  0  0  0
    2.0402    6.8343   -0.2005 N   0  0  0  0  0  0  0  0  0  0  0  0
    1.3517    7.9660    0.1268 N   0  0  0  0  0  0  0  0  0  0  0  0
    1.9036    9.1580   -0.1373 C   0  0  0  0  0  0  0  0  0  0  0  0
    3.1465    9.2955   -0.7329 C   0  0  0  0  0  0  0  0  0  0  0  0
    3.6606   10.5711   -1.0255 C   0  0  0  0  0  0  0  0  0  0  0  0
    4.9184   10.7131   -1.6040 C   0  0  0  0  0  0  0  0  0  0  0  0
    5.6858    9.5842   -1.8619 C   0  0  0  0  0  0  0  0  0  0  0  0
    5.1811    8.3108   -1.5776 C   0  0  0  0  0  0  0  0  0  0  0  0
    3.8816    8.1268   -1.0358 C   0  0  0  0  0  0  0  0  0  0  0  0
    4.5220    3.3060   -1.0777 C   0  0  0  0  0  0  0  0  0  0  0  0
    4.2268    1.9524   -0.8577 C   0  0  0  0  0  0  0  0  0  0  0  0
    1.1187   -0.0987   -1.7744 H   0  0  0  0  0  0  0  0  0  0  0  0
    3.5503   -2.7955   -1.8939 H   0  0  0  0  0  0  0  0  0  0  0  0
    5.0777   -2.9615   -3.8664 H   0  0  0  0  0  0  0  0  0  0  0  0
    5.0946   -1.0996   -5.5376 H   0  0  0  0  0  0  0  0  0  0  0  0
    3.5661    0.8430   -5.1702 H   0  0  0  0  0  0  0  0  0  0  0  0
    0.9714    2.3013    0.0913 H   0  0  0  0  0  0  0  0  0  0  0  0
    1.4892    4.6309   -0.2899 H   0  0  0  0  0  0  0  0  0  0  0  0
    4.5865    5.7598   -1.8317 H   0  0  0  0  0  0  0  0  0  0  0  0
    1.3036   10.0102    0.1615 H   0  0  0  0  0  0  0  0  0  0  0  0
    3.0775   11.4652   -0.8117 H   0  0  0  0  0  0  0  0  0  0  0  0
    5.2999   11.7027   -1.8420 H   0  0  0  0  0  0  0  0  0  0  0  0
    6.6810    9.6935   -2.2874 H   0  0  0  0  0  0  0  0  0  0  0  0
    5.8276    7.4605   -1.7789 H   0  0  0  0  0  0  0  0  0  0  0  0
    5.5378    3.5727   -1.3622 H   0  0  0  0  0  0  0  0  0  0  0  0
    5.0036    1.2022   -0.9801 H   0  0  0  0  0  0  0  0  0  0  0  0
  1  2  2  0  0  0  0
  2  3  2  0  0  0  0
  2  4  1  0  0  0  0
  2 11  1  0  0  0  0
  4  5  1  0  0  0  0
  4 28  1  0  0  0  0
  5  6  1  0  0  0  0
  5 10  2  0  0  0  0
  6  7  2  0  0  0  0
  6 29  1  0  0  0  0
  7  8  1  0  0  0  0
  7 30  1  0  0  0  0
  8  9  2  0  0  0  0
  8 31  1  0  0  0  0
  9 10  1  0  0  0  0
  9 32  1  0  0  0  0
 11 12  1  0  0  0  0
 11 27  2  0  0  0  0
 12 13  2  0  0  0  0
 12 33  1  0  0  0  0
 13 14  1  0  0  0  0
 13 34  1  0  0  0  0
 14 15  1  0  0  0  0
 14 26  2  0  0  0  0
 15 16  1  0  0  0  0
 15 35  1  0  0  0  0
 16 17  1  0  0  0  0
 16 25  2  0  0  0  0
 17 18  2  0  0  0  0
 18 19  1  0  0  0  0
 19 20  2  0  0  0  0
 19 36  1  0  0  0  0
 20 21  1  0  0  0  0
 20 25  1  0  0  0  0
 21 22  2  0  0  0  0
 21 37  1  0  0  0  0
 22 23  1  0  0  0  0
 22 38  1  0  0  0  0
 23 24  2  0  0  0  0
 23 39  1  0  0  0  0
 24 25  1  0  0  0  0
 24 40  1  0  0  0  0
 26 27  1  0  0  0  0
 26 41  1  0  0  0  0
 27 42  1  0  0  0  0
M  END
$$$$
