CHEMBL2088099
 OpenBabel04072215363D

 46 48  0  0  0  0  0  0  0  0999 V2000
    4.1155    4.6263   -3.5032 C   0  0  0  0  0  0  0  0  0  0  0  0
    4.0205    3.5571   -2.5729 O   0  0  0  0  0  0  0  0  0  0  0  0
    4.1627    4.0104   -1.2256 C   0  0  0  0  0  0  0  0  0  0  0  0
    4.0856    2.8090   -0.2861 C   0  0  0  0  0  0  0  0  0  0  0  0
    5.0719    1.6885   -0.6362 C   0  0  0  0  0  0  0  0  0  0  0  0
    6.4850    2.1261   -0.4979 C   0  0  0  0  0  0  0  0  0  0  0  0
    7.3247    2.1605    0.5867 C   0  0  0  0  0  0  0  0  0  0  0  0
    8.5127    2.7792    0.1373 C   0  0  0  0  0  0  0  0  0  0  0  0
    9.5791    3.1251    0.8874 N   0  0  0  0  0  0  0  0  0  0  0  0
    9.6820    3.2520    2.2871 C   0  0  0  0  0  0  0  0  0  0  0  0
   10.6838    4.0430    2.8095 C   0  0  0  0  0  0  0  0  0  0  0  0
   10.6433    4.2632    4.1652 C   0  0  0  0  0  0  0  0  0  0  0  0
    9.6997    3.7475    4.9672 N   0  0  0  0  0  0  0  0  0  0  0  0
    8.8205    2.9209    4.4041 C   0  0  0  0  0  0  0  0  0  0  0  0
    7.9197    2.3226    5.2576 N   0  0  0  0  0  0  0  0  0  0  0  0
    7.1710    1.1899    4.7406 C   0  0  0  0  0  0  0  0  0  0  0  0
    6.6221    0.3549    5.8411 C   0  0  0  0  0  0  0  0  0  0  0  0
    7.0066    0.1525    7.1434 C   0  0  0  0  0  0  0  0  0  0  0  0
    6.0698   -0.7703    7.6470 C   0  0  0  0  0  0  0  0  0  0  0  0
    6.0011   -1.3393    9.0104 C   0  0  0  0  0  0  0  0  0  0  0  0
    5.1746   -1.1147    6.7124 N   0  0  0  0  0  0  0  0  0  0  0  0
    5.5315   -0.4062    5.5729 O   0  0  0  0  0  0  0  0  0  0  0  0
    8.7790    2.6655    3.0926 N   0  0  0  0  0  0  0  0  0  0  0  0
    8.4450    3.0440   -1.1735 N   0  0  0  0  0  0  0  0  0  0  0  0
    7.2142    2.6395   -1.5314 N   0  0  0  0  0  0  0  0  0  0  0  0
    3.9408    4.2227   -4.5039 H   0  0  0  0  0  0  0  0  0  0  0  0
    5.1178    5.0636   -3.4731 H   0  0  0  0  0  0  0  0  0  0  0  0
    3.3604    5.3901   -3.2953 H   0  0  0  0  0  0  0  0  0  0  0  0
    3.3573    4.7135   -0.9872 H   0  0  0  0  0  0  0  0  0  0  0  0
    5.1180    4.5353   -1.1103 H   0  0  0  0  0  0  0  0  0  0  0  0
    3.0745    2.3876   -0.3404 H   0  0  0  0  0  0  0  0  0  0  0  0
    4.2405    3.1477    0.7448 H   0  0  0  0  0  0  0  0  0  0  0  0
    4.8861    1.3100   -1.6478 H   0  0  0  0  0  0  0  0  0  0  0  0
    4.8959    0.8450    0.0435 H   0  0  0  0  0  0  0  0  0  0  0  0
    7.0835    1.8250    1.5840 H   0  0  0  0  0  0  0  0  0  0  0  0
   10.3260    3.5704    0.3737 H   0  0  0  0  0  0  0  0  0  0  0  0
   11.4420    4.5068    2.1960 H   0  0  0  0  0  0  0  0  0  0  0  0
   11.3820    4.8868    4.6590 H   0  0  0  0  0  0  0  0  0  0  0  0
    7.3449    3.0551    5.6623 H   0  0  0  0  0  0  0  0  0  0  0  0
    7.8241    0.5340    4.1474 H   0  0  0  0  0  0  0  0  0  0  0  0
    6.3585    1.5315    4.0871 H   0  0  0  0  0  0  0  0  0  0  0  0
    7.8449    0.6103    7.6492 H   0  0  0  0  0  0  0  0  0  0  0  0
    6.8017   -0.9411    9.6434 H   0  0  0  0  0  0  0  0  0  0  0  0
    6.1062   -2.4282    8.9798 H   0  0  0  0  0  0  0  0  0  0  0  0
    5.0451   -1.0922    9.4824 H   0  0  0  0  0  0  0  0  0  0  0  0
    6.9124    2.7871   -2.4908 H   0  0  0  0  0  0  0  0  0  0  0  0
  1  2  1  0  0  0  0
  1 26  1  0  0  0  0
  1 27  1  0  0  0  0
  1 28  1  0  0  0  0
  2  3  1  0  0  0  0
  3  4  1  0  0  0  0
  3 29  1  0  0  0  0
  3 30  1  0  0  0  0
  4  5  1  0  0  0  0
  4 31  1  0  0  0  0
  4 32  1  0  0  0  0
  5  6  1  0  0  0  0
  5 33  1  0  0  0  0
  5 34  1  0  0  0  0
  6  7  2  0  0  0  0
  6 25  1  0  0  0  0
  7  8  1  0  0  0  0
  7 35  1  0  0  0  0
  8  9  1  0  0  0  0
  8 24  2  0  0  0  0
  9 10  1  0  0  0  0
  9 36  1  0  0  0  0
 10 11  1  0  0  0  0
 10 23  2  0  0  0  0
 11 12  2  0  0  0  0
 11 37  1  0  0  0  0
 12 13  1  0  0  0  0
 12 38  1  0  0  0  0
 13 14  2  0  0  0  0
 14 15  1  0  0  0  0
 14 23  1  0  0  0  0
 15 16  1  0  0  0  0
 15 39  1  0  0  0  0
 16 17  1  0  0  0  0
 16 40  1  0  0  0  0
 16 41  1  0  0  0  0
 17 18  2  0  0  0  0
 17 22  1  0  0  0  0
 18 19  1  0  0  0  0
 18 42  1  0  0  0  0
 19 20  1  0  0  0  0
 19 21  2  0  0  0  0
 20 43  1  0  0  0  0
 20 44  1  0  0  0  0
 20 45  1  0  0  0  0
 21 22  1  0  0  0  0
 24 25  1  0  0  0  0
 25 46  1  0  0  0  0
M  END
$$$$
