CHEMBL89363
 OpenBabel04072215383D

 38 40  0  0  0  0  0  0  0  0999 V2000
    2.2231   -0.1600   -0.0222 C   0  0  0  0  0  0  0  0  0  0  0  0
    0.7420   -0.0115   -0.0005 C   0  0  0  0  0  0  0  0  0  0  0  0
   -0.1600   -1.0562   -0.0117 C   0  0  0  0  0  0  0  0  0  0  0  0
   -1.4235   -0.5363   -0.0163 N   0  0  0  0  0  0  0  0  0  0  0  0
   -1.3668    0.8329    0.0185 C   0  0  0  0  0  0  0  0  0  0  0  0
   -2.5922    1.5412    0.0630 C   0  0  0  0  0  0  0  0  0  0  0  0
   -3.2467    1.9525   -1.0332 C   0  0  0  0  0  0  0  0  0  0  0  0
   -2.8462    1.7334   -2.4736 C   0  0  0  0  0  0  0  0  0  0  0  0
   -1.8551    1.1969   -2.9247 O   0  0  0  0  0  0  0  0  0  0  0  0
   -3.8881    2.2683   -3.2154 N   0  0  0  0  0  0  0  0  0  0  0  0
   -4.8753    2.8082   -2.4016 C   0  0  0  0  0  0  0  0  0  0  0  0
   -6.0434    3.4125   -2.8205 C   0  0  0  0  0  0  0  0  0  0  0  0
   -6.8977    3.9076   -1.8350 C   0  0  0  0  0  0  0  0  0  0  0  0
   -6.5639    3.7905   -0.4728 C   0  0  0  0  0  0  0  0  0  0  0  0
   -5.3754    3.1640   -0.0705 C   0  0  0  0  0  0  0  0  0  0  0  0
   -4.5352    2.6644   -1.0517 C   0  0  0  0  0  0  0  0  0  0  0  0
   -0.0281    1.2048    0.0127 C   0  0  0  0  0  0  0  0  0  0  0  0
    0.5023    2.6118   -0.0082 C   0  0  0  0  0  0  0  0  0  0  0  0
    0.1174    3.3896    1.2476 C   0  0  0  0  0  0  0  0  0  0  0  0
    0.6235    4.8075    1.2143 C   0  0  0  0  0  0  0  0  0  0  0  0
    1.2754    5.3129    0.3162 O   0  0  0  0  0  0  0  0  0  0  0  0
    0.2627    5.4997    2.3233 O   0  0  0  0  0  0  0  0  0  0  0  0
    2.5105   -1.2176   -0.0294 H   0  0  0  0  0  0  0  0  0  0  0  0
    2.6692    0.3000    0.8647 H   0  0  0  0  0  0  0  0  0  0  0  0
    2.6492    0.3066   -0.9154 H   0  0  0  0  0  0  0  0  0  0  0  0
   -0.0062   -2.1257   -0.0460 H   0  0  0  0  0  0  0  0  0  0  0  0
   -2.2713   -1.0836   -0.0540 H   0  0  0  0  0  0  0  0  0  0  0  0
   -2.9995    1.7423    1.0494 H   0  0  0  0  0  0  0  0  0  0  0  0
   -3.8893    2.2568   -4.2260 H   0  0  0  0  0  0  0  0  0  0  0  0
   -6.2933    3.5016   -3.8717 H   0  0  0  0  0  0  0  0  0  0  0  0
   -7.8288    4.3924   -2.1221 H   0  0  0  0  0  0  0  0  0  0  0  0
   -7.2427    4.1947    0.2765 H   0  0  0  0  0  0  0  0  0  0  0  0
   -5.1351    3.0829    0.9833 H   0  0  0  0  0  0  0  0  0  0  0  0
    0.1183    3.1212   -0.9018 H   0  0  0  0  0  0  0  0  0  0  0  0
    1.5942    2.6012   -0.1128 H   0  0  0  0  0  0  0  0  0  0  0  0
    0.5288    2.8945    2.1339 H   0  0  0  0  0  0  0  0  0  0  0  0
   -0.9721    3.4376    1.3468 H   0  0  0  0  0  0  0  0  0  0  0  0
   -0.2544    4.9716    2.9607 H   0  0  0  0  0  0  0  0  0  0  0  0
  1  2  1  0  0  0  0
  1 23  1  0  0  0  0
  1 24  1  0  0  0  0
  1 25  1  0  0  0  0
  2  3  2  0  0  0  0
  2 17  1  0  0  0  0
  3  4  1  0  0  0  0
  3 26  1  0  0  0  0
  4  5  1  0  0  0  0
  4 27  1  0  0  0  0
  5  6  1  0  0  0  0
  5 17  2  0  0  0  0
  6  7  2  0  0  0  0
  6 28  1  0  0  0  0
  7  8  1  0  0  0  0
  7 16  1  0  0  0  0
  8  9  2  0  0  0  0
  8 10  1  0  0  0  0
 10 11  1  0  0  0  0
 10 29  1  0  0  0  0
 11 12  1  0  0  0  0
 11 16  2  0  0  0  0
 12 13  2  0  0  0  0
 12 30  1  0  0  0  0
 13 14  1  0  0  0  0
 13 31  1  0  0  0  0
 14 15  2  0  0  0  0
 14 32  1  0  0  0  0
 15 16  1  0  0  0  0
 15 33  1  0  0  0  0
 17 18  1  0  0  0  0
 18 19  1  0  0  0  0
 18 34  1  0  0  0  0
 18 35  1  0  0  0  0
 19 20  1  0  0  0  0
 19 36  1  0  0  0  0
 19 37  1  0  0  0  0
 20 21  2  0  0  0  0
 20 22  1  0  0  0  0
 22 38  1  0  0  0  0
M  END
$$$$
