CHEMBL457984
 OpenBabel04072215383D

 59 64  0  0  0  0  0  0  0  0999 V2000
    2.7977   11.3774   -1.6508 C   0  0  0  0  0  0  0  0  0  0  0  0
    2.4984   11.0356   -0.2799 N   0  0  0  0  0  0  0  0  0  0  0  0
    2.9206    9.8009    0.1804 C   0  0  0  0  0  0  0  0  0  0  0  0
    3.1852    9.7473    1.4852 N   0  0  0  0  0  0  0  0  0  0  0  0
    3.6208    8.5737    1.9697 C   0  0  0  0  0  0  0  0  0  0  0  0
    3.8176    7.4525    1.2014 C   0  0  0  0  0  0  0  0  0  0  0  0
    3.5330    7.5773   -0.1415 C   0  0  0  0  0  0  0  0  0  0  0  0
    3.7646    6.5119   -1.1474 C   0  0  0  0  0  0  0  0  0  0  0  0
    4.0930    6.9018   -2.4682 C   0  0  0  0  0  0  0  0  0  0  0  0
    4.3449    5.9726   -3.4736 C   0  0  0  0  0  0  0  0  0  0  0  0
    4.2186    4.6415   -3.1590 C   0  0  0  0  0  0  0  0  0  0  0  0
    3.8871    4.2083   -1.9313 N   0  0  0  0  0  0  0  0  0  0  0  0
    3.7182    5.1231   -0.9337 C   0  0  0  0  0  0  0  0  0  0  0  0
    3.5070    4.6097    0.3524 O   0  0  0  0  0  0  0  0  0  0  0  0
    3.9490    3.3089    0.6010 C   0  0  0  0  0  0  0  0  0  0  0  0
    5.2018    2.8898    0.1496 C   0  0  0  0  0  0  0  0  0  0  0  0
    5.5735    1.5538    0.2471 C   0  0  0  0  0  0  0  0  0  0  0  0
    4.7402    0.6001    0.8478 C   0  0  0  0  0  0  0  0  0  0  0  0
    5.0769   -0.7893    0.7895 N   0  0  0  0  0  0  0  0  0  0  0  0
    5.8022   -1.3821   -0.2017 C   0  0  0  0  0  0  0  0  0  0  0  0
    6.3396   -0.8287   -1.2691 N   0  0  0  0  0  0  0  0  0  0  0  0
    6.9428   -1.8299   -1.9698 C   0  0  0  0  0  0  0  0  0  0  0  0
    7.6352   -1.7669   -3.1906 C   0  0  0  0  0  0  0  0  0  0  0  0
    8.1931   -2.9381   -3.7104 C   0  0  0  0  0  0  0  0  0  0  0  0
    8.0687   -4.1482   -3.0261 C   0  0  0  0  0  0  0  0  0  0  0  0
    7.3691   -4.2327   -1.8151 C   0  0  0  0  0  0  0  0  0  0  0  0
    6.8033   -3.0496   -1.3202 C   0  0  0  0  0  0  0  0  0  0  0  0
    6.0413   -2.7455   -0.2117 N   0  0  0  0  0  0  0  0  0  0  0  0
    5.5816   -3.7020    0.7680 C   0  0  0  0  0  0  0  0  0  0  0  0
    3.5557    1.0575    1.5105 C   0  0  0  0  0  0  0  0  0  0  0  0
    2.7457    0.2176    2.3190 C   0  0  0  0  0  0  0  0  0  0  0  0
    1.5803    0.6752    2.9368 C   0  0  0  0  0  0  0  0  0  0  0  0
    1.1775    1.9880    2.7563 C   0  0  0  0  0  0  0  0  0  0  0  0
    1.9484    2.8491    1.9738 C   0  0  0  0  0  0  0  0  0  0  0  0
    3.1473    2.4222    1.3586 C   0  0  0  0  0  0  0  0  0  0  0  0
    3.0810    8.7599   -0.6501 N   0  0  0  0  0  0  0  0  0  0  0  0
    2.8736   12.4680   -1.7397 H   0  0  0  0  0  0  0  0  0  0  0  0
    1.9871   11.0535   -2.3109 H   0  0  0  0  0  0  0  0  0  0  0  0
    3.7451   10.9574   -2.0047 H   0  0  0  0  0  0  0  0  0  0  0  0
    2.7751   11.7114    0.4208 H   0  0  0  0  0  0  0  0  0  0  0  0
    3.8299    8.5662    3.0354 H   0  0  0  0  0  0  0  0  0  0  0  0
    4.2102    6.5494    1.6458 H   0  0  0  0  0  0  0  0  0  0  0  0
    4.1731    7.9596   -2.7172 H   0  0  0  0  0  0  0  0  0  0  0  0
    4.6265    6.2865   -4.4717 H   0  0  0  0  0  0  0  0  0  0  0  0
    4.3991    3.8620   -3.8931 H   0  0  0  0  0  0  0  0  0  0  0  0
    5.8708    3.5742   -0.3631 H   0  0  0  0  0  0  0  0  0  0  0  0
    6.5217    1.2609   -0.1958 H   0  0  0  0  0  0  0  0  0  0  0  0
    4.4059   -1.3652    1.2696 H   0  0  0  0  0  0  0  0  0  0  0  0
    7.7254   -0.8186   -3.7091 H   0  0  0  0  0  0  0  0  0  0  0  0
    8.7305   -2.8998   -4.6542 H   0  0  0  0  0  0  0  0  0  0  0  0
    8.5219   -5.0445   -3.4448 H   0  0  0  0  0  0  0  0  0  0  0  0
    7.2784   -5.1799   -1.2954 H   0  0  0  0  0  0  0  0  0  0  0  0
    5.6925   -4.7174    0.3804 H   0  0  0  0  0  0  0  0  0  0  0  0
    4.5229   -3.5254    0.9717 H   0  0  0  0  0  0  0  0  0  0  0  0
    6.1782   -3.5813    1.6746 H   0  0  0  0  0  0  0  0  0  0  0  0
    3.0213   -0.8124    2.5173 H   0  0  0  0  0  0  0  0  0  0  0  0
    0.9949    0.0026    3.5582 H   0  0  0  0  0  0  0  0  0  0  0  0
    0.2676    2.3474    3.2299 H   0  0  0  0  0  0  0  0  0  0  0  0
    1.6113    3.8771    1.8594 H   0  0  0  0  0  0  0  0  0  0  0  0
  1  2  1  0  0  0  0
  1 37  1  0  0  0  0
  1 38  1  0  0  0  0
  1 39  1  0  0  0  0
  2  3  1  0  0  0  0
  2 40  1  0  0  0  0
  3  4  1  0  0  0  0
  3 36  2  0  0  0  0
  4  5  2  0  0  0  0
  5  6  1  0  0  0  0
  5 41  1  0  0  0  0
  6  7  2  0  0  0  0
  6 42  1  0  0  0  0
  7  8  1  0  0  0  0
  7 36  1  0  0  0  0
  8  9  1  0  0  0  0
  8 13  2  0  0  0  0
  9 10  2  0  0  0  0
  9 43  1  0  0  0  0
 10 11  1  0  0  0  0
 10 44  1  0  0  0  0
 11 12  2  0  0  0  0
 11 45  1  0  0  0  0
 12 13  1  0  0  0  0
 13 14  1  0  0  0  0
 14 15  1  0  0  0  0
 15 16  1  0  0  0  0
 15 35  2  0  0  0  0
 16 17  2  0  0  0  0
 16 46  1  0  0  0  0
 17 18  1  0  0  0  0
 17 47  1  0  0  0  0
 18 19  1  0  0  0  0
 18 30  2  0  0  0  0
 19 20  1  0  0  0  0
 19 48  1  0  0  0  0
 20 21  2  0  0  0  0
 20 28  1  0  0  0  0
 21 22  1  0  0  0  0
 22 23  1  0  0  0  0
 22 27  2  0  0  0  0
 23 24  2  0  0  0  0
 23 49  1  0  0  0  0
 24 25  1  0  0  0  0
 24 50  1  0  0  0  0
 25 26  2  0  0  0  0
 25 51  1  0  0  0  0
 26 27  1  0  0  0  0
 26 52  1  0  0  0  0
 27 28  1  0  0  0  0
 28 29  1  0  0  0  0
 29 53  1  0  0  0  0
 29 54  1  0  0  0  0
 29 55  1  0  0  0  0
 30 31  1  0  0  0  0
 30 35  1  0  0  0  0
 31 32  2  0  0  0  0
 31 56  1  0  0  0  0
 32 33  1  0  0  0  0
 32 57  1  0  0  0  0
 33 34  2  0  0  0  0
 33 58  1  0  0  0  0
 34 35  1  0  0  0  0
 34 59  1  0  0  0  0
M  END
$$$$
