CHEMBL364161
 OpenBabel04072215373D

 45 47  0  0  0  0  0  0  0  0999 V2000
    4.1314   -3.6579   -0.3860 O   0  0  0  0  0  0  0  0  0  0  0  0
    5.1104   -2.9877   -0.0968 C   0  0  0  0  0  0  0  0  0  0  0  0
    6.2074   -3.5124    0.4881 O   0  0  0  0  0  0  0  0  0  0  0  0
    5.1910   -1.4966   -0.2926 C   0  0  0  0  0  0  0  0  0  0  0  0
    4.6413   -0.7413    0.9146 C   0  0  0  0  0  0  0  0  0  0  0  0
    5.4103   -1.0153    2.2090 C   0  0  0  0  0  0  0  0  0  0  0  0
    6.8296   -0.7031    2.0046 N   0  0  0  0  0  0  0  0  0  0  0  0
    7.6935   -0.9137    3.0974 C   0  0  0  0  0  0  0  0  0  0  0  0
    8.8341   -0.1254    3.2703 C   0  0  0  0  0  0  0  0  0  0  0  0
    9.7560   -0.2980    4.2430 N   0  0  0  0  0  0  0  0  0  0  0  0
    9.5574   -1.3404    5.0844 C   0  0  0  0  0  0  0  0  0  0  0  0
    8.4815   -2.2261    5.0110 C   0  0  0  0  0  0  0  0  0  0  0  0
    8.3355   -3.3349    5.9634 C   0  0  0  0  0  0  0  0  0  0  0  0
    7.1087   -3.8749    6.3422 C   0  0  0  0  0  0  0  0  0  0  0  0
    6.9830   -4.8773    7.2417 N   0  0  0  0  0  0  0  0  0  0  0  0
    8.1512   -5.3273    7.7569 C   0  0  0  0  0  0  0  0  0  0  0  0
    9.4033   -4.8419    7.3769 C   0  0  0  0  0  0  0  0  0  0  0  0
   10.5806   -5.3527    7.9713 N   0  0  0  0  0  0  0  0  0  0  0  0
   11.8427   -5.4024    7.3236 C   0  0  0  0  0  0  0  0  0  0  0  0
   11.9633   -5.5679    5.9352 C   0  0  0  0  0  0  0  0  0  0  0  0
   13.2150   -5.7141    5.3346 C   0  0  0  0  0  0  0  0  0  0  0  0
   14.3643   -5.7106    6.1201 C   0  0  0  0  0  0  0  0  0  0  0  0
   14.2534   -5.5688    7.5016 C   0  0  0  0  0  0  0  0  0  0  0  0
   15.6743   -5.5751    8.4733 Cl  0  0  0  0  0  0  0  0  0  0  0  0
   13.0027   -5.4309    8.1053 C   0  0  0  0  0  0  0  0  0  0  0  0
    9.4870   -3.8224    6.4902 N   0  0  0  0  0  0  0  0  0  0  0  0
    7.5639   -1.9977    3.9722 C   0  0  0  0  0  0  0  0  0  0  0  0
    6.8795   -2.8374    0.7291 H   0  0  0  0  0  0  0  0  0  0  0  0
    4.6093   -1.2446   -1.1873 H   0  0  0  0  0  0  0  0  0  0  0  0
    6.2236   -1.2120   -0.5243 H   0  0  0  0  0  0  0  0  0  0  0  0
    3.5899   -1.0099    1.0721 H   0  0  0  0  0  0  0  0  0  0  0  0
    4.6697    0.3332    0.6971 H   0  0  0  0  0  0  0  0  0  0  0  0
    5.2624   -2.0623    2.4908 H   0  0  0  0  0  0  0  0  0  0  0  0
    5.0010   -0.3941    3.0147 H   0  0  0  0  0  0  0  0  0  0  0  0
    6.9378    0.2608    1.6769 H   0  0  0  0  0  0  0  0  0  0  0  0
    9.0466    0.7079    2.6054 H   0  0  0  0  0  0  0  0  0  0  0  0
   10.3213   -1.4493    5.8528 H   0  0  0  0  0  0  0  0  0  0  0  0
    6.1694   -3.5063    5.9446 H   0  0  0  0  0  0  0  0  0  0  0  0
    8.0500   -6.1241    8.4851 H   0  0  0  0  0  0  0  0  0  0  0  0
   10.4041   -6.2642    8.3847 H   0  0  0  0  0  0  0  0  0  0  0  0
   11.0793   -5.5863    5.3022 H   0  0  0  0  0  0  0  0  0  0  0  0
   13.2865   -5.8333    4.2565 H   0  0  0  0  0  0  0  0  0  0  0  0
   15.3380   -5.8220    5.6517 H   0  0  0  0  0  0  0  0  0  0  0  0
   12.9309   -5.3228    9.1839 H   0  0  0  0  0  0  0  0  0  0  0  0
    6.7519   -2.7038    3.8307 H   0  0  0  0  0  0  0  0  0  0  0  0
  1  2  2  0  0  0  0
  2  3  1  0  0  0  0
  2  4  1  0  0  0  0
  3 28  1  0  0  0  0
  4  5  1  0  0  0  0
  4 29  1  0  0  0  0
  4 30  1  0  0  0  0
  5  6  1  0  0  0  0
  5 31  1  0  0  0  0
  5 32  1  0  0  0  0
  6  7  1  0  0  0  0
  6 33  1  0  0  0  0
  6 34  1  0  0  0  0
  7  8  1  0  0  0  0
  7 35  1  0  0  0  0
  8  9  1  0  0  0  0
  8 27  2  0  0  0  0
  9 10  2  0  0  0  0
  9 36  1  0  0  0  0
 10 11  1  0  0  0  0
 11 12  2  0  0  0  0
 11 37  1  0  0  0  0
 12 13  1  0  0  0  0
 12 27  1  0  0  0  0
 13 14  1  0  0  0  0
 13 26  2  0  0  0  0
 14 15  2  0  0  0  0
 14 38  1  0  0  0  0
 15 16  1  0  0  0  0
 16 17  2  0  0  0  0
 16 39  1  0  0  0  0
 17 18  1  0  0  0  0
 17 26  1  0  0  0  0
 18 19  1  0  0  0  0
 18 40  1  0  0  0  0
 19 20  1  0  0  0  0
 19 25  2  0  0  0  0
 20 21  2  0  0  0  0
 20 41  1  0  0  0  0
 21 22  1  0  0  0  0
 21 42  1  0  0  0  0
 22 23  2  0  0  0  0
 22 43  1  0  0  0  0
 23 24  1  0  0  0  0
 23 25  1  0  0  0  0
 25 44  1  0  0  0  0
 27 45  1  0  0  0  0
M  END
$$$$
