CHEMBL3694707
 OpenBabel04072215373D

 81 85  0  0  0  0  0  0  0  0999 V2000
    5.0236   -1.7143   -1.7324 C   0  0  0  0  0  0  0  0  0  0  0  0
    5.5827   -2.0189   -0.3355 C   0  0  0  0  0  0  0  0  0  0  0  0
    4.4992   -2.5142    0.6343 C   0  0  0  0  0  0  0  0  0  0  0  0
    6.6271   -3.1395   -0.4855 C   0  0  0  0  0  0  0  0  0  0  0  0
    6.2851   -0.8616    0.1992 O   0  0  0  0  0  0  0  0  0  0  0  0
    5.5804    0.2820    0.4083 C   0  0  0  0  0  0  0  0  0  0  0  0
    4.3849    0.4342    0.2042 O   0  0  0  0  0  0  0  0  0  0  0  0
    6.3921    1.2662    0.9000 N   0  0  0  0  0  0  0  0  0  0  0  0
    5.8408    2.5436    1.2962 C   0  0  0  0  0  0  0  0  0  0  0  0
    5.7388    3.5509    0.1348 C   0  0  0  0  0  0  0  0  0  0  0  0
    7.1158    3.9410   -0.4337 C   0  0  0  0  0  0  0  0  0  0  0  0
    7.9152    4.7752    0.5630 C   0  0  0  0  0  0  0  0  0  0  0  0
    7.1187    5.9301    0.9477 N   0  0  0  0  0  0  0  0  0  0  0  0
    7.5712    7.2194    0.7802 C   0  0  0  0  0  0  0  0  0  0  0  0
    8.3524    7.5558   -0.3263 C   0  0  0  0  0  0  0  0  0  0  0  0
    8.8033    8.8586   -0.5054 C   0  0  0  0  0  0  0  0  0  0  0  0
    8.4732    9.8254    0.4333 C   0  0  0  0  0  0  0  0  0  0  0  0
    8.8309   11.2255    0.1827 C   0  0  0  0  0  0  0  0  0  0  0  0
    7.9400   12.0745   -0.6050 C   0  0  0  0  0  0  0  0  0  0  0  0
    8.3045   13.3302   -0.8965 C   0  0  0  0  0  0  0  0  0  0  0  0
    9.5109   13.8307   -0.4071 N   0  0  0  0  0  0  0  0  0  0  0  0
   10.0619   15.1020   -0.4926 C   0  0  0  0  0  0  0  0  0  0  0  0
    9.4324   16.3028   -1.0592 C   0  0  0  0  0  0  0  0  0  0  0  0
   10.2306   17.2503   -1.7110 C   0  0  0  0  0  0  0  0  0  0  0  0
    9.6783   18.4402   -2.1760 C   0  0  0  0  0  0  0  0  0  0  0  0
    8.3125   18.6807   -2.0366 C   0  0  0  0  0  0  0  0  0  0  0  0
    7.4761   17.7374   -1.4407 C   0  0  0  0  0  0  0  0  0  0  0  0
    6.0738   17.8998   -1.3350 N   0  0  0  0  0  0  0  0  0  0  0  0
    5.3473   18.9670   -1.8139 C   0  0  0  0  0  0  0  0  0  0  0  0
    5.7733   19.9485   -2.4104 O   0  0  0  0  0  0  0  0  0  0  0  0
    4.0053   18.8761   -1.4878 N   0  0  0  0  0  0  0  0  0  0  0  0
    3.1263   19.9717   -1.9281 C   0  0  0  0  0  0  0  0  0  0  0  0
    2.7182   19.9639   -3.4098 C   0  0  0  0  0  0  0  0  0  0  0  0
    3.0860   18.8221   -4.0350 F   0  0  0  0  0  0  0  0  0  0  0  0
    1.3668   20.0469   -3.5124 F   0  0  0  0  0  0  0  0  0  0  0  0
    3.2333   21.0063   -4.0939 F   0  0  0  0  0  0  0  0  0  0  0  0
    8.0551   16.5712   -0.9167 C   0  0  0  0  0  0  0  0  0  0  0  0
   11.3130   14.9573    0.0918 C   0  0  0  0  0  0  0  0  0  0  0  0
   11.5154   13.6962    0.5856 N   0  0  0  0  0  0  0  0  0  0  0  0
   10.4104   13.0405    0.3094 C   0  0  0  0  0  0  0  0  0  0  0  0
   10.0273   11.6963    0.6019 C   0  0  0  0  0  0  0  0  0  0  0  0
    7.6855    9.4279    1.5048 C   0  0  0  0  0  0  0  0  0  0  0  0
    7.2264    8.1627    1.6850 N   0  0  0  0  0  0  0  0  0  0  0  0
    5.8189    5.6854    1.5571 C   0  0  0  0  0  0  0  0  0  0  0  0
    4.9911    4.8246    0.5894 C   0  0  0  0  0  0  0  0  0  0  0  0
    4.5566   -2.5980   -2.1780 H   0  0  0  0  0  0  0  0  0  0  0  0
    5.8249   -1.3697   -2.3965 H   0  0  0  0  0  0  0  0  0  0  0  0
    4.2724   -0.9207   -1.7204 H   0  0  0  0  0  0  0  0  0  0  0  0
    4.0027   -3.4124    0.2518 H   0  0  0  0  0  0  0  0  0  0  0  0
    3.7237   -1.7660    0.8166 H   0  0  0  0  0  0  0  0  0  0  0  0
    4.9348   -2.7502    1.6124 H   0  0  0  0  0  0  0  0  0  0  0  0
    6.1776   -4.0483   -0.9037 H   0  0  0  0  0  0  0  0  0  0  0  0
    7.0787   -3.3953    0.4796 H   0  0  0  0  0  0  0  0  0  0  0  0
    7.4469   -2.8301   -1.1433 H   0  0  0  0  0  0  0  0  0  0  0  0
    7.3596    1.0271    1.0547 H   0  0  0  0  0  0  0  0  0  0  0  0
    6.4570    2.9122    2.1187 H   0  0  0  0  0  0  0  0  0  0  0  0
    4.8364    2.3709    1.7034 H   0  0  0  0  0  0  0  0  0  0  0  0
    5.1605    3.0900   -0.6774 H   0  0  0  0  0  0  0  0  0  0  0  0
    6.9636    4.5316   -1.3479 H   0  0  0  0  0  0  0  0  0  0  0  0
    7.6876    3.0544   -0.7266 H   0  0  0  0  0  0  0  0  0  0  0  0
    8.8837    5.0422    0.1269 H   0  0  0  0  0  0  0  0  0  0  0  0
    8.1556    4.1875    1.4561 H   0  0  0  0  0  0  0  0  0  0  0  0
    8.5723    6.8218   -1.0931 H   0  0  0  0  0  0  0  0  0  0  0  0
    9.3762    9.1118   -1.3928 H   0  0  0  0  0  0  0  0  0  0  0  0
    7.0042   11.6594   -0.9657 H   0  0  0  0  0  0  0  0  0  0  0  0
    7.6918   13.9708   -1.5133 H   0  0  0  0  0  0  0  0  0  0  0  0
   11.2955   17.0823   -1.8550 H   0  0  0  0  0  0  0  0  0  0  0  0
   10.3072   19.1890   -2.6504 H   0  0  0  0  0  0  0  0  0  0  0  0
    7.9383   19.6296   -2.4054 H   0  0  0  0  0  0  0  0  0  0  0  0
    5.5582   17.1623   -0.8779 H   0  0  0  0  0  0  0  0  0  0  0  0
    3.6008   17.9495   -1.4664 H   0  0  0  0  0  0  0  0  0  0  0  0
    3.6276   20.9223   -1.7058 H   0  0  0  0  0  0  0  0  0  0  0  0
    2.2350   19.9259   -1.2967 H   0  0  0  0  0  0  0  0  0  0  0  0
    7.4262   15.8746   -0.3705 H   0  0  0  0  0  0  0  0  0  0  0  0
   12.0721   15.7213    0.2104 H   0  0  0  0  0  0  0  0  0  0  0  0
   10.7354   11.0827    1.1507 H   0  0  0  0  0  0  0  0  0  0  0  0
    7.3662   10.1369    2.2641 H   0  0  0  0  0  0  0  0  0  0  0  0
    5.2603    6.6068    1.7612 H   0  0  0  0  0  0  0  0  0  0  0  0
    5.9458    5.1714    2.5167 H   0  0  0  0  0  0  0  0  0  0  0  0
    4.7574    5.4257   -0.3002 H   0  0  0  0  0  0  0  0  0  0  0  0
    4.0312    4.5617    1.0487 H   0  0  0  0  0  0  0  0  0  0  0  0
  1  2  1  0  0  0  0
  1 46  1  0  0  0  0
  1 47  1  0  0  0  0
  1 48  1  0  0  0  0
  2  3  1  0  0  0  0
  2  4  1  0  0  0  0
  2  5  1  0  0  0  0
  3 49  1  0  0  0  0
  3 50  1  0  0  0  0
  3 51  1  0  0  0  0
  4 52  1  0  0  0  0
  4 53  1  0  0  0  0
  4 54  1  0  0  0  0
  5  6  1  0  0  0  0
  6  7  2  0  0  0  0
  6  8  1  0  0  0  0
  8  9  1  0  0  0  0
  8 55  1  0  0  0  0
  9 10  1  0  0  0  0
  9 56  1  0  0  0  0
  9 57  1  0  0  0  0
 10 11  1  0  0  0  0
 10 45  1  0  0  0  0
 10 58  1  0  0  0  0
 11 12  1  0  0  0  0
 11 59  1  0  0  0  0
 11 60  1  0  0  0  0
 12 13  1  0  0  0  0
 12 61  1  0  0  0  0
 12 62  1  0  0  0  0
 13 14  1  0  0  0  0
 13 44  1  0  0  0  0
 14 15  1  0  0  0  0
 14 43  2  0  0  0  0
 15 16  2  0  0  0  0
 15 63  1  0  0  0  0
 16 17  1  0  0  0  0
 16 64  1  0  0  0  0
 17 18  1  0  0  0  0
 17 42  2  0  0  0  0
 18 19  1  0  0  0  0
 18 41  2  0  0  0  0
 19 20  2  0  0  0  0
 19 65  1  0  0  0  0
 20 21  1  0  0  0  0
 20 66  1  0  0  0  0
 21 22  1  0  0  0  0
 21 40  1  0  0  0  0
 22 23  1  0  0  0  0
 22 38  2  0  0  0  0
 23 24  1  0  0  0  0
 23 37  2  0  0  0  0
 24 25  2  0  0  0  0
 24 67  1  0  0  0  0
 25 26  1  0  0  0  0
 25 68  1  0  0  0  0
 26 27  2  0  0  0  0
 26 69  1  0  0  0  0
 27 28  1  0  0  0  0
 27 37  1  0  0  0  0
 28 29  1  0  0  0  0
 28 70  1  0  0  0  0
 29 30  2  0  0  0  0
 29 31  1  0  0  0  0
 31 32  1  0  0  0  0
 31 71  1  0  0  0  0
 32 33  1  0  0  0  0
 32 72  1  0  0  0  0
 32 73  1  0  0  0  0
 33 34  1  0  0  0  0
 33 35  1  0  0  0  0
 33 36  1  0  0  0  0
 37 74  1  0  0  0  0
 38 39  1  0  0  0  0
 38 75  1  0  0  0  0
 39 40  2  0  0  0  0
 40 41  1  0  0  0  0
 41 76  1  0  0  0  0
 42 43  1  0  0  0  0
 42 77  1  0  0  0  0
 44 45  1  0  0  0  0
 44 78  1  0  0  0  0
 44 79  1  0  0  0  0
 45 80  1  0  0  0  0
 45 81  1  0  0  0  0
M  END
$$$$
