CHEMBL1970522
 OpenBabel04072215363D

 37 39  0  0  0  0  0  0  0  0999 V2000
    1.2368    0.3093   -1.8517 C   0  0  0  0  0  0  0  0  0  0  0  0
    2.5312    0.1554   -1.2872 O   0  0  0  0  0  0  0  0  0  0  0  0
    3.1078    1.2663   -0.7253 C   0  0  0  0  0  0  0  0  0  0  0  0
    2.5305    2.5324   -0.6826 C   0  0  0  0  0  0  0  0  0  0  0  0
    3.1838    3.5989   -0.0459 C   0  0  0  0  0  0  0  0  0  0  0  0
    2.4877    4.8783    0.1188 C   0  0  0  0  0  0  0  0  0  0  0  0
    1.6574    5.1180    1.1435 C   0  0  0  0  0  0  0  0  0  0  0  0
    0.7226    6.5646    1.3403 S   0  0  0  0  0  0  0  0  0  0  0  0
   -0.0719    5.9452    2.7741 C   0  0  0  0  0  0  0  0  0  0  0  0
   -0.8372    6.6726    3.5128 N   0  0  0  0  0  0  0  0  0  0  0  0
   -1.4027    6.1772    4.7038 C   0  0  0  0  0  0  0  0  0  0  0  0
   -0.6580    5.4837    5.6690 C   0  0  0  0  0  0  0  0  0  0  0  0
   -1.2651    4.9618    6.8125 C   0  0  0  0  0  0  0  0  0  0  0  0
   -2.6129    5.2066    7.0526 C   0  0  0  0  0  0  0  0  0  0  0  0
   -3.3484    5.9720    6.1490 C   0  0  0  0  0  0  0  0  0  0  0  0
   -2.7467    6.4443    4.9769 C   0  0  0  0  0  0  0  0  0  0  0  0
    0.2722    4.6451    2.9597 N   0  0  0  0  0  0  0  0  0  0  0  0
    1.3442    4.1831    2.2619 C   0  0  0  0  0  0  0  0  0  0  0  0
    1.9799    3.1958    2.5952 O   0  0  0  0  0  0  0  0  0  0  0  0
    4.4439    3.3989    0.5295 C   0  0  0  0  0  0  0  0  0  0  0  0
    5.0328    2.1348    0.4887 C   0  0  0  0  0  0  0  0  0  0  0  0
    4.3638    1.0776   -0.1246 C   0  0  0  0  0  0  0  0  0  0  0  0
    4.9276   -0.1714   -0.1347 O   0  0  0  0  0  0  0  0  0  0  0  0
    0.9119   -0.6710   -2.2171 H   0  0  0  0  0  0  0  0  0  0  0  0
    1.2617    0.9919   -2.7064 H   0  0  0  0  0  0  0  0  0  0  0  0
    0.5101    0.6385   -1.1020 H   0  0  0  0  0  0  0  0  0  0  0  0
    1.5483    2.7157   -1.1124 H   0  0  0  0  0  0  0  0  0  0  0  0
    2.6408    5.6063   -0.6732 H   0  0  0  0  0  0  0  0  0  0  0  0
    0.4114    5.3372    5.5392 H   0  0  0  0  0  0  0  0  0  0  0  0
   -0.6798    4.3779    7.5184 H   0  0  0  0  0  0  0  0  0  0  0  0
   -3.0833    4.8215    7.9538 H   0  0  0  0  0  0  0  0  0  0  0  0
   -4.3893    6.2028    6.3572 H   0  0  0  0  0  0  0  0  0  0  0  0
   -3.3303    7.0384    4.2779 H   0  0  0  0  0  0  0  0  0  0  0  0
   -0.0355    4.1120    3.7538 H   0  0  0  0  0  0  0  0  0  0  0  0
    4.9529    4.2090    1.0460 H   0  0  0  0  0  0  0  0  0  0  0  0
    6.0007    1.9864    0.9630 H   0  0  0  0  0  0  0  0  0  0  0  0
    5.7163   -0.1620    0.4290 H   0  0  0  0  0  0  0  0  0  0  0  0
  1  2  1  0  0  0  0
  1 24  1  0  0  0  0
  1 25  1  0  0  0  0
  1 26  1  0  0  0  0
  2  3  1  0  0  0  0
  3  4  1  0  0  0  0
  3 22  2  0  0  0  0
  4  5  2  0  0  0  0
  4 27  1  0  0  0  0
  5  6  1  0  0  0  0
  5 20  1  0  0  0  0
  6  7  2  3  0  0  0
  6 28  1  0  0  0  0
  7  8  1  0  0  0  0
  7 18  1  0  0  0  0
  8  9  1  0  0  0  0
  9 10  2  3  0  0  0
  9 17  1  0  0  0  0
 10 11  1  0  0  0  0
 11 12  1  0  0  0  0
 11 16  2  0  0  0  0
 12 13  2  0  0  0  0
 12 29  1  0  0  0  0
 13 14  1  0  0  0  0
 13 30  1  0  0  0  0
 14 15  2  0  0  0  0
 14 31  1  0  0  0  0
 15 16  1  0  0  0  0
 15 32  1  0  0  0  0
 16 33  1  0  0  0  0
 17 18  1  0  0  0  0
 17 34  1  0  0  0  0
 18 19  2  0  0  0  0
 20 21  2  0  0  0  0
 20 35  1  0  0  0  0
 21 22  1  0  0  0  0
 21 36  1  0  0  0  0
 22 23  1  0  0  0  0
 23 37  1  0  0  0  0
M  END
$$$$
