CHEMBL3967940
 OpenBabel04072215373D

 56 60  0  0  0  0  0  0  0  0999 V2000
    1.0856    0.3447   -0.6585 O   0  0  0  0  0  0  0  0  0  0  0  0
    2.2220    0.1391   -0.2438 C   0  0  0  0  0  0  0  0  0  0  0  0
    2.8982    1.0264    0.5613 N   0  0  0  0  0  0  0  0  0  0  0  0
    2.3144    2.2830    0.9855 C   0  0  0  0  0  0  0  0  0  0  0  0
    3.1514    3.4727    0.5894 C   0  0  0  0  0  0  0  0  0  0  0  0
    3.4780    3.7154   -0.7552 C   0  0  0  0  0  0  0  0  0  0  0  0
    4.1916    4.8602   -1.1257 C   0  0  0  0  0  0  0  0  0  0  0  0
    4.5735    5.7891   -0.1611 C   0  0  0  0  0  0  0  0  0  0  0  0
    4.2492    5.5594    1.1660 C   0  0  0  0  0  0  0  0  0  0  0  0
    4.6056    6.4564    2.0972 F   0  0  0  0  0  0  0  0  0  0  0  0
    3.5489    4.4185    1.5475 C   0  0  0  0  0  0  0  0  0  0  0  0
    2.9729   -1.0596   -0.7212 C   0  0  0  0  0  0  0  0  0  0  0  0
    2.7160   -1.4091   -2.0638 C   0  0  0  0  0  0  0  0  0  0  0  0
    3.4216   -2.4327   -2.6915 C   0  0  0  0  0  0  0  0  0  0  0  0
    4.4031   -3.1154   -1.9878 C   0  0  0  0  0  0  0  0  0  0  0  0
    4.6442   -2.8037   -0.6479 C   0  0  0  0  0  0  0  0  0  0  0  0
    3.9156   -1.8028    0.0229 C   0  0  0  0  0  0  0  0  0  0  0  0
    4.3042   -1.5413    1.7603 S   0  0  0  0  0  0  0  0  0  0  0  0
    3.8072   -3.0931    2.5201 C   0  0  0  0  0  0  0  0  0  0  0  0
    4.6419   -4.2213    2.5183 C   0  0  0  0  0  0  0  0  0  0  0  0
    4.1923   -5.4685    3.0039 C   0  0  0  0  0  0  0  0  0  0  0  0
    2.9380   -5.5271    3.6476 C   0  0  0  0  0  0  0  0  0  0  0  0
    1.9653   -6.4991    4.0631 C   0  0  0  0  0  0  0  0  0  0  0  0
    1.2269   -7.4111    3.2080 C   0  0  0  0  0  0  0  0  0  0  0  0
    1.1423   -7.2541    1.8722 C   0  0  0  0  0  0  0  0  0  0  0  0
   -0.1069   -7.4742    1.1116 C   0  0  0  0  0  0  0  0  0  0  0  0
   -0.1165   -7.2505   -0.2636 C   0  0  0  0  0  0  0  0  0  0  0  0
   -1.3351   -7.2409   -0.9426 C   0  0  0  0  0  0  0  0  0  0  0  0
   -2.5134   -7.4396   -0.2350 C   0  0  0  0  0  0  0  0  0  0  0  0
   -2.4195   -7.6491    1.1301 C   0  0  0  0  0  0  0  0  0  0  0  0
   -1.2481   -7.6789    1.8118 N   0  0  0  0  0  0  0  0  0  0  0  0
    1.2491   -5.9554    5.0639 N   0  0  0  0  0  0  0  0  0  0  0  0
    1.2393   -4.6539    4.7152 N   0  0  0  0  0  0  0  0  0  0  0  0
    2.2478   -4.3358    3.8381 C   0  0  0  0  0  0  0  0  0  0  0  0
    2.5883   -3.1340    3.2067 C   0  0  0  0  0  0  0  0  0  0  0  0
    3.8242    0.7918    0.8964 H   0  0  0  0  0  0  0  0  0  0  0  0
    2.2247    2.2231    2.0758 H   0  0  0  0  0  0  0  0  0  0  0  0
    1.3050    2.4095    0.5803 H   0  0  0  0  0  0  0  0  0  0  0  0
    3.1615    3.0120   -1.5253 H   0  0  0  0  0  0  0  0  0  0  0  0
    4.4268    5.0365   -2.1740 H   0  0  0  0  0  0  0  0  0  0  0  0
    5.1119    6.6899   -0.4395 H   0  0  0  0  0  0  0  0  0  0  0  0
    3.3118    4.2845    2.5925 H   0  0  0  0  0  0  0  0  0  0  0  0
    1.9656   -0.8627   -2.6351 H   0  0  0  0  0  0  0  0  0  0  0  0
    3.2198   -2.6774   -3.7321 H   0  0  0  0  0  0  0  0  0  0  0  0
    4.9854   -3.8915   -2.4782 H   0  0  0  0  0  0  0  0  0  0  0  0
    5.4266   -3.3552   -0.1337 H   0  0  0  0  0  0  0  0  0  0  0  0
    5.6506   -4.1527    2.1158 H   0  0  0  0  0  0  0  0  0  0  0  0
    4.8290   -6.3472    2.9364 H   0  0  0  0  0  0  0  0  0  0  0  0
    0.4116   -7.9258    3.7189 H   0  0  0  0  0  0  0  0  0  0  0  0
    1.8986   -6.6880    1.3387 H   0  0  0  0  0  0  0  0  0  0  0  0
    0.8011   -7.0400   -0.8002 H   0  0  0  0  0  0  0  0  0  0  0  0
   -1.3632   -7.0514   -2.0121 H   0  0  0  0  0  0  0  0  0  0  0  0
   -3.4776   -7.4184   -0.7306 H   0  0  0  0  0  0  0  0  0  0  0  0
   -3.3127   -7.7843    1.7335 H   0  0  0  0  0  0  0  0  0  0  0  0
    0.5310   -4.0590    5.1067 H   0  0  0  0  0  0  0  0  0  0  0  0
    1.9349   -2.2715    3.2657 H   0  0  0  0  0  0  0  0  0  0  0  0
  1  2  2  0  0  0  0
  2  3  1  0  0  0  0
  2 12  1  0  0  0  0
  3  4  1  0  0  0  0
  3 36  1  0  0  0  0
  4  5  1  0  0  0  0
  4 37  1  0  0  0  0
  4 38  1  0  0  0  0
  5  6  1  0  0  0  0
  5 11  2  0  0  0  0
  6  7  2  0  0  0  0
  6 39  1  0  0  0  0
  7  8  1  0  0  0  0
  7 40  1  0  0  0  0
  8  9  2  0  0  0  0
  8 41  1  0  0  0  0
  9 10  1  0  0  0  0
  9 11  1  0  0  0  0
 11 42  1  0  0  0  0
 12 13  1  0  0  0  0
 12 17  2  0  0  0  0
 13 14  2  0  0  0  0
 13 43  1  0  0  0  0
 14 15  1  0  0  0  0
 14 44  1  0  0  0  0
 15 16  2  0  0  0  0
 15 45  1  0  0  0  0
 16 17  1  0  0  0  0
 16 46  1  0  0  0  0
 17 18  1  0  0  0  0
 18 19  1  0  0  0  0
 19 20  1  0  0  0  0
 19 35  2  0  0  0  0
 20 21  2  0  0  0  0
 20 47  1  0  0  0  0
 21 22  1  0  0  0  0
 21 48  1  0  0  0  0
 22 23  1  0  0  0  0
 22 34  2  0  0  0  0
 23 24  1  0  0  0  0
 23 32  2  0  0  0  0
 24 25  2  0  0  0  0
 24 49  1  0  0  0  0
 25 26  1  0  0  0  0
 25 50  1  0  0  0  0
 26 27  1  0  0  0  0
 26 31  2  0  0  0  0
 27 28  2  0  0  0  0
 27 51  1  0  0  0  0
 28 29  1  0  0  0  0
 28 52  1  0  0  0  0
 29 30  2  0  0  0  0
 29 53  1  0  0  0  0
 30 31  1  0  0  0  0
 30 54  1  0  0  0  0
 32 33  1  0  0  0  0
 33 34  1  0  0  0  0
 33 55  1  0  0  0  0
 34 35  1  0  0  0  0
 35 56  1  0  0  0  0
M  END
$$$$
