CHEMBL241517
 OpenBabel04072215363D

 41 44  0  0  0  0  0  0  0  0999 V2000
    0.9998    0.1476    0.0255 N   0  0  0  0  0  0  0  0  0  0  0  0
    2.3807    0.0040   -0.0265 C   0  0  0  0  0  0  0  0  0  0  0  0
    3.0393    1.1747    0.0022 N   0  0  0  0  0  0  0  0  0  0  0  0
    4.3829    1.1892    0.0209 C   0  0  0  0  0  0  0  0  0  0  0  0
    5.2147    0.0742   -0.0101 C   0  0  0  0  0  0  0  0  0  0  0  0
    6.6932    0.1974    0.0059 C   0  0  0  0  0  0  0  0  0  0  0  0
    7.5246   -0.7297    0.6660 C   0  0  0  0  0  0  0  0  0  0  0  0
    8.9214   -0.6676    0.5959 C   0  0  0  0  0  0  0  0  0  0  0  0
    9.5347    0.3798   -0.0748 C   0  0  0  0  0  0  0  0  0  0  0  0
    8.7378    1.3516   -0.6750 C   0  0  0  0  0  0  0  0  0  0  0  0
    9.5062    2.7152   -1.4912 S   0  0  0  0  0  0  0  0  0  0  0  0
    9.6265    2.1228   -3.0530 N   0  0  0  0  0  0  0  0  0  0  0  0
    8.5744    3.8211   -1.5455 O   0  0  0  0  0  0  0  0  0  0  0  0
   10.8595    2.8621   -1.0106 O   0  0  0  0  0  0  0  0  0  0  0  0
    7.3384    1.2646   -0.6444 C   0  0  0  0  0  0  0  0  0  0  0  0
    4.5020   -1.1557   -0.1025 C   0  0  0  0  0  0  0  0  0  0  0  0
    5.1845   -2.7383   -0.2962 S   0  0  0  0  0  0  0  0  0  0  0  0
    3.6913   -3.5063   -0.2035 C   0  0  0  0  0  0  0  0  0  0  0  0
    2.6301   -2.6278   -0.1369 C   0  0  0  0  0  0  0  0  0  0  0  0
    1.2692   -3.1882   -0.1549 C   0  0  0  0  0  0  0  0  0  0  0  0
    0.2578   -2.6006   -0.9245 C   0  0  0  0  0  0  0  0  0  0  0  0
   -1.0357   -3.1301   -0.9323 C   0  0  0  0  0  0  0  0  0  0  0  0
   -1.3062   -4.3024   -0.2361 C   0  0  0  0  0  0  0  0  0  0  0  0
   -2.5447   -4.8123   -0.2888 F   0  0  0  0  0  0  0  0  0  0  0  0
   -0.3035   -4.9383    0.4850 C   0  0  0  0  0  0  0  0  0  0  0  0
   -0.6074   -6.4326    1.2839 Cl  0  0  0  0  0  0  0  0  0  0  0  0
    0.9724   -4.3726    0.5475 C   0  0  0  0  0  0  0  0  0  0  0  0
    3.0898   -1.2288   -0.0888 C   0  0  0  0  0  0  0  0  0  0  0  0
    0.7886    1.1211    0.2254 H   0  0  0  0  0  0  0  0  0  0  0  0
    0.5489   -0.5149    0.6420 H   0  0  0  0  0  0  0  0  0  0  0  0
    4.7948    2.1956    0.0695 H   0  0  0  0  0  0  0  0  0  0  0  0
    7.0979   -1.5393    1.2533 H   0  0  0  0  0  0  0  0  0  0  0  0
    9.5223   -1.4422    1.0666 H   0  0  0  0  0  0  0  0  0  0  0  0
   10.6194    0.4324   -0.1267 H   0  0  0  0  0  0  0  0  0  0  0  0
    9.0702    2.6877   -3.6904 H   0  0  0  0  0  0  0  0  0  0  0  0
   10.6092    2.0184   -3.3191 H   0  0  0  0  0  0  0  0  0  0  0  0
    6.7602    2.0325   -1.1560 H   0  0  0  0  0  0  0  0  0  0  0  0
    3.6671   -4.5869   -0.2466 H   0  0  0  0  0  0  0  0  0  0  0  0
    0.4577   -1.7207   -1.5331 H   0  0  0  0  0  0  0  0  0  0  0  0
   -1.8278   -2.6416   -1.4925 H   0  0  0  0  0  0  0  0  0  0  0  0
    1.7371   -4.8796    1.1334 H   0  0  0  0  0  0  0  0  0  0  0  0
  1  2  1  0  0  0  0
  1 29  1  0  0  0  0
  1 30  1  0  0  0  0
  2  3  1  0  0  0  0
  2 28  2  0  0  0  0
  3  4  2  0  0  0  0
  4  5  1  0  0  0  0
  4 31  1  0  0  0  0
  5  6  1  0  0  0  0
  5 16  2  0  0  0  0
  6  7  1  0  0  0  0
  6 15  2  0  0  0  0
  7  8  2  0  0  0  0
  7 32  1  0  0  0  0
  8  9  1  0  0  0  0
  8 33  1  0  0  0  0
  9 10  2  0  0  0  0
  9 34  1  0  0  0  0
 10 11  1  0  0  0  0
 10 15  1  0  0  0  0
 11 12  1  0  0  0  0
 11 13  2  0  0  0  0
 11 14  2  0  0  0  0
 12 35  1  0  0  0  0
 12 36  1  0  0  0  0
 15 37  1  0  0  0  0
 16 17  1  0  0  0  0
 16 28  1  0  0  0  0
 17 18  1  0  0  0  0
 18 19  2  0  0  0  0
 18 38  1  0  0  0  0
 19 20  1  0  0  0  0
 19 28  1  0  0  0  0
 20 21  1  0  0  0  0
 20 27  2  0  0  0  0
 21 22  2  0  0  0  0
 21 39  1  0  0  0  0
 22 23  1  0  0  0  0
 22 40  1  0  0  0  0
 23 24  1  0  0  0  0
 23 25  2  0  0  0  0
 25 26  1  0  0  0  0
 25 27  1  0  0  0  0
 27 41  1  0  0  0  0
M  END
$$$$
