CHEMBL3920518
 OpenBabel04072215373D

 58 61  0  0  0  0  0  0  0  0999 V2000
    2.7163    1.3291    0.3942 C   0  0  0  0  0  0  0  0  0  0  0  0
    2.5028   -0.1642    0.1989 C   0  0  0  0  0  0  0  0  0  0  0  0
    2.9786   -0.6630   -1.0973 N   0  0  0  0  0  0  0  0  0  0  0  0
    2.0527   -0.7029   -2.2372 C   0  0  0  0  0  0  0  0  0  0  0  0
    0.5705   -0.8907   -1.9599 C   0  0  0  0  0  0  0  0  0  0  0  0
    4.3726   -0.9158   -1.2026 C   0  0  0  0  0  0  0  0  0  0  0  0
    5.0871   -0.8140   -0.2029 O   0  0  0  0  0  0  0  0  0  0  0  0
    4.9652   -1.3813   -2.4597 C   0  0  0  0  0  0  0  0  0  0  0  0
    6.0050   -2.2912   -2.5833 C   0  0  0  0  0  0  0  0  0  0  0  0
    6.2992   -2.6227   -3.9392 C   0  0  0  0  0  0  0  0  0  0  0  0
    7.2182   -3.5337   -4.3567 N   0  0  0  0  0  0  0  0  0  0  0  0
    7.2893   -3.7200   -5.6894 C   0  0  0  0  0  0  0  0  0  0  0  0
    6.4676   -3.1211   -6.6266 C   0  0  0  0  0  0  0  0  0  0  0  0
    5.4745   -2.2513   -6.1867 C   0  0  0  0  0  0  0  0  0  0  0  0
    4.5572   -1.6364   -7.0013 O   0  0  0  0  0  0  0  0  0  0  0  0
    3.9847   -2.3192   -8.0514 C   0  0  0  0  0  0  0  0  0  0  0  0
    3.5168   -1.4959   -9.0818 C   0  0  0  0  0  0  0  0  0  0  0  0
    2.9922   -2.0499  -10.2464 C   0  0  0  0  0  0  0  0  0  0  0  0
    2.9446   -3.4305  -10.3844 C   0  0  0  0  0  0  0  0  0  0  0  0
    3.3599   -4.2625   -9.3319 C   0  0  0  0  0  0  0  0  0  0  0  0
    3.4060   -5.7194   -9.6001 C   0  0  0  0  0  0  0  0  0  0  0  0
    3.6994   -6.0540  -10.7429 O   0  0  0  0  0  0  0  0  0  0  0  0
    3.0670   -6.5652   -8.5575 N   0  0  0  0  0  0  0  0  0  0  0  0
    2.9648   -7.9748   -8.6835 C   0  0  0  0  0  0  0  0  0  0  0  0
    3.5460   -8.6913   -9.7338 C   0  0  0  0  0  0  0  0  0  0  0  0
    3.3028  -10.0608   -9.9039 C   0  0  0  0  0  0  0  0  0  0  0  0
    3.8608  -10.7692  -11.1049 C   0  0  0  0  0  0  0  0  0  0  0  0
    2.4812  -10.7286   -8.9913 C   0  0  0  0  0  0  0  0  0  0  0  0
    1.9542  -10.0426   -7.8948 C   0  0  0  0  0  0  0  0  0  0  0  0
    2.2089   -8.6799   -7.7430 C   0  0  0  0  0  0  0  0  0  0  0  0
    1.6702   -8.0286   -6.6992 F   0  0  0  0  0  0  0  0  0  0  0  0
    3.8430   -3.7079   -8.1433 C   0  0  0  0  0  0  0  0  0  0  0  0
    5.4736   -1.9347   -4.8208 C   0  0  0  0  0  0  0  0  0  0  0  0
    4.5884   -0.7257   -3.9930 S   0  0  0  0  0  0  0  0  0  0  0  0
    2.3711    1.6259    1.3913 H   0  0  0  0  0  0  0  0  0  0  0  0
    2.1614    1.9126   -0.3458 H   0  0  0  0  0  0  0  0  0  0  0  0
    3.7745    1.5977    0.3150 H   0  0  0  0  0  0  0  0  0  0  0  0
    1.4481   -0.4145    0.3356 H   0  0  0  0  0  0  0  0  0  0  0  0
    3.0354   -0.6990    0.9944 H   0  0  0  0  0  0  0  0  0  0  0  0
    2.3385   -1.5462   -2.8707 H   0  0  0  0  0  0  0  0  0  0  0  0
    2.1849    0.2309   -2.7950 H   0  0  0  0  0  0  0  0  0  0  0  0
    0.3911   -1.7798   -1.3491 H   0  0  0  0  0  0  0  0  0  0  0  0
    0.0407   -1.0226   -2.9109 H   0  0  0  0  0  0  0  0  0  0  0  0
    0.1378   -0.0184   -1.4630 H   0  0  0  0  0  0  0  0  0  0  0  0
    6.4935   -2.7512   -1.7329 H   0  0  0  0  0  0  0  0  0  0  0  0
    8.0605   -4.4184   -6.0087 H   0  0  0  0  0  0  0  0  0  0  0  0
    6.5991   -3.3440   -7.6799 H   0  0  0  0  0  0  0  0  0  0  0  0
    3.5839   -0.4152   -8.9841 H   0  0  0  0  0  0  0  0  0  0  0  0
    2.6589   -1.4069  -11.0587 H   0  0  0  0  0  0  0  0  0  0  0  0
    2.5993   -3.8677  -11.3205 H   0  0  0  0  0  0  0  0  0  0  0  0
    2.6428   -6.1684   -7.7270 H   0  0  0  0  0  0  0  0  0  0  0  0
    4.1978   -8.1955  -10.4485 H   0  0  0  0  0  0  0  0  0  0  0  0
    4.6504  -10.1800  -11.5826 H   0  0  0  0  0  0  0  0  0  0  0  0
    3.0684  -10.9378  -11.8416 H   0  0  0  0  0  0  0  0  0  0  0  0
    4.2979  -11.7350  -10.8140 H   0  0  0  0  0  0  0  0  0  0  0  0
    2.2435  -11.7819   -9.1344 H   0  0  0  0  0  0  0  0  0  0  0  0
    1.3222  -10.5543   -7.1766 H   0  0  0  0  0  0  0  0  0  0  0  0
    4.1608   -4.3567   -7.3338 H   0  0  0  0  0  0  0  0  0  0  0  0
  1  2  1  0  0  0  0
  1 35  1  0  0  0  0
  1 36  1  0  0  0  0
  1 37  1  0  0  0  0
  2  3  1  0  0  0  0
  2 38  1  0  0  0  0
  2 39  1  0  0  0  0
  3  4  1  0  0  0  0
  3  6  1  0  0  0  0
  4  5  1  0  0  0  0
  4 40  1  0  0  0  0
  4 41  1  0  0  0  0
  5 42  1  0  0  0  0
  5 43  1  0  0  0  0
  5 44  1  0  0  0  0
  6  7  2  0  0  0  0
  6  8  1  0  0  0  0
  8  9  2  0  0  0  0
  8 34  1  0  0  0  0
  9 10  1  0  0  0  0
  9 45  1  0  0  0  0
 10 11  1  0  0  0  0
 10 33  2  0  0  0  0
 11 12  2  0  0  0  0
 12 13  1  0  0  0  0
 12 46  1  0  0  0  0
 13 14  2  0  0  0  0
 13 47  1  0  0  0  0
 14 15  1  0  0  0  0
 14 33  1  0  0  0  0
 15 16  1  0  0  0  0
 16 17  1  0  0  0  0
 16 32  2  0  0  0  0
 17 18  2  0  0  0  0
 17 48  1  0  0  0  0
 18 19  1  0  0  0  0
 18 49  1  0  0  0  0
 19 20  2  0  0  0  0
 19 50  1  0  0  0  0
 20 21  1  0  0  0  0
 20 32  1  0  0  0  0
 21 22  2  0  0  0  0
 21 23  1  0  0  0  0
 23 24  1  0  0  0  0
 23 51  1  0  0  0  0
 24 25  1  0  0  0  0
 24 30  2  0  0  0  0
 25 26  2  0  0  0  0
 25 52  1  0  0  0  0
 26 27  1  0  0  0  0
 26 28  1  0  0  0  0
 27 53  1  0  0  0  0
 27 54  1  0  0  0  0
 27 55  1  0  0  0  0
 28 29  2  0  0  0  0
 28 56  1  0  0  0  0
 29 30  1  0  0  0  0
 29 57  1  0  0  0  0
 30 31  1  0  0  0  0
 32 58  1  0  0  0  0
 33 34  1  0  0  0  0
M  END
$$$$
