CHEMBL3893344
 OpenBabel04072215373D

 60 63  0  0  0  0  0  0  0  0999 V2000
    3.5124   -6.8629    0.5976 C   0  0  0  0  0  0  0  0  0  0  0  0
    2.9100   -5.5012    0.2906 C   0  0  0  0  0  0  0  0  0  0  0  0
    3.7810   -4.6966   -0.5436 N   0  0  0  0  0  0  0  0  0  0  0  0
    3.7838   -4.6358   -1.9061 C   0  0  0  0  0  0  0  0  0  0  0  0
    4.8022   -3.7723   -2.2604 C   0  0  0  0  0  0  0  0  0  0  0  0
    5.1534   -3.4376   -3.6309 C   0  0  0  0  0  0  0  0  0  0  0  0
    6.1267   -2.5075   -3.9600 C   0  0  0  0  0  0  0  0  0  0  0  0
    6.4318   -2.1754   -5.2462 N   0  0  0  0  0  0  0  0  0  0  0  0
    5.7252   -2.8072   -6.2132 C   0  0  0  0  0  0  0  0  0  0  0  0
    5.9302   -2.5375   -7.5587 C   0  0  0  0  0  0  0  0  0  0  0  0
    5.1661   -3.1691   -8.5580 C   0  0  0  0  0  0  0  0  0  0  0  0
    4.1952   -4.1338   -8.2468 C   0  0  0  0  0  0  0  0  0  0  0  0
    3.4589   -4.7858   -9.2620 N   0  0  0  0  0  0  0  0  0  0  0  0
    1.9907   -5.1122   -9.1504 C   0  0  0  0  0  0  0  0  0  0  0  0
    1.3106   -4.9286   -7.7832 C   0  0  0  0  0  0  0  0  0  0  0  0
   -0.1338   -5.2223   -7.7120 N   0  0  0  0  0  0  0  0  0  0  0  0
   -0.5754   -4.9773   -6.3349 C   0  0  0  0  0  0  0  0  0  0  0  0
    4.0188   -5.1877  -10.5197 C   0  0  0  0  0  0  0  0  0  0  0  0
    5.3484   -5.6515  -10.5743 C   0  0  0  0  0  0  0  0  0  0  0  0
    5.9361   -6.0625  -11.7743 C   0  0  0  0  0  0  0  0  0  0  0  0
    7.2119   -6.5284  -11.9209 O   0  0  0  0  0  0  0  0  0  0  0  0
    8.0086   -6.5995  -10.7421 C   0  0  0  0  0  0  0  0  0  0  0  0
    5.1940   -6.0227  -12.9542 C   0  0  0  0  0  0  0  0  0  0  0  0
    3.8733   -5.5828  -12.9390 C   0  0  0  0  0  0  0  0  0  0  0  0
    3.0381   -5.5241  -14.0222 O   0  0  0  0  0  0  0  0  0  0  0  0
    3.5582   -5.9757  -15.2688 C   0  0  0  0  0  0  0  0  0  0  0  0
    3.3029   -5.1596  -11.7309 C   0  0  0  0  0  0  0  0  0  0  0  0
    4.0825   -4.4410   -6.8874 C   0  0  0  0  0  0  0  0  0  0  0  0
    4.7624   -3.7743   -5.8772 C   0  0  0  0  0  0  0  0  0  0  0  0
    4.4753   -4.0908   -4.6010 N   0  0  0  0  0  0  0  0  0  0  0  0
    5.3284   -3.3495   -1.0222 C   0  0  0  0  0  0  0  0  0  0  0  0
    4.7147   -3.9108    0.0246 N   0  0  0  0  0  0  0  0  0  0  0  0
    2.8359   -7.4456    1.2299 H   0  0  0  0  0  0  0  0  0  0  0  0
    4.4644   -6.7603    1.1219 H   0  0  0  0  0  0  0  0  0  0  0  0
    3.6938   -7.4288   -0.3218 H   0  0  0  0  0  0  0  0  0  0  0  0
    2.7202   -4.9451    1.2132 H   0  0  0  0  0  0  0  0  0  0  0  0
    1.9552   -5.6150   -0.2348 H   0  0  0  0  0  0  0  0  0  0  0  0
    3.0857   -5.2094   -2.5022 H   0  0  0  0  0  0  0  0  0  0  0  0
    6.7026   -1.9811   -3.2075 H   0  0  0  0  0  0  0  0  0  0  0  0
    6.6925   -1.8152   -7.8427 H   0  0  0  0  0  0  0  0  0  0  0  0
    5.3500   -2.8937   -9.5957 H   0  0  0  0  0  0  0  0  0  0  0  0
    1.8526   -6.1623   -9.4475 H   0  0  0  0  0  0  0  0  0  0  0  0
    1.4323   -4.4924   -9.8625 H   0  0  0  0  0  0  0  0  0  0  0  0
    1.4702   -3.8981   -7.4475 H   0  0  0  0  0  0  0  0  0  0  0  0
    1.7579   -5.6371   -7.0882 H   0  0  0  0  0  0  0  0  0  0  0  0
   -0.2801   -6.2108   -7.9241 H   0  0  0  0  0  0  0  0  0  0  0  0
   -0.4822   -3.9147   -6.0818 H   0  0  0  0  0  0  0  0  0  0  0  0
    0.0119   -5.5581   -5.6130 H   0  0  0  0  0  0  0  0  0  0  0  0
   -1.6245   -5.2602   -6.2145 H   0  0  0  0  0  0  0  0  0  0  0  0
    5.9083   -5.7090   -9.6467 H   0  0  0  0  0  0  0  0  0  0  0  0
    8.9886   -6.9989  -11.0252 H   0  0  0  0  0  0  0  0  0  0  0  0
    7.5704   -7.2806  -10.0093 H   0  0  0  0  0  0  0  0  0  0  0  0
    8.1659   -5.6018  -10.3155 H   0  0  0  0  0  0  0  0  0  0  0  0
    5.6773   -6.3466  -13.8690 H   0  0  0  0  0  0  0  0  0  0  0  0
    2.7380   -5.9908  -15.9893 H   0  0  0  0  0  0  0  0  0  0  0  0
    3.9497   -6.9975  -15.1975 H   0  0  0  0  0  0  0  0  0  0  0  0
    4.3229   -5.2841  -15.6402 H   0  0  0  0  0  0  0  0  0  0  0  0
    2.2836   -4.7869  -11.7705 H   0  0  0  0  0  0  0  0  0  0  0  0
    3.4807   -5.2685   -6.5457 H   0  0  0  0  0  0  0  0  0  0  0  0
    6.1403   -2.6609   -0.8257 H   0  0  0  0  0  0  0  0  0  0  0  0
  1  2  1  0  0  0  0
  1 33  1  0  0  0  0
  1 34  1  0  0  0  0
  1 35  1  0  0  0  0
  2  3  1  0  0  0  0
  2 36  1  0  0  0  0
  2 37  1  0  0  0  0
  3  4  1  0  0  0  0
  3 32  1  0  0  0  0
  4  5  2  0  0  0  0
  4 38  1  0  0  0  0
  5  6  1  0  0  0  0
  5 31  1  0  0  0  0
  6  7  1  0  0  0  0
  6 30  2  0  0  0  0
  7  8  2  0  0  0  0
  7 39  1  0  0  0  0
  8  9  1  0  0  0  0
  9 10  1  0  0  0  0
  9 29  2  0  0  0  0
 10 11  2  0  0  0  0
 10 40  1  0  0  0  0
 11 12  1  0  0  0  0
 11 41  1  0  0  0  0
 12 13  1  0  0  0  0
 12 28  2  0  0  0  0
 13 14  1  0  0  0  0
 13 18  1  0  0  0  0
 14 15  1  0  0  0  0
 14 42  1  0  0  0  0
 14 43  1  0  0  0  0
 15 16  1  0  0  0  0
 15 44  1  0  0  0  0
 15 45  1  0  0  0  0
 16 17  1  0  0  0  0
 16 46  1  0  0  0  0
 17 47  1  0  0  0  0
 17 48  1  0  0  0  0
 17 49  1  0  0  0  0
 18 19  1  0  0  0  0
 18 27  2  0  0  0  0
 19 20  2  0  0  0  0
 19 50  1  0  0  0  0
 20 21  1  0  0  0  0
 20 23  1  0  0  0  0
 21 22  1  0  0  0  0
 22 51  1  0  0  0  0
 22 52  1  0  0  0  0
 22 53  1  0  0  0  0
 23 24  2  0  0  0  0
 23 54  1  0  0  0  0
 24 25  1  0  0  0  0
 24 27  1  0  0  0  0
 25 26  1  0  0  0  0
 26 55  1  0  0  0  0
 26 56  1  0  0  0  0
 26 57  1  0  0  0  0
 27 58  1  0  0  0  0
 28 29  1  0  0  0  0
 28 59  1  0  0  0  0
 29 30  1  0  0  0  0
 31 32  2  0  0  0  0
 31 60  1  0  0  0  0
M  END
$$$$
