CHEMBL241313
 OpenBabel04072215363D

 46 48  0  0  0  0  0  0  0  0999 V2000
   -2.1338   -0.0561   -0.0587 C   0  0  0  0  0  0  0  0  0  0  0  0
   -0.6892   -0.1715   -0.0539 N   0  0  0  0  0  0  0  0  0  0  0  0
    0.0231    0.9725   -0.0142 N   0  0  0  0  0  0  0  0  0  0  0  0
    1.2836    0.5585    0.0123 C   0  0  0  0  0  0  0  0  0  0  0  0
    1.3858   -0.8543    0.0051 C   0  0  0  0  0  0  0  0  0  0  0  0
    2.5751   -1.5116    0.0306 N   0  0  0  0  0  0  0  0  0  0  0  0
    2.8425   -2.7570   -0.6694 C   0  0  0  0  0  0  0  0  0  0  0  0
    3.3507   -3.8093    0.2909 C   0  0  0  0  0  0  0  0  0  0  0  0
    3.5506   -3.5424    1.6544 C   0  0  0  0  0  0  0  0  0  0  0  0
    3.9672   -4.5651    2.4938 C   0  0  0  0  0  0  0  0  0  0  0  0
    4.2097   -5.8153    2.0692 N   0  0  0  0  0  0  0  0  0  0  0  0
    4.0279   -6.0645    0.7559 C   0  0  0  0  0  0  0  0  0  0  0  0
    3.6063   -5.1074   -0.1578 C   0  0  0  0  0  0  0  0  0  0  0  0
    0.0838   -1.3215   -0.0206 C   0  0  0  0  0  0  0  0  0  0  0  0
   -0.4677   -2.6595   -0.0576 C   0  0  0  0  0  0  0  0  0  0  0  0
   -1.4930   -2.9098   -0.6877 O   0  0  0  0  0  0  0  0  0  0  0  0
    0.1948   -3.6224    0.6841 N   0  0  0  0  0  0  0  0  0  0  0  0
   -0.2104   -4.9713    0.7374 C   0  0  0  0  0  0  0  0  0  0  0  0
   -0.4490   -5.7129   -0.4261 C   0  0  0  0  0  0  0  0  0  0  0  0
   -0.8796   -7.0515   -0.3508 C   0  0  0  0  0  0  0  0  0  0  0  0
   -1.0923   -7.8813   -1.5964 C   0  0  0  0  0  0  0  0  0  0  0  0
   -0.7511   -7.2393   -2.7476 F   0  0  0  0  0  0  0  0  0  0  0  0
   -0.3526   -9.0256   -1.5804 F   0  0  0  0  0  0  0  0  0  0  0  0
   -2.3852   -8.2768   -1.7514 F   0  0  0  0  0  0  0  0  0  0  0  0
   -1.0979   -7.6221    0.9137 C   0  0  0  0  0  0  0  0  0  0  0  0
   -0.8163   -6.9024    2.0871 C   0  0  0  0  0  0  0  0  0  0  0  0
   -1.0091   -7.5245    3.4495 C   0  0  0  0  0  0  0  0  0  0  0  0
   -1.4439   -8.8140    3.4016 F   0  0  0  0  0  0  0  0  0  0  0  0
    0.1427   -7.5442    4.1738 F   0  0  0  0  0  0  0  0  0  0  0  0
   -1.9172   -6.8514    4.2080 F   0  0  0  0  0  0  0  0  0  0  0  0
   -0.3446   -5.5817    1.9821 C   0  0  0  0  0  0  0  0  0  0  0  0
   -2.4052    1.0048    0.0123 H   0  0  0  0  0  0  0  0  0  0  0  0
   -2.5353   -0.5835    0.8083 H   0  0  0  0  0  0  0  0  0  0  0  0
   -2.5177   -0.4595   -0.9959 H   0  0  0  0  0  0  0  0  0  0  0  0
    2.0742    1.2955    0.0131 H   0  0  0  0  0  0  0  0  0  0  0  0
    3.4231   -0.9571    0.1393 H   0  0  0  0  0  0  0  0  0  0  0  0
    3.6113   -2.5665   -1.4284 H   0  0  0  0  0  0  0  0  0  0  0  0
    1.9623   -3.1306   -1.2060 H   0  0  0  0  0  0  0  0  0  0  0  0
    3.3620   -2.5612    2.0781 H   0  0  0  0  0  0  0  0  0  0  0  0
    4.1161   -4.3832    3.5524 H   0  0  0  0  0  0  0  0  0  0  0  0
    4.2275   -7.0868    0.4470 H   0  0  0  0  0  0  0  0  0  0  0  0
    3.4710   -5.3872   -1.2024 H   0  0  0  0  0  0  0  0  0  0  0  0
    0.8064   -3.2737    1.4152 H   0  0  0  0  0  0  0  0  0  0  0  0
   -0.2637   -5.2665   -1.4016 H   0  0  0  0  0  0  0  0  0  0  0  0
   -1.4745   -8.6448    0.9832 H   0  0  0  0  0  0  0  0  0  0  0  0
   -0.1485   -5.0141    2.8919 H   0  0  0  0  0  0  0  0  0  0  0  0
  1  2  1  0  0  0  0
  1 32  1  0  0  0  0
  1 33  1  0  0  0  0
  1 34  1  0  0  0  0
  2  3  1  0  0  0  0
  2 14  1  0  0  0  0
  3  4  2  0  0  0  0
  4  5  1  0  0  0  0
  4 35  1  0  0  0  0
  5  6  1  0  0  0  0
  5 14  2  0  0  0  0
  6  7  1  0  0  0  0
  6 36  1  0  0  0  0
  7  8  1  0  0  0  0
  7 37  1  0  0  0  0
  7 38  1  0  0  0  0
  8  9  1  0  0  0  0
  8 13  2  0  0  0  0
  9 10  2  0  0  0  0
  9 39  1  0  0  0  0
 10 11  1  0  0  0  0
 10 40  1  0  0  0  0
 11 12  2  0  0  0  0
 12 13  1  0  0  0  0
 12 41  1  0  0  0  0
 13 42  1  0  0  0  0
 14 15  1  0  0  0  0
 15 16  2  0  0  0  0
 15 17  1  0  0  0  0
 17 18  1  0  0  0  0
 17 43  1  0  0  0  0
 18 19  1  0  0  0  0
 18 31  2  0  0  0  0
 19 20  2  0  0  0  0
 19 44  1  0  0  0  0
 20 21  1  0  0  0  0
 20 25  1  0  0  0  0
 21 22  1  0  0  0  0
 21 23  1  0  0  0  0
 21 24  1  0  0  0  0
 25 26  2  0  0  0  0
 25 45  1  0  0  0  0
 26 27  1  0  0  0  0
 26 31  1  0  0  0  0
 27 28  1  0  0  0  0
 27 29  1  0  0  0  0
 27 30  1  0  0  0  0
 31 46  1  0  0  0  0
M  END
$$$$
