CHEMBL3977445
 OpenBabel04072215373D

 64 67  0  0  0  0  0  0  0  0999 V2000
    2.5947   -0.0134   -0.1797 C   0  0  0  0  0  0  0  0  0  0  0  0
    1.1020    0.0365   -0.0773 C   0  0  0  0  0  0  0  0  0  0  0  0
    0.4817    1.2930   -0.1028 C   0  0  0  0  0  0  0  0  0  0  0  0
   -0.8961    1.4388    0.0535 C   0  0  0  0  0  0  0  0  0  0  0  0
   -1.5349    2.6996    0.1346 N   0  0  0  0  0  0  0  0  0  0  0  0
   -0.8679    3.8816    0.4000 C   0  0  0  0  0  0  0  0  0  0  0  0
    0.3465    3.9772    0.5577 O   0  0  0  0  0  0  0  0  0  0  0  0
   -1.7133    4.9715    0.5306 N   0  0  0  0  0  0  0  0  0  0  0  0
   -1.1465    6.2480    0.7744 C   0  0  0  0  0  0  0  0  0  0  0  0
   -0.0905    6.7281   -0.0135 C   0  0  0  0  0  0  0  0  0  0  0  0
    0.4601    7.9837    0.2327 C   0  0  0  0  0  0  0  0  0  0  0  0
    1.4015    8.6003   -0.5443 O   0  0  0  0  0  0  0  0  0  0  0  0
    1.3867    8.3089   -1.9518 C   0  0  0  0  0  0  0  0  0  0  0  0
    0.0623    8.7074   -2.6106 C   0  0  0  0  0  0  0  0  0  0  0  0
    2.5131    9.1282   -2.5824 C   0  0  0  0  0  0  0  0  0  0  0  0
    0.0346    8.7117    1.3415 C   0  0  0  0  0  0  0  0  0  0  0  0
   -1.0156    8.2430    2.1454 C   0  0  0  0  0  0  0  0  0  0  0  0
   -1.4850    9.0341    3.3373 C   0  0  0  0  0  0  0  0  0  0  0  0
   -0.8240   10.2108    3.5136 F   0  0  0  0  0  0  0  0  0  0  0  0
   -2.8054    9.3563    3.2487 F   0  0  0  0  0  0  0  0  0  0  0  0
   -1.3478    8.3481    4.5056 F   0  0  0  0  0  0  0  0  0  0  0  0
   -1.6331    7.0211    1.8263 C   0  0  0  0  0  0  0  0  0  0  0  0
   -1.6257    0.2686    0.1665 C   0  0  0  0  0  0  0  0  0  0  0  0
   -1.0727   -0.9670    0.2149 N   0  0  0  0  0  0  0  0  0  0  0  0
    0.2783   -1.0708    0.0905 C   0  0  0  0  0  0  0  0  0  0  0  0
    0.8545   -2.3445    0.1362 O   0  0  0  0  0  0  0  0  0  0  0  0
    0.0550   -3.4094   -0.2491 C   0  0  0  0  0  0  0  0  0  0  0  0
   -0.8022   -3.3144   -1.3492 C   0  0  0  0  0  0  0  0  0  0  0  0
   -1.6199   -4.3823   -1.6214 C   0  0  0  0  0  0  0  0  0  0  0  0
   -1.5780   -5.5335   -0.9361 N   0  0  0  0  0  0  0  0  0  0  0  0
   -0.7038   -5.6644    0.0771 C   0  0  0  0  0  0  0  0  0  0  0  0
   -0.6513   -6.8964    0.7623 N   0  0  0  0  0  0  0  0  0  0  0  0
   -1.4770   -7.9693    0.4542 C   0  0  0  0  0  0  0  0  0  0  0  0
   -2.3533   -8.0056   -0.3993 O   0  0  0  0  0  0  0  0  0  0  0  0
   -1.2421   -9.2101    1.2718 C   0  0  0  0  0  0  0  0  0  0  0  0
   -1.4573  -10.5640    0.6300 C   0  0  0  0  0  0  0  0  0  0  0  0
   -2.4288  -10.0670    1.6597 C   0  0  0  0  0  0  0  0  0  0  0  0
    0.1411   -4.6191    0.4527 C   0  0  0  0  0  0  0  0  0  0  0  0
    2.9917    0.9428   -0.5486 H   0  0  0  0  0  0  0  0  0  0  0  0
    2.9246   -0.7812   -0.8833 H   0  0  0  0  0  0  0  0  0  0  0  0
    3.0359   -0.1873    0.8060 H   0  0  0  0  0  0  0  0  0  0  0  0
    1.1184    2.1583   -0.2592 H   0  0  0  0  0  0  0  0  0  0  0  0
   -2.5459    2.7201    0.1218 H   0  0  0  0  0  0  0  0  0  0  0  0
   -2.5962    4.7754    0.9794 H   0  0  0  0  0  0  0  0  0  0  0  0
    0.2849    6.1145   -0.8266 H   0  0  0  0  0  0  0  0  0  0  0  0
    1.6107    7.2496   -2.1213 H   0  0  0  0  0  0  0  0  0  0  0  0
   -0.1578    9.7658   -2.4330 H   0  0  0  0  0  0  0  0  0  0  0  0
   -0.7836    8.1429   -2.2081 H   0  0  0  0  0  0  0  0  0  0  0  0
    0.0922    8.5289   -3.6897 H   0  0  0  0  0  0  0  0  0  0  0  0
    2.3471   10.2014   -2.4313 H   0  0  0  0  0  0  0  0  0  0  0  0
    2.5871    8.9372   -3.6579 H   0  0  0  0  0  0  0  0  0  0  0  0
    3.4749    8.8896   -2.1172 H   0  0  0  0  0  0  0  0  0  0  0  0
    0.5125    9.6658    1.5601 H   0  0  0  0  0  0  0  0  0  0  0  0
   -2.4418    6.6523    2.4530 H   0  0  0  0  0  0  0  0  0  0  0  0
   -2.7075    0.2708    0.2575 H   0  0  0  0  0  0  0  0  0  0  0  0
   -0.8762   -2.4128   -1.9460 H   0  0  0  0  0  0  0  0  0  0  0  0
   -2.3636   -4.3391   -2.4087 H   0  0  0  0  0  0  0  0  0  0  0  0
    0.0189   -6.9928    1.5055 H   0  0  0  0  0  0  0  0  0  0  0  0
   -0.4376   -9.1480    1.9963 H   0  0  0  0  0  0  0  0  0  0  0  0
   -0.8032  -11.3819    0.9048 H   0  0  0  0  0  0  0  0  0  0  0  0
   -1.7979  -10.6011   -0.4009 H   0  0  0  0  0  0  0  0  0  0  0  0
   -2.4291  -10.5494    2.6288 H   0  0  0  0  0  0  0  0  0  0  0  0
   -3.4151   -9.7714    1.3133 H   0  0  0  0  0  0  0  0  0  0  0  0
    0.8361   -4.7156    1.2781 H   0  0  0  0  0  0  0  0  0  0  0  0
  1  2  1  0  0  0  0
  1 39  1  0  0  0  0
  1 40  1  0  0  0  0
  1 41  1  0  0  0  0
  2  3  1  0  0  0  0
  2 25  2  0  0  0  0
  3  4  2  0  0  0  0
  3 42  1  0  0  0  0
  4  5  1  0  0  0  0
  4 23  1  0  0  0  0
  5  6  1  0  0  0  0
  5 43  1  0  0  0  0
  6  7  2  0  0  0  0
  6  8  1  0  0  0  0
  8  9  1  0  0  0  0
  8 44  1  0  0  0  0
  9 10  1  0  0  0  0
  9 22  2  0  0  0  0
 10 11  2  0  0  0  0
 10 45  1  0  0  0  0
 11 12  1  0  0  0  0
 11 16  1  0  0  0  0
 12 13  1  0  0  0  0
 13 14  1  0  0  0  0
 13 15  1  0  0  0  0
 13 46  1  0  0  0  0
 14 47  1  0  0  0  0
 14 48  1  0  0  0  0
 14 49  1  0  0  0  0
 15 50  1  0  0  0  0
 15 51  1  0  0  0  0
 15 52  1  0  0  0  0
 16 17  2  0  0  0  0
 16 53  1  0  0  0  0
 17 18  1  0  0  0  0
 17 22  1  0  0  0  0
 18 19  1  0  0  0  0
 18 20  1  0  0  0  0
 18 21  1  0  0  0  0
 22 54  1  0  0  0  0
 23 24  2  0  0  0  0
 23 55  1  0  0  0  0
 24 25  1  0  0  0  0
 25 26  1  0  0  0  0
 26 27  1  0  0  0  0
 27 28  1  0  0  0  0
 27 38  2  0  0  0  0
 28 29  2  0  0  0  0
 28 56  1  0  0  0  0
 29 30  1  0  0  0  0
 29 57  1  0  0  0  0
 30 31  2  0  0  0  0
 31 32  1  0  0  0  0
 31 38  1  0  0  0  0
 32 33  1  0  0  0  0
 32 58  1  0  0  0  0
 33 34  2  0  0  0  0
 33 35  1  0  0  0  0
 35 36  1  0  0  0  0
 35 37  1  0  0  0  0
 35 59  1  0  0  0  0
 36 37  1  0  0  0  0
 36 60  1  0  0  0  0
 36 61  1  0  0  0  0
 37 62  1  0  0  0  0
 37 63  1  0  0  0  0
 38 64  1  0  0  0  0
M  END
$$$$
