CHEMBL1972220
 OpenBabel04072215363D

 60 64  0  0  0  0  0  0  0  0999 V2000
    1.2608   -0.3381   -1.8180 N   0  0  0  0  0  0  0  0  0  0  0  0
    2.6114   -0.3571   -1.4924 C   0  0  0  0  0  0  0  0  0  0  0  0
    3.2854    0.7293   -1.9180 N   0  0  0  0  0  0  0  0  0  0  0  0
    4.5943    0.8577   -1.6432 C   0  0  0  0  0  0  0  0  0  0  0  0
    5.3492   -0.0597   -0.9338 C   0  0  0  0  0  0  0  0  0  0  0  0
    6.7672    0.1357   -0.6976 C   0  0  0  0  0  0  0  0  0  0  0  0
    7.6066   -0.1769    0.3987 C   0  0  0  0  0  0  0  0  0  0  0  0
    8.8856    0.1447    0.1826 N   0  0  0  0  0  0  0  0  0  0  0  0
    8.8730    0.6711   -1.0537 N   0  0  0  0  0  0  0  0  0  0  0  0
   10.1132    1.0955   -1.6748 C   0  0  0  0  0  0  0  0  0  0  0  0
   11.0914   -0.0571   -1.8647 C   0  0  0  0  0  0  0  0  0  0  0  0
   10.5768   -1.0349   -2.7681 O   0  0  0  0  0  0  0  0  0  0  0  0
    7.6279    0.7079   -1.6126 C   0  0  0  0  0  0  0  0  0  0  0  0
    4.6505   -1.2061   -0.4979 C   0  0  0  0  0  0  0  0  0  0  0  0
    5.2988   -2.5508    0.3725 S   0  0  0  0  0  0  0  0  0  0  0  0
    3.8173   -3.3461    0.4243 C   0  0  0  0  0  0  0  0  0  0  0  0
    2.7987   -2.6593   -0.2070 C   0  0  0  0  0  0  0  0  0  0  0  0
    1.4570   -3.2582   -0.1906 C   0  0  0  0  0  0  0  0  0  0  0  0
    1.0103   -3.8865    0.9776 C   0  0  0  0  0  0  0  0  0  0  0  0
   -0.2498   -4.4734    1.0376 C   0  0  0  0  0  0  0  0  0  0  0  0
   -1.1367   -4.3825   -0.0355 C   0  0  0  0  0  0  0  0  0  0  0  0
   -2.4624   -4.8711    0.0542 N   0  0  0  0  0  0  0  0  0  0  0  0
   -3.1165   -5.0368    1.2624 C   0  0  0  0  0  0  0  0  0  0  0  0
   -2.6833   -4.6424    2.3418 O   0  0  0  0  0  0  0  0  0  0  0  0
   -4.3089   -5.7412    1.1352 N   0  0  0  0  0  0  0  0  0  0  0  0
   -5.0039   -6.0580    2.3256 C   0  0  0  0  0  0  0  0  0  0  0  0
   -5.2794   -5.0722    3.2781 C   0  0  0  0  0  0  0  0  0  0  0  0
   -5.7708   -5.4127    4.5406 C   0  0  0  0  0  0  0  0  0  0  0  0
   -5.9982   -6.7528    4.8481 C   0  0  0  0  0  0  0  0  0  0  0  0
   -6.3887   -7.2309    6.0686 O   0  0  0  0  0  0  0  0  0  0  0  0
   -7.1159   -6.3307    6.8849 C   0  0  0  0  0  0  0  0  0  0  0  0
   -8.2672   -5.9919    6.2539 F   0  0  0  0  0  0  0  0  0  0  0  0
   -7.4747   -7.0065    8.0070 F   0  0  0  0  0  0  0  0  0  0  0  0
   -5.7670   -7.7326    3.8796 C   0  0  0  0  0  0  0  0  0  0  0  0
   -5.3044   -7.3945    2.6040 C   0  0  0  0  0  0  0  0  0  0  0  0
   -0.6901   -3.7978   -1.2212 C   0  0  0  0  0  0  0  0  0  0  0  0
    0.6086   -3.2635   -1.3038 C   0  0  0  0  0  0  0  0  0  0  0  0
    3.2743   -1.3885   -0.7667 C   0  0  0  0  0  0  0  0  0  0  0  0
    1.0234    0.5893   -2.1558 H   0  0  0  0  0  0  0  0  0  0  0  0
    0.6650   -0.6854   -1.0773 H   0  0  0  0  0  0  0  0  0  0  0  0
    5.0368    1.7738   -2.0266 H   0  0  0  0  0  0  0  0  0  0  0  0
    7.3477   -0.6319    1.3465 H   0  0  0  0  0  0  0  0  0  0  0  0
   10.5419    1.8726   -1.0335 H   0  0  0  0  0  0  0  0  0  0  0  0
    9.8568    1.5404   -2.6425 H   0  0  0  0  0  0  0  0  0  0  0  0
   11.3440   -0.5512   -0.9205 H   0  0  0  0  0  0  0  0  0  0  0  0
   12.0202    0.3263   -2.2992 H   0  0  0  0  0  0  0  0  0  0  0  0
    9.9218   -1.5584   -2.2711 H   0  0  0  0  0  0  0  0  0  0  0  0
    7.4718    1.1029   -2.6074 H   0  0  0  0  0  0  0  0  0  0  0  0
    3.7640   -4.3018    0.9289 H   0  0  0  0  0  0  0  0  0  0  0  0
    1.6296   -3.9344    1.8708 H   0  0  0  0  0  0  0  0  0  0  0  0
   -0.5115   -4.9911    1.9569 H   0  0  0  0  0  0  0  0  0  0  0  0
   -3.0477   -4.7995   -0.7661 H   0  0  0  0  0  0  0  0  0  0  0  0
   -4.2699   -6.4642    0.4312 H   0  0  0  0  0  0  0  0  0  0  0  0
   -5.0530   -4.0272    3.0679 H   0  0  0  0  0  0  0  0  0  0  0  0
   -5.9019   -4.6123    5.2572 H   0  0  0  0  0  0  0  0  0  0  0  0
   -6.5535   -5.4396    7.1818 H   0  0  0  0  0  0  0  0  0  0  0  0
   -5.9182   -8.7809    4.1283 H   0  0  0  0  0  0  0  0  0  0  0  0
   -5.0941   -8.1776    1.8881 H   0  0  0  0  0  0  0  0  0  0  0  0
   -1.3429   -3.7209   -2.0870 H   0  0  0  0  0  0  0  0  0  0  0  0
    0.9338   -2.8311   -2.2484 H   0  0  0  0  0  0  0  0  0  0  0  0
  1  2  1  0  0  0  0
  1 39  1  0  0  0  0
  1 40  1  0  0  0  0
  2  3  1  0  0  0  0
  2 38  2  0  0  0  0
  3  4  2  0  0  0  0
  4  5  1  0  0  0  0
  4 41  1  0  0  0  0
  5  6  1  0  0  0  0
  5 14  2  0  0  0  0
  6  7  1  0  0  0  0
  6 13  2  0  0  0  0
  7  8  2  0  0  0  0
  7 42  1  0  0  0  0
  8  9  1  0  0  0  0
  9 10  1  0  0  0  0
  9 13  1  0  0  0  0
 10 11  1  0  0  0  0
 10 43  1  0  0  0  0
 10 44  1  0  0  0  0
 11 12  1  0  0  0  0
 11 45  1  0  0  0  0
 11 46  1  0  0  0  0
 12 47  1  0  0  0  0
 13 48  1  0  0  0  0
 14 15  1  0  0  0  0
 14 38  1  0  0  0  0
 15 16  1  0  0  0  0
 16 17  2  0  0  0  0
 16 49  1  0  0  0  0
 17 18  1  0  0  0  0
 17 38  1  0  0  0  0
 18 19  1  0  0  0  0
 18 37  2  0  0  0  0
 19 20  2  0  0  0  0
 19 50  1  0  0  0  0
 20 21  1  0  0  0  0
 20 51  1  0  0  0  0
 21 22  1  0  0  0  0
 21 36  2  0  0  0  0
 22 23  1  0  0  0  0
 22 52  1  0  0  0  0
 23 24  2  0  0  0  0
 23 25  1  0  0  0  0
 25 26  1  0  0  0  0
 25 53  1  0  0  0  0
 26 27  1  0  0  0  0
 26 35  2  0  0  0  0
 27 28  2  0  0  0  0
 27 54  1  0  0  0  0
 28 29  1  0  0  0  0
 28 55  1  0  0  0  0
 29 30  1  0  0  0  0
 29 34  2  0  0  0  0
 30 31  1  0  0  0  0
 31 32  1  0  0  0  0
 31 33  1  0  0  0  0
 31 56  1  0  0  0  0
 34 35  1  0  0  0  0
 34 57  1  0  0  0  0
 35 58  1  0  0  0  0
 36 37  1  0  0  0  0
 36 59  1  0  0  0  0
 37 60  1  0  0  0  0
M  END
$$$$
