CHEMBL231649
 OpenBabel04072215363D

 45 48  0  0  1  0  0  0  0  0999 V2000
    1.3212    0.1924    0.3802 O   0  0  0  0  0  0  0  0  0  0  0  0
    2.4580    0.6375    0.4230 C   0  0  0  0  0  0  0  0  0  0  0  0
    3.0271    1.0135    1.5813 O   0  0  0  0  0  0  0  0  0  0  0  0
    3.2588    0.8709   -0.8249 C   0  0  0  0  0  0  0  0  0  0  0  0
    4.5901    0.1444   -0.9272 C   0  0  0  0  0  0  0  0  0  0  0  0
    5.3557    0.4343   -2.2408 C   0  0  3  0  0  0  0  0  0  0  0  0
    6.6903   -0.3739   -2.2448 C   0  0  0  0  0  0  0  0  0  0  0  0
    7.6915    0.1169   -3.3089 C   0  0  0  0  0  0  0  0  0  0  0  0
    8.1022    1.5722   -3.0516 C   0  0  0  0  0  0  0  0  0  0  0  0
    6.8840    2.3727   -2.8009 C   0  0  0  0  0  0  0  0  0  0  0  0
    6.8182    3.7239   -2.8948 N   0  0  0  0  0  0  0  0  0  0  0  0
    5.5622    4.1583   -2.6050 C   0  0  0  0  0  0  0  0  0  0  0  0
    5.1773    5.5152   -2.6264 C   0  0  0  0  0  0  0  0  0  0  0  0
    5.9057    6.5897   -2.9170 C   0  0  0  0  0  0  0  0  0  0  0  0
    7.3563    6.7556   -3.3070 C   0  0  0  0  0  0  0  0  0  0  0  0
    8.2079    5.8962   -3.4377 O   0  0  0  0  0  0  0  0  0  0  0  0
    7.5303    8.1188   -3.4887 N   0  0  0  0  0  0  0  0  0  0  0  0
    6.3512    8.8163   -3.2557 C   0  0  0  0  0  0  0  0  0  0  0  0
    6.1531   10.1780   -3.3444 C   0  0  0  0  0  0  0  0  0  0  0  0
    4.8690   10.6598   -3.0658 C   0  0  0  0  0  0  0  0  0  0  0  0
    3.8324    9.7785   -2.7122 C   0  0  0  0  0  0  0  0  0  0  0  0
    2.1055   10.4560   -2.3442 Br  0  0  0  0  0  0  0  0  0  0  0  0
    4.0511    8.4046   -2.6274 C   0  0  0  0  0  0  0  0  0  0  0  0
    5.3243    7.9372   -2.9027 C   0  0  0  0  0  0  0  0  0  0  0  0
    4.8166    3.0363   -2.3329 C   0  0  0  0  0  0  0  0  0  0  0  0
    5.6476    1.8977   -2.4285 C   0  0  0  0  0  0  0  0  0  0  0  0
    3.9202    1.3997    1.5329 H   0  0  0  0  0  0  0  0  0  0  0  0
    3.3897    1.9400   -0.8493 H   0  0  0  0  0  0  0  0  0  0  0  0
    2.6354    0.5937   -1.6828 H   0  0  0  0  0  0  0  0  0  0  0  0
    4.3909   -0.9308   -0.8563 H   0  0  0  0  0  0  0  0  0  0  0  0
    5.2286    0.4081   -0.0762 H   0  0  0  0  0  0  0  0  0  0  0  0
    4.7617    0.0962   -3.1023 H   0  0  0  0  0  0  0  0  0  0  0  0
    6.4716   -1.4345   -2.4103 H   0  0  0  0  0  0  0  0  0  0  0  0
    7.1719   -0.2965   -1.2607 H   0  0  0  0  0  0  0  0  0  0  0  0
    7.2313    0.0338   -4.3020 H   0  0  0  0  0  0  0  0  0  0  0  0
    8.5831   -0.5194   -3.3093 H   0  0  0  0  0  0  0  0  0  0  0  0
    8.6674    1.9657   -3.9042 H   0  0  0  0  0  0  0  0  0  0  0  0
    8.7517    1.6255   -2.1677 H   0  0  0  0  0  0  0  0  0  0  0  0
    7.6036    4.3258   -3.1636 H   0  0  0  0  0  0  0  0  0  0  0  0
    4.1240    5.6626   -2.3657 H   0  0  0  0  0  0  0  0  0  0  0  0
    8.4155    8.5205   -3.7591 H   0  0  0  0  0  0  0  0  0  0  0  0
    6.9539   10.8543   -3.6191 H   0  0  0  0  0  0  0  0  0  0  0  0
    4.6756   11.7287   -3.1261 H   0  0  0  0  0  0  0  0  0  0  0  0
    3.2463    7.7303   -2.3564 H   0  0  0  0  0  0  0  0  0  0  0  0
    3.7679    3.0950   -2.0987 H   0  0  0  0  0  0  0  0  0  0  0  0
  1  2  2  0  0  0  0
  2  3  1  0  0  0  0
  2  4  1  0  0  0  0
  3 27  1  0  0  0  0
  4  5  1  0  0  0  0
  4 28  1  0  0  0  0
  4 29  1  0  0  0  0
  5  6  1  0  0  0  0
  5 30  1  0  0  0  0
  5 31  1  0  0  0  0
  6  7  1  0  0  0  0
  6 26  1  0  0  0  0
  6 32  1  0  0  0  0
  7  8  1  0  0  0  0
  7 33  1  0  0  0  0
  7 34  1  0  0  0  0
  8  9  1  0  0  0  0
  8 35  1  0  0  0  0
  8 36  1  0  0  0  0
  9 10  1  0  0  0  0
  9 37  1  0  0  0  0
  9 38  1  0  0  0  0
 10 11  1  0  0  0  0
 10 26  2  0  0  0  0
 11 12  1  0  0  0  0
 11 39  1  0  0  0  0
 12 13  1  0  0  0  0
 12 25  2  0  0  0  0
 13 14  2  0  0  0  0
 13 40  1  0  0  0  0
 14 15  1  0  0  0  0
 14 24  1  0  0  0  0
 15 16  2  0  0  0  0
 15 17  1  0  0  0  0
 17 18  1  0  0  0  0
 17 41  1  0  0  0  0
 18 19  1  0  0  0  0
 18 24  2  0  0  0  0
 19 20  2  0  0  0  0
 19 42  1  0  0  0  0
 20 21  1  0  0  0  0
 20 43  1  0  0  0  0
 21 22  1  0  0  0  0
 21 23  2  0  0  0  0
 23 24  1  0  0  0  0
 23 44  1  0  0  0  0
 25 26  1  0  0  0  0
 25 45  1  0  0  0  0
M  END
$$$$
