CHEMBL1688248
 OpenBabel04072215363D

 43 46  0  0  0  0  0  0  0  0999 V2000
   -0.0110    0.9156    1.3833 F   0  0  0  0  0  0  0  0  0  0  0  0
    0.1649   -0.1262    0.5243 C   0  0  0  0  0  0  0  0  0  0  0  0
   -1.0833   -0.5901    0.2388 F   0  0  0  0  0  0  0  0  0  0  0  0
    0.6363    0.4161   -0.6325 F   0  0  0  0  0  0  0  0  0  0  0  0
    1.0669   -1.2065    1.0611 C   0  0  0  0  0  0  0  0  0  0  0  0
    1.7049   -1.0954    2.3050 C   0  0  0  0  0  0  0  0  0  0  0  0
    2.5189   -2.1274    2.7764 C   0  0  0  0  0  0  0  0  0  0  0  0
    2.7000   -3.2878    2.0168 C   0  0  0  0  0  0  0  0  0  0  0  0
    2.0739   -3.4274    0.7723 C   0  0  0  0  0  0  0  0  0  0  0  0
    2.2021   -4.6156   -0.0568 C   0  0  0  0  0  0  0  0  0  0  0  0
    1.7609   -4.8185   -1.2808 N   0  0  0  0  0  0  0  0  0  0  0  0
    2.0727   -6.1165   -1.5986 N   0  0  0  0  0  0  0  0  0  0  0  0
    2.6676   -6.6386   -0.5436 C   0  0  0  0  0  0  0  0  0  0  0  0
    3.1527   -7.9953   -0.3072 C   0  0  0  0  0  0  0  0  0  0  0  0
    3.8343   -8.3145    0.8790 C   0  0  0  0  0  0  0  0  0  0  0  0
    4.2465   -9.6196    1.1215 C   0  0  0  0  0  0  0  0  0  0  0  0
    3.9624  -10.5739    0.1668 C   0  0  0  0  0  0  0  0  0  0  0  0
    3.3061  -10.3113   -0.9828 N   0  0  0  0  0  0  0  0  0  0  0  0
    2.9070   -9.0387   -1.2244 C   0  0  0  0  0  0  0  0  0  0  0  0
    2.1906   -8.7917   -2.3962 N   0  0  0  0  0  0  0  0  0  0  0  0
    1.7258   -9.9332   -3.1614 C   0  0  0  0  0  0  0  0  0  0  0  0
    0.7576   -9.4987   -4.2445 C   0  0  0  0  0  0  0  0  0  0  0  0
    0.5069  -10.3494   -5.3271 C   0  0  0  0  0  0  0  0  0  0  0  0
   -0.4209   -9.9637   -6.2840 C   0  0  0  0  0  0  0  0  0  0  0  0
   -1.1120   -8.8059   -6.2397 N   0  0  0  0  0  0  0  0  0  0  0  0
   -0.8703   -8.0016   -5.1829 C   0  0  0  0  0  0  0  0  0  0  0  0
    0.0309   -8.3027   -4.1735 C   0  0  0  0  0  0  0  0  0  0  0  0
    2.8072   -5.7236    0.4780 O   0  0  0  0  0  0  0  0  0  0  0  0
    1.2688   -2.3719    0.3067 C   0  0  0  0  0  0  0  0  0  0  0  0
    1.5632   -0.2043    2.9152 H   0  0  0  0  0  0  0  0  0  0  0  0
    3.0094   -2.0296    3.7433 H   0  0  0  0  0  0  0  0  0  0  0  0
    3.3344   -4.0797    2.4092 H   0  0  0  0  0  0  0  0  0  0  0  0
    4.0341   -7.5535    1.6297 H   0  0  0  0  0  0  0  0  0  0  0  0
    4.7645   -9.8850    2.0361 H   0  0  0  0  0  0  0  0  0  0  0  0
    4.2571  -11.6106    0.3042 H   0  0  0  0  0  0  0  0  0  0  0  0
    2.6469   -8.0796   -2.9628 H   0  0  0  0  0  0  0  0  0  0  0  0
    1.1883  -10.6360   -2.5121 H   0  0  0  0  0  0  0  0  0  0  0  0
    2.5774  -10.4495   -3.6207 H   0  0  0  0  0  0  0  0  0  0  0  0
    1.0158  -11.3028   -5.4241 H   0  0  0  0  0  0  0  0  0  0  0  0
   -0.6428  -10.6012   -7.1351 H   0  0  0  0  0  0  0  0  0  0  0  0
   -1.4416   -7.0779   -5.1603 H   0  0  0  0  0  0  0  0  0  0  0  0
    0.1550   -7.6098   -3.3461 H   0  0  0  0  0  0  0  0  0  0  0  0
    0.7790   -2.4614   -0.6651 H   0  0  0  0  0  0  0  0  0  0  0  0
  1  2  1  0  0  0  0
  2  3  1  0  0  0  0
  2  4  1  0  0  0  0
  2  5  1  0  0  0  0
  5  6  1  0  0  0  0
  5 29  2  0  0  0  0
  6  7  2  0  0  0  0
  6 30  1  0  0  0  0
  7  8  1  0  0  0  0
  7 31  1  0  0  0  0
  8  9  2  0  0  0  0
  8 32  1  0  0  0  0
  9 10  1  0  0  0  0
  9 29  1  0  0  0  0
 10 11  2  0  0  0  0
 10 28  1  0  0  0  0
 11 12  1  0  0  0  0
 12 13  2  0  0  0  0
 13 14  1  0  0  0  0
 13 28  1  0  0  0  0
 14 15  1  0  0  0  0
 14 19  2  0  0  0  0
 15 16  2  0  0  0  0
 15 33  1  0  0  0  0
 16 17  1  0  0  0  0
 16 34  1  0  0  0  0
 17 18  2  0  0  0  0
 17 35  1  0  0  0  0
 18 19  1  0  0  0  0
 19 20  1  0  0  0  0
 20 21  1  0  0  0  0
 20 36  1  0  0  0  0
 21 22  1  0  0  0  0
 21 37  1  0  0  0  0
 21 38  1  0  0  0  0
 22 23  1  0  0  0  0
 22 27  2  0  0  0  0
 23 24  2  0  0  0  0
 23 39  1  0  0  0  0
 24 25  1  0  0  0  0
 24 40  1  0  0  0  0
 25 26  2  0  0  0  0
 26 27  1  0  0  0  0
 26 41  1  0  0  0  0
 27 42  1  0  0  0  0
 29 43  1  0  0  0  0
M  END
$$$$
