CHEMBL3671553
 OpenBabel04072215373D

 53 55  0  0  1  0  0  0  0  0999 V2000
   -2.6507    4.6939   -0.9006 C   0  0  0  0  0  0  0  0  0  0  0  0
   -1.6777    4.0804   -0.2144 C   0  0  0  0  0  0  0  0  0  0  0  0
   -0.4591    4.8616    0.1119 C   0  0  0  0  0  0  0  0  0  0  0  0
    0.2416    5.3610   -0.7624 O   0  0  0  0  0  0  0  0  0  0  0  0
   -0.2010    5.0727    1.4499 N   0  0  0  0  0  0  0  0  0  0  0  0
   -1.1713    4.8193    2.4348 C   0  0  0  0  0  0  0  0  0  0  0  0
   -2.2981    5.6519    2.4768 C   0  0  0  0  0  0  0  0  0  0  0  0
   -3.4501    5.2648    3.1997 C   0  0  0  0  0  0  0  0  0  0  0  0
   -4.6812    5.9469    3.1779 C   0  0  0  0  0  0  0  0  0  0  0  0
   -4.8575    7.0220    2.2752 N   0  0  0  0  0  0  0  0  0  0  0  0
   -5.7261    8.1254    2.4136 C   0  0  0  0  0  0  0  0  0  0  0  0
   -6.0285    8.6633    3.6690 C   0  0  0  0  0  0  0  0  0  0  0  0
   -6.6785    9.8941    3.7820 C   0  0  0  0  0  0  0  0  0  0  0  0
   -7.0511   10.5895    2.6325 C   0  0  0  0  0  0  0  0  0  0  0  0
   -7.7960   12.3190    2.7910 Br  0  0  0  0  0  0  0  0  0  0  0  0
   -6.8317   10.0412    1.3733 C   0  0  0  0  0  0  0  0  0  0  0  0
   -6.1695    8.8203    1.2762 C   0  0  0  0  0  0  0  0  0  0  0  0
   -5.9204    8.3134    0.0583 F   0  0  0  0  0  0  0  0  0  0  0  0
   -5.7241    5.5652    3.9367 N   0  0  0  0  0  0  0  0  0  0  0  0
   -5.5526    4.4649    4.6807 C   0  0  0  0  0  0  0  0  0  0  0  0
   -4.4545    3.7117    4.7292 N   0  0  0  0  0  0  0  0  0  0  0  0
   -3.4116    4.1101    3.9884 C   0  0  0  0  0  0  0  0  0  0  0  0
   -2.2639    3.3343    3.9805 C   0  0  0  0  0  0  0  0  0  0  0  0
   -1.1390    3.6530    3.2066 C   0  0  0  0  0  0  0  0  0  0  0  0
   -0.1545    2.6980    3.2513 O   0  0  0  0  0  0  0  0  0  0  0  0
    1.1935    3.1382    3.0539 C   0  0  0  0  0  0  0  0  0  0  0  0
    2.1485    2.2239    3.8573 C   0  0  2  0  0  0  0  0  0  0  0  0
    3.5770    2.7544    3.7179 C   0  0  0  0  0  0  0  0  0  0  0  0
    2.0538    0.8289    3.4094 N   0  0  0  0  0  0  0  0  0  0  0  0
    2.7271   -0.1873    4.0538 C   0  0  0  0  0  0  0  0  0  0  0  0
    2.5042   -1.5558    3.4643 C   0  0  0  0  0  0  0  0  0  0  0  0
    3.4709   -0.0196    5.0151 O   0  0  0  0  0  0  0  0  0  0  0  0
   -3.5985    4.2014   -1.0882 H   0  0  0  0  0  0  0  0  0  0  0  0
   -2.5260    5.7083   -1.2715 H   0  0  0  0  0  0  0  0  0  0  0  0
   -1.7899    3.0899    0.2072 H   0  0  0  0  0  0  0  0  0  0  0  0
    0.3311    5.9342    1.5403 H   0  0  0  0  0  0  0  0  0  0  0  0
   -2.3154    6.5635    1.8808 H   0  0  0  0  0  0  0  0  0  0  0  0
   -4.8023    6.6957    1.3143 H   0  0  0  0  0  0  0  0  0  0  0  0
   -5.7114    8.1519    4.5754 H   0  0  0  0  0  0  0  0  0  0  0  0
   -6.8521   10.3132    4.7697 H   0  0  0  0  0  0  0  0  0  0  0  0
   -7.1318   10.5606    0.4690 H   0  0  0  0  0  0  0  0  0  0  0  0
   -6.3947    4.1492    5.2844 H   0  0  0  0  0  0  0  0  0  0  0  0
   -2.2497    2.4228    4.5735 H   0  0  0  0  0  0  0  0  0  0  0  0
    1.3308    4.1706    3.4025 H   0  0  0  0  0  0  0  0  0  0  0  0
    1.4300    3.0704    1.9866 H   0  0  0  0  0  0  0  0  0  0  0  0
    1.8481    2.2338    4.9120 H   0  0  0  0  0  0  0  0  0  0  0  0
    3.9326    2.6532    2.6864 H   0  0  0  0  0  0  0  0  0  0  0  0
    4.2774    2.2145    4.3598 H   0  0  0  0  0  0  0  0  0  0  0  0
    3.6309    3.8119    3.9979 H   0  0  0  0  0  0  0  0  0  0  0  0
    1.2094    0.5711    2.9122 H   0  0  0  0  0  0  0  0  0  0  0  0
    1.8491   -1.5206    2.5890 H   0  0  0  0  0  0  0  0  0  0  0  0
    2.0512   -2.2037    4.2193 H   0  0  0  0  0  0  0  0  0  0  0  0
    3.4687   -1.9682    3.1558 H   0  0  0  0  0  0  0  0  0  0  0  0
  1  2  2  0  0  0  0
  1 33  1  0  0  0  0
  1 34  1  0  0  0  0
  2  3  1  0  0  0  0
  2 35  1  0  0  0  0
  3  4  2  0  0  0  0
  3  5  1  0  0  0  0
  5  6  1  0  0  0  0
  5 36  1  0  0  0  0
  6  7  1  0  0  0  0
  6 24  2  0  0  0  0
  7  8  2  0  0  0  0
  7 37  1  0  0  0  0
  8  9  1  0  0  0  0
  8 22  1  0  0  0  0
  9 10  1  0  0  0  0
  9 19  2  0  0  0  0
 10 11  1  0  0  0  0
 10 38  1  0  0  0  0
 11 12  1  0  0  0  0
 11 17  2  0  0  0  0
 12 13  2  0  0  0  0
 12 39  1  0  0  0  0
 13 14  1  0  0  0  0
 13 40  1  0  0  0  0
 14 15  1  0  0  0  0
 14 16  2  0  0  0  0
 16 17  1  0  0  0  0
 16 41  1  0  0  0  0
 17 18  1  0  0  0  0
 19 20  1  0  0  0  0
 20 21  2  0  0  0  0
 20 42  1  0  0  0  0
 21 22  1  0  0  0  0
 22 23  2  0  0  0  0
 23 24  1  0  0  0  0
 23 43  1  0  0  0  0
 24 25  1  0  0  0  0
 25 26  1  0  0  0  0
 26 44  1  0  0  0  0
 26 45  1  0  0  0  0
 27 29  1  0  0  0  0
 27 28  1  0  0  0  0
 27 26  1  0  0  0  0
 27 46  1  1  0  0  0
 28 47  1  0  0  0  0
 28 48  1  0  0  0  0
 28 49  1  0  0  0  0
 29 30  1  0  0  0  0
 29 50  1  0  0  0  0
 30 31  1  0  0  0  0
 30 32  2  0  0  0  0
 31 51  1  0  0  0  0
 31 52  1  0  0  0  0
 31 53  1  0  0  0  0
M  END
$$$$
