CHEMBL3934424
 OpenBabel04072215373D

 71 74  0  0  0  0  0  0  0  0999 V2000
    4.2597   -4.2781   -0.8660 C   0  0  0  0  0  0  0  0  0  0  0  0
    5.6824   -3.7872   -0.6176 C   0  0  0  0  0  0  0  0  0  0  0  0
    6.3256   -4.3308    0.5908 N   0  0  0  0  0  0  0  0  0  0  0  0
    6.3307   -5.8050    0.6535 C   0  0  0  0  0  0  0  0  0  0  0  0
    7.1739   -6.5280   -0.3949 C   0  0  0  0  0  0  0  0  0  0  0  0
    7.6843   -3.7802    0.7780 C   0  0  0  0  0  0  0  0  0  0  0  0
    7.7548   -2.2532    0.9503 C   0  0  0  0  0  0  0  0  0  0  0  0
    6.9276   -1.7200    2.1162 C   0  0  0  0  0  0  0  0  0  0  0  0
    7.3996   -2.2081    3.3881 N   0  0  0  0  0  0  0  0  0  0  0  0
    8.4334   -1.6259    4.0862 C   0  0  0  0  0  0  0  0  0  0  0  0
    8.9861   -0.6000    3.6957 O   0  0  0  0  0  0  0  0  0  0  0  0
    8.8161   -2.3131    5.3098 C   0  0  0  0  0  0  0  0  0  0  0  0
    9.7350   -1.8901    6.2481 C   0  0  0  0  0  0  0  0  0  0  0  0
    9.8549   -2.7861    7.3473 C   0  0  0  0  0  0  0  0  0  0  0  0
   10.6599   -2.5893    8.4246 N   0  0  0  0  0  0  0  0  0  0  0  0
   10.6608   -3.5734    9.3390 C   0  0  0  0  0  0  0  0  0  0  0  0
    9.9274   -4.7411    9.2518 C   0  0  0  0  0  0  0  0  0  0  0  0
    9.0501   -4.9171    8.1778 C   0  0  0  0  0  0  0  0  0  0  0  0
    8.2464   -6.0326    8.0126 O   0  0  0  0  0  0  0  0  0  0  0  0
    7.6990   -6.6233    9.1280 C   0  0  0  0  0  0  0  0  0  0  0  0
    7.3295   -5.9046   10.2560 C   0  0  0  0  0  0  0  0  0  0  0  0
    6.9255   -6.5757   11.4028 C   0  0  0  0  0  0  0  0  0  0  0  0
    6.7783   -7.9681   11.4277 C   0  0  0  0  0  0  0  0  0  0  0  0
    6.3871   -8.6714   12.5941 N   0  0  0  0  0  0  0  0  0  0  0  0
    6.0566   -8.0769   13.7931 C   0  0  0  0  0  0  0  0  0  0  0  0
    6.0107   -6.8623   13.9820 O   0  0  0  0  0  0  0  0  0  0  0  0
    5.8030   -8.9795   14.8147 N   0  0  0  0  0  0  0  0  0  0  0  0
    5.4882   -8.4234   16.0895 C   0  0  0  0  0  0  0  0  0  0  0  0
    4.4829   -7.4513   16.2156 C   0  0  0  0  0  0  0  0  0  0  0  0
    4.3234   -6.7405   17.4087 C   0  0  0  0  0  0  0  0  0  0  0  0
    3.3024   -5.6415   17.5066 C   0  0  0  0  0  0  0  0  0  0  0  0
    5.1756   -7.0223   18.4839 C   0  0  0  0  0  0  0  0  0  0  0  0
    6.1351   -8.0354   18.3814 C   0  0  0  0  0  0  0  0  0  0  0  0
    6.2680   -8.7463   17.1937 C   0  0  0  0  0  0  0  0  0  0  0  0
    7.2298   -9.6746   17.0824 F   0  0  0  0  0  0  0  0  0  0  0  0
    7.0401   -8.6766   10.2511 C   0  0  0  0  0  0  0  0  0  0  0  0
    7.5010   -8.0054    9.1044 C   0  0  0  0  0  0  0  0  0  0  0  0
    9.0442   -3.9111    7.1989 C   0  0  0  0  0  0  0  0  0  0  0  0
    8.1335   -3.8209    5.7483 S   0  0  0  0  0  0  0  0  0  0  0  0
    3.7848   -3.6533   -1.6305 H   0  0  0  0  0  0  0  0  0  0  0  0
    3.6502   -4.2121    0.0413 H   0  0  0  0  0  0  0  0  0  0  0  0
    4.2445   -5.3098   -1.2294 H   0  0  0  0  0  0  0  0  0  0  0  0
    5.5977   -2.7005   -0.5126 H   0  0  0  0  0  0  0  0  0  0  0  0
    6.2914   -3.9720   -1.5098 H   0  0  0  0  0  0  0  0  0  0  0  0
    5.3020   -6.1796    0.6029 H   0  0  0  0  0  0  0  0  0  0  0  0
    6.6795   -6.1138    1.6477 H   0  0  0  0  0  0  0  0  0  0  0  0
    6.9974   -6.1476   -1.4052 H   0  0  0  0  0  0  0  0  0  0  0  0
    6.9270   -7.5947   -0.3997 H   0  0  0  0  0  0  0  0  0  0  0  0
    8.2418   -6.4388   -0.1729 H   0  0  0  0  0  0  0  0  0  0  0  0
    8.3264   -4.0550   -0.0674 H   0  0  0  0  0  0  0  0  0  0  0  0
    8.1326   -4.2388    1.6705 H   0  0  0  0  0  0  0  0  0  0  0  0
    7.4384   -1.7542    0.0290 H   0  0  0  0  0  0  0  0  0  0  0  0
    8.8097   -1.9756    1.0919 H   0  0  0  0  0  0  0  0  0  0  0  0
    5.8755   -2.0071    2.0275 H   0  0  0  0  0  0  0  0  0  0  0  0
    6.9738   -0.6246    2.1238 H   0  0  0  0  0  0  0  0  0  0  0  0
    7.0382   -3.0974    3.7202 H   0  0  0  0  0  0  0  0  0  0  0  0
   10.2918   -0.9643    6.1608 H   0  0  0  0  0  0  0  0  0  0  0  0
   11.3006   -3.3927   10.2001 H   0  0  0  0  0  0  0  0  0  0  0  0
   10.0217   -5.4834   10.0373 H   0  0  0  0  0  0  0  0  0  0  0  0
    7.3951   -4.8205   10.2919 H   0  0  0  0  0  0  0  0  0  0  0  0
    6.7489   -5.9468   12.2666 H   0  0  0  0  0  0  0  0  0  0  0  0
    6.2605   -9.6724   12.5219 H   0  0  0  0  0  0  0  0  0  0  0  0
    6.4613   -9.7498   14.8448 H   0  0  0  0  0  0  0  0  0  0  0  0
    3.8661   -7.1987   15.3527 H   0  0  0  0  0  0  0  0  0  0  0  0
    2.6461   -5.6241   16.6341 H   0  0  0  0  0  0  0  0  0  0  0  0
    3.8045   -4.6717   17.5837 H   0  0  0  0  0  0  0  0  0  0  0  0
    2.6761   -5.7974   18.3927 H   0  0  0  0  0  0  0  0  0  0  0  0
    5.1073   -6.4393   19.4002 H   0  0  0  0  0  0  0  0  0  0  0  0
    6.8067   -8.2417   19.2081 H   0  0  0  0  0  0  0  0  0  0  0  0
    6.9099   -9.7546   10.2061 H   0  0  0  0  0  0  0  0  0  0  0  0
    7.7211   -8.5659    8.1997 H   0  0  0  0  0  0  0  0  0  0  0  0
  1  2  1  0  0  0  0
  1 40  1  0  0  0  0
  1 41  1  0  0  0  0
  1 42  1  0  0  0  0
  2  3  1  0  0  0  0
  2 43  1  0  0  0  0
  2 44  1  0  0  0  0
  3  4  1  0  0  0  0
  3  6  1  0  0  0  0
  4  5  1  0  0  0  0
  4 45  1  0  0  0  0
  4 46  1  0  0  0  0
  5 47  1  0  0  0  0
  5 48  1  0  0  0  0
  5 49  1  0  0  0  0
  6  7  1  0  0  0  0
  6 50  1  0  0  0  0
  6 51  1  0  0  0  0
  7  8  1  0  0  0  0
  7 52  1  0  0  0  0
  7 53  1  0  0  0  0
  8  9  1  0  0  0  0
  8 54  1  0  0  0  0
  8 55  1  0  0  0  0
  9 10  1  0  0  0  0
  9 56  1  0  0  0  0
 10 11  2  0  0  0  0
 10 12  1  0  0  0  0
 12 13  2  0  0  0  0
 12 39  1  0  0  0  0
 13 14  1  0  0  0  0
 13 57  1  0  0  0  0
 14 15  1  0  0  0  0
 14 38  2  0  0  0  0
 15 16  2  0  0  0  0
 16 17  1  0  0  0  0
 16 58  1  0  0  0  0
 17 18  2  0  0  0  0
 17 59  1  0  0  0  0
 18 19  1  0  0  0  0
 18 38  1  0  0  0  0
 19 20  1  0  0  0  0
 20 21  1  0  0  0  0
 20 37  2  0  0  0  0
 21 22  2  0  0  0  0
 21 60  1  0  0  0  0
 22 23  1  0  0  0  0
 22 61  1  0  0  0  0
 23 24  1  0  0  0  0
 23 36  2  0  0  0  0
 24 25  1  0  0  0  0
 24 62  1  0  0  0  0
 25 26  2  0  0  0  0
 25 27  1  0  0  0  0
 27 28  1  0  0  0  0
 27 63  1  0  0  0  0
 28 29  1  0  0  0  0
 28 34  2  0  0  0  0
 29 30  2  0  0  0  0
 29 64  1  0  0  0  0
 30 31  1  0  0  0  0
 30 32  1  0  0  0  0
 31 65  1  0  0  0  0
 31 66  1  0  0  0  0
 31 67  1  0  0  0  0
 32 33  2  0  0  0  0
 32 68  1  0  0  0  0
 33 34  1  0  0  0  0
 33 69  1  0  0  0  0
 34 35  1  0  0  0  0
 36 37  1  0  0  0  0
 36 70  1  0  0  0  0
 37 71  1  0  0  0  0
 38 39  1  0  0  0  0
M  END
$$$$
