CHEMBL4537518
 OpenBabel04072215383D

 54 57  0  0  1  0  0  0  0  0999 V2000
    2.7449    4.2003    3.7870 C   0  0  0  0  0  0  0  0  0  0  0  0
    2.0981    3.8516    2.4836 C   0  0  0  0  0  0  0  0  0  0  0  0
    2.7061    3.4553    1.3513 C   0  0  0  0  0  0  0  0  0  0  0  0
    4.2019    3.3447    1.2040 C   0  0  0  0  0  0  0  0  0  0  0  0
    1.9093    3.1450    0.1207 C   0  0  0  0  0  0  0  0  0  0  0  0
    2.3778    2.5798   -0.8530 O   0  0  0  0  0  0  0  0  0  0  0  0
    0.6594    3.7166    0.1815 O   0  0  0  0  0  0  0  0  0  0  0  0
    0.0545    3.9861   -1.0904 C   0  0  2  0  0  0  0  0  0  0  0  0
    0.6469    5.3110   -1.5437 C   0  0  0  0  0  0  0  0  0  0  0  0
    1.6382    5.3664   -2.4586 C   0  0  0  0  0  0  0  0  0  0  0  0
    2.0208    4.4743   -3.5740 C   0  0  0  0  0  0  0  0  0  0  0  0
    2.6147    6.2914   -1.8212 C   0  0  0  0  0  0  0  0  0  0  0  0
    3.7976    6.3890   -2.0850 O   0  0  0  0  0  0  0  0  0  0  0  0
    1.9757    6.8780   -0.7480 N   0  0  0  0  0  0  0  0  0  0  0  0
    0.5814    6.6363   -0.8297 C   0  0  1  0  0  0  0  0  0  0  0  0
    0.1787    7.5987   -1.8065 O   0  0  0  0  0  0  0  0  0  0  0  0
   -0.2239    6.9530    0.4427 C   0  0  0  0  0  0  0  0  0  0  0  0
   -1.7485    7.0268    0.3275 C   0  0  1  0  0  0  0  0  0  0  0  0
   -2.4833    7.2061    1.6278 C   0  0  0  0  0  0  0  0  0  0  0  0
   -2.3301    7.9714   -0.6011 O   0  0  0  0  0  0  0  0  0  0  0  0
   -2.4049    6.6089   -1.0013 C   0  0  2  0  0  0  0  0  0  0  0  0
   -3.6972    5.8658   -1.0359 C   0  0  0  0  0  0  0  0  0  0  0  0
   -3.7368    4.6331   -0.1058 C   0  0  0  0  0  0  0  0  0  0  0  0
   -2.3912    3.9579    0.1285 C   0  0  1  0  0  0  0  0  0  0  0  0
   -2.0753    3.6402    1.5680 C   0  0  0  0  0  0  0  0  0  0  0  0
   -2.1166    2.7633   -0.6469 O   0  0  0  0  0  0  0  0  0  0  0  0
   -1.4361    3.9261   -1.0905 C   0  0  2  0  0  0  0  0  0  0  0  0
    3.8103    3.9658    3.8174 H   0  0  0  0  0  0  0  0  0  0  0  0
    2.2563    3.6444    4.5883 H   0  0  0  0  0  0  0  0  0  0  0  0
    2.6149    5.2679    3.9837 H   0  0  0  0  0  0  0  0  0  0  0  0
    1.0154    3.9225    2.5143 H   0  0  0  0  0  0  0  0  0  0  0  0
    4.7116    4.1790    1.7020 H   0  0  0  0  0  0  0  0  0  0  0  0
    4.5618    2.4073    1.6408 H   0  0  0  0  0  0  0  0  0  0  0  0
    4.5232    3.3769    0.1586 H   0  0  0  0  0  0  0  0  0  0  0  0
    0.3430    3.1872   -1.7846 H   0  0  0  0  0  0  0  0  0  0  0  0
    1.4010    3.5763   -3.6199 H   0  0  0  0  0  0  0  0  0  0  0  0
    3.0683    4.1768   -3.5322 H   0  0  0  0  0  0  0  0  0  0  0  0
    1.8518    5.0155   -4.5134 H   0  0  0  0  0  0  0  0  0  0  0  0
    2.4934    7.3043    0.0079 H   0  0  0  0  0  0  0  0  0  0  0  0
    0.6418    8.4157   -1.5661 H   0  0  0  0  0  0  0  0  0  0  0  0
    0.0972    7.9416    0.8162 H   0  0  0  0  0  0  0  0  0  0  0  0
    0.0380    6.2388    1.2352 H   0  0  0  0  0  0  0  0  0  0  0  0
   -2.1767    8.1485    2.0966 H   0  0  0  0  0  0  0  0  0  0  0  0
   -2.2626    6.4019    2.3280 H   0  0  0  0  0  0  0  0  0  0  0  0
   -3.5678    7.2586    1.4831 H   0  0  0  0  0  0  0  0  0  0  0  0
   -1.8446    6.4074   -1.9004 H   0  0  0  0  0  0  0  0  0  0  0  0
   -4.5525    6.5226   -0.8471 H   0  0  0  0  0  0  0  0  0  0  0  0
   -3.8297    5.4980   -2.0649 H   0  0  0  0  0  0  0  0  0  0  0  0
   -4.4655    3.9056   -0.4816 H   0  0  0  0  0  0  0  0  0  0  0  0
   -4.1377    4.9768    0.8553 H   0  0  0  0  0  0  0  0  0  0  0  0
   -1.0245    3.7708    1.8077 H   0  0  0  0  0  0  0  0  0  0  0  0
   -2.6366    4.2738    2.2589 H   0  0  0  0  0  0  0  0  0  0  0  0
   -2.3566    2.6081    1.8065 H   0  0  0  0  0  0  0  0  0  0  0  0
   -1.7828    4.2351   -2.0707 H   0  0  0  0  0  0  0  0  0  0  0  0
  1  2  1  0  0  0  0
  1 28  1  0  0  0  0
  1 29  1  0  0  0  0
  1 30  1  0  0  0  0
  2  3  2  0  0  0  0
  2 31  1  0  0  0  0
  3  4  1  0  0  0  0
  3  5  1  0  0  0  0
  4 32  1  0  0  0  0
  4 33  1  0  0  0  0
  4 34  1  0  0  0  0
  5  6  2  0  0  0  0
  5  7  1  0  0  0  0
  7  8  1  0  0  0  0
  8  9  1  0  0  0  0
  8 27  1  0  0  0  0
  8 35  1  6  0  0  0
  9 10  2  0  0  0  0
  9 15  1  0  0  0  0
 10 11  1  0  0  0  0
 10 12  1  0  0  0  0
 11 36  1  0  0  0  0
 11 37  1  0  0  0  0
 11 38  1  0  0  0  0
 12 13  2  0  0  0  0
 12 14  1  0  0  0  0
 14 15  1  0  0  0  0
 14 39  1  0  0  0  0
 15 16  1  6  0  0  0
 15 17  1  0  0  0  0
 16 40  1  0  0  0  0
 17 18  1  0  0  0  0
 17 41  1  0  0  0  0
 17 42  1  0  0  0  0
 18 19  1  1  0  0  0
 18 20  1  0  0  0  0
 18 21  1  0  0  0  0
 19 43  1  0  0  0  0
 19 44  1  0  0  0  0
 19 45  1  0  0  0  0
 20 21  1  0  0  0  0
 21 22  1  0  0  0  0
 21 46  1  6  0  0  0
 22 23  1  0  0  0  0
 22 47  1  0  0  0  0
 22 48  1  0  0  0  0
 23 24  1  0  0  0  0
 23 49  1  0  0  0  0
 23 50  1  0  0  0  0
 24 25  1  1  0  0  0
 24 26  1  0  0  0  0
 24 27  1  0  0  0  0
 25 51  1  0  0  0  0
 25 52  1  0  0  0  0
 25 53  1  0  0  0  0
 26 27  1  0  0  0  0
 27 54  1  6  0  0  0
M  END
$$$$
