CHEMBL3098325
 OpenBabel04072215363D

 40 42  0  0  0  0  0  0  0  0999 V2000
    1.2293   -0.1588    0.3339 C   0  0  0  0  0  0  0  0  0  0  0  0
    2.6133    0.0119    0.0430 O   0  0  0  0  0  0  0  0  0  0  0  0
    3.0990    1.2883    0.1769 C   0  0  0  0  0  0  0  0  0  0  0  0
    4.0975    1.6151   -0.7523 C   0  0  0  0  0  0  0  0  0  0  0  0
    4.6958    2.8656   -0.7863 C   0  0  0  0  0  0  0  0  0  0  0  0
    5.6057    3.1202   -1.7300 N   0  0  0  0  0  0  0  0  0  0  0  0
    6.1164    4.3516   -1.7343 C   0  0  0  0  0  0  0  0  0  0  0  0
    7.2527    4.7056   -2.9580 Cl  0  0  0  0  0  0  0  0  0  0  0  0
    5.8143    5.3504   -0.9094 N   0  0  0  0  0  0  0  0  0  0  0  0
    4.9002    5.0786    0.0389 C   0  0  0  0  0  0  0  0  0  0  0  0
    4.5170    6.1241    0.9244 N   0  0  0  0  0  0  0  0  0  0  0  0
    4.5674    7.4963    0.6023 C   0  0  0  0  0  0  0  0  0  0  0  0
    4.2644    7.9375   -0.6939 C   0  0  0  0  0  0  0  0  0  0  0  0
    4.3449    9.2866   -1.0431 C   0  0  0  0  0  0  0  0  0  0  0  0
    4.7185   10.2302   -0.0864 C   0  0  0  0  0  0  0  0  0  0  0  0
    4.9088   11.6720   -0.4106 C   0  0  0  0  0  0  0  0  0  0  0  0
    4.8072   12.0647   -1.7168 N   0  0  0  0  0  0  0  0  0  0  0  0
    5.1788   12.4924    0.4584 O   0  0  0  0  0  0  0  0  0  0  0  0
    4.9363    9.8098    1.2346 C   0  0  0  0  0  0  0  0  0  0  0  0
    4.8472    8.4543    1.5793 C   0  0  0  0  0  0  0  0  0  0  0  0
    4.3010    3.8169    0.1628 C   0  0  0  0  0  0  0  0  0  0  0  0
    3.3203    3.4859    1.1294 C   0  0  0  0  0  0  0  0  0  0  0  0
    2.7127    2.2270    1.1394 C   0  0  0  0  0  0  0  0  0  0  0  0
    1.8198    1.8549    2.1045 O   0  0  0  0  0  0  0  0  0  0  0  0
    0.9538    2.8777    2.5844 C   0  0  0  0  0  0  0  0  0  0  0  0
    0.9027   -1.0907   -0.1370 H   0  0  0  0  0  0  0  0  0  0  0  0
    0.6183    0.6527   -0.0786 H   0  0  0  0  0  0  0  0  0  0  0  0
    1.0687   -0.2731    1.4093 H   0  0  0  0  0  0  0  0  0  0  0  0
    4.3955    0.8714   -1.4898 H   0  0  0  0  0  0  0  0  0  0  0  0
    4.8444    5.9176    1.8624 H   0  0  0  0  0  0  0  0  0  0  0  0
    3.9754    7.2204   -1.4598 H   0  0  0  0  0  0  0  0  0  0  0  0
    4.1183    9.5541   -2.0678 H   0  0  0  0  0  0  0  0  0  0  0  0
    4.7271   11.4390   -2.5027 H   0  0  0  0  0  0  0  0  0  0  0  0
    5.0276   13.0321   -1.9130 H   0  0  0  0  0  0  0  0  0  0  0  0
    5.1950   10.5379    2.0011 H   0  0  0  0  0  0  0  0  0  0  0  0
    5.0320    8.1630    2.6097 H   0  0  0  0  0  0  0  0  0  0  0  0
    3.0436    4.2270    1.8728 H   0  0  0  0  0  0  0  0  0  0  0  0
    0.1226    2.3889    3.1017 H   0  0  0  0  0  0  0  0  0  0  0  0
    0.5354    3.4714    1.7642 H   0  0  0  0  0  0  0  0  0  0  0  0
    1.4683    3.5155    3.3100 H   0  0  0  0  0  0  0  0  0  0  0  0
  1  2  1  0  0  0  0
  1 26  1  0  0  0  0
  1 27  1  0  0  0  0
  1 28  1  0  0  0  0
  2  3  1  0  0  0  0
  3  4  1  0  0  0  0
  3 23  2  0  0  0  0
  4  5  2  0  0  0  0
  4 29  1  0  0  0  0
  5  6  1  0  0  0  0
  5 21  1  0  0  0  0
  6  7  2  0  0  0  0
  7  8  1  0  0  0  0
  7  9  1  0  0  0  0
  9 10  2  0  0  0  0
 10 11  1  0  0  0  0
 10 21  1  0  0  0  0
 11 12  1  0  0  0  0
 11 30  1  0  0  0  0
 12 13  1  0  0  0  0
 12 20  2  0  0  0  0
 13 14  2  0  0  0  0
 13 31  1  0  0  0  0
 14 15  1  0  0  0  0
 14 32  1  0  0  0  0
 15 16  1  0  0  0  0
 15 19  2  0  0  0  0
 16 17  1  0  0  0  0
 16 18  2  0  0  0  0
 17 33  1  0  0  0  0
 17 34  1  0  0  0  0
 19 20  1  0  0  0  0
 19 35  1  0  0  0  0
 20 36  1  0  0  0  0
 21 22  2  0  0  0  0
 22 23  1  0  0  0  0
 22 37  1  0  0  0  0
 23 24  1  0  0  0  0
 24 25  1  0  0  0  0
 25 38  1  0  0  0  0
 25 39  1  0  0  0  0
 25 40  1  0  0  0  0
M  END
$$$$
