CHEMBL204678
 OpenBabel04072215363D

 31 33  0  0  0  0  0  0  0  0999 V2000
    2.4931    0.6098   -0.2855 C   0  0  0  0  0  0  0  0  0  0  0  0
    1.0678    0.2410   -0.1143 C   0  0  0  0  0  0  0  0  0  0  0  0
   -0.0622    1.0041    0.0611 C   0  0  0  0  0  0  0  0  0  0  0  0
   -1.1721    0.1186    0.1738 C   0  0  0  0  0  0  0  0  0  0  0  0
   -2.5880    0.5368    0.3736 C   0  0  0  0  0  0  0  0  0  0  0  0
   -0.6809   -1.1814    0.0668 C   0  0  0  0  0  0  0  0  0  0  0  0
   -1.3466   -2.4381    0.1213 C   0  0  0  0  0  0  0  0  0  0  0  0
   -0.8403   -3.6784    0.0029 C   0  0  0  0  0  0  0  0  0  0  0  0
    0.5488   -4.1402   -0.2477 C   0  0  0  0  0  0  0  0  0  0  0  0
    1.5764   -3.4943   -0.3106 O   0  0  0  0  0  0  0  0  0  0  0  0
    0.4234   -5.5057   -0.3866 N   0  0  0  0  0  0  0  0  0  0  0  0
   -0.8371   -5.9965   -0.1821 N   0  0  0  0  0  0  0  0  0  0  0  0
   -1.6128   -4.9617    0.0658 C   0  0  0  0  0  0  0  0  0  0  0  0
   -3.0169   -5.1080    0.3873 C   0  0  0  0  0  0  0  0  0  0  0  0
   -3.8361   -4.1025    0.6217 N   0  0  0  0  0  0  0  0  0  0  0  0
   -5.0968   -4.5801    0.9209 C   0  0  0  0  0  0  0  0  0  0  0  0
   -5.2275   -5.9505    0.9210 C   0  0  0  0  0  0  0  0  0  0  0  0
   -3.7272   -6.6716    0.5235 S   0  0  0  0  0  0  0  0  0  0  0  0
    0.6772   -1.0720   -0.1109 N   0  0  0  0  0  0  0  0  0  0  0  0
    2.6303    1.6933   -0.2326 H   0  0  0  0  0  0  0  0  0  0  0  0
    2.8629    0.2643   -1.2569 H   0  0  0  0  0  0  0  0  0  0  0  0
    3.1043    0.1491    0.4983 H   0  0  0  0  0  0  0  0  0  0  0  0
   -0.0906    2.0857    0.1066 H   0  0  0  0  0  0  0  0  0  0  0  0
   -2.6695    1.6248    0.4640 H   0  0  0  0  0  0  0  0  0  0  0  0
   -2.9954    0.0925    1.2874 H   0  0  0  0  0  0  0  0  0  0  0  0
   -3.2045    0.2217   -0.4740 H   0  0  0  0  0  0  0  0  0  0  0  0
   -2.4188   -2.3434    0.2727 H   0  0  0  0  0  0  0  0  0  0  0  0
    1.2045   -6.1283   -0.5576 H   0  0  0  0  0  0  0  0  0  0  0  0
   -5.8933   -3.8777    1.1357 H   0  0  0  0  0  0  0  0  0  0  0  0
   -6.1055   -6.5452    1.1271 H   0  0  0  0  0  0  0  0  0  0  0  0
    1.3223   -1.8475   -0.2198 H   0  0  0  0  0  0  0  0  0  0  0  0
  1  2  1  0  0  0  0
  1 20  1  0  0  0  0
  1 21  1  0  0  0  0
  1 22  1  0  0  0  0
  2  3  2  0  0  0  0
  2 19  1  0  0  0  0
  3  4  1  0  0  0  0
  3 23  1  0  0  0  0
  4  5  1  0  0  0  0
  4  6  2  0  0  0  0
  5 24  1  0  0  0  0
  5 25  1  0  0  0  0
  5 26  1  0  0  0  0
  6  7  1  0  0  0  0
  6 19  1  0  0  0  0
  7  8  2  0  0  0  0
  7 27  1  0  0  0  0
  8  9  1  0  0  0  0
  8 13  1  0  0  0  0
  9 10  2  0  0  0  0
  9 11  1  0  0  0  0
 11 12  1  0  0  0  0
 11 28  1  0  0  0  0
 12 13  2  0  0  0  0
 13 14  1  0  0  0  0
 14 15  2  0  0  0  0
 14 18  1  0  0  0  0
 15 16  1  0  0  0  0
 16 17  2  0  0  0  0
 16 29  1  0  0  0  0
 17 18  1  0  0  0  0
 17 30  1  0  0  0  0
 19 31  1  0  0  0  0
M  END
$$$$
