CHEMBL3975267
 OpenBabel04072215373D

 52 55  0  0  0  0  0  0  0  0999 V2000
    1.8892   -1.0137   -0.0917 C   0  0  0  0  0  0  0  0  0  0  0  0
    3.3220   -0.5179    0.0344 C   0  0  0  0  0  0  0  0  0  0  0  0
    3.4176    0.5311    1.1118 C   0  0  0  0  0  0  0  0  0  0  0  0
    3.2443    1.8717    0.7463 C   0  0  0  0  0  0  0  0  0  0  0  0
    3.2336    2.8551    1.7167 C   0  0  0  0  0  0  0  0  0  0  0  0
    3.3921    2.5057    3.0557 C   0  0  0  0  0  0  0  0  0  0  0  0
    3.5831    1.1790    3.4662 C   0  0  0  0  0  0  0  0  0  0  0  0
    3.7228    0.8134    4.8427 N   0  0  0  0  0  0  0  0  0  0  0  0
    3.8422    1.7227    5.8736 C   0  0  0  0  0  0  0  0  0  0  0  0
    4.0012    2.9260    5.6994 O   0  0  0  0  0  0  0  0  0  0  0  0
    3.7469    1.1832    7.1480 N   0  0  0  0  0  0  0  0  0  0  0  0
    3.5162    2.0193    8.2790 C   0  0  0  0  0  0  0  0  0  0  0  0
    2.8556    3.2456    8.1461 C   0  0  0  0  0  0  0  0  0  0  0  0
    2.5535    4.0667    9.2362 C   0  0  0  0  0  0  0  0  0  0  0  0
    2.8178    3.6279   10.5293 C   0  0  0  0  0  0  0  0  0  0  0  0
    1.9720    4.1911   11.6592 C   0  0  0  0  0  0  0  0  0  0  0  0
    1.6991    3.2888   12.7092 N   0  0  0  0  0  0  0  0  0  0  0  0
    0.6159    2.5530   12.2453 C   0  0  0  0  0  0  0  0  0  0  0  0
    0.2845    1.2057   12.3703 C   0  0  0  0  0  0  0  0  0  0  0  0
   -0.8416    0.7808   11.6596 C   0  0  0  0  0  0  0  0  0  0  0  0
   -1.6369    1.6823   10.9468 C   0  0  0  0  0  0  0  0  0  0  0  0
   -1.3183    3.0447   10.8994 C   0  0  0  0  0  0  0  0  0  0  0  0
   -0.1234    3.4707   11.5040 C   0  0  0  0  0  0  0  0  0  0  0  0
    0.6424    4.6849   11.5074 C   0  0  0  0  0  0  0  0  0  0  0  0
    0.1385    5.9890   11.1037 C   0  0  0  0  0  0  0  0  0  0  0  0
    1.0373    7.0151   11.0356 N   0  0  0  0  0  0  0  0  0  0  0  0
   -1.0482    6.2215   10.8853 O   0  0  0  0  0  0  0  0  0  0  0  0
    3.5647    2.4309   10.6717 C   0  0  0  0  0  0  0  0  0  0  0  0
    3.8901    1.6212    9.5602 C   0  0  0  0  0  0  0  0  0  0  0  0
    3.5908    0.1891    2.4720 C   0  0  0  0  0  0  0  0  0  0  0  0
    1.8002   -1.7274   -0.9154 H   0  0  0  0  0  0  0  0  0  0  0  0
    1.1980   -0.1848   -0.2853 H   0  0  0  0  0  0  0  0  0  0  0  0
    1.5642   -1.5079    0.8298 H   0  0  0  0  0  0  0  0  0  0  0  0
    3.6452   -0.0927   -0.9255 H   0  0  0  0  0  0  0  0  0  0  0  0
    4.0045   -1.3480    0.2459 H   0  0  0  0  0  0  0  0  0  0  0  0
    3.0922    2.1534   -0.2929 H   0  0  0  0  0  0  0  0  0  0  0  0
    3.0870    3.8975    1.4475 H   0  0  0  0  0  0  0  0  0  0  0  0
    3.3304    3.3288    3.7573 H   0  0  0  0  0  0  0  0  0  0  0  0
    3.7403   -0.1632    5.0712 H   0  0  0  0  0  0  0  0  0  0  0  0
    4.1260    0.2607    7.3068 H   0  0  0  0  0  0  0  0  0  0  0  0
    2.4687    3.5762    7.1841 H   0  0  0  0  0  0  0  0  0  0  0  0
    1.9963    4.9788    9.0519 H   0  0  0  0  0  0  0  0  0  0  0  0
    2.4334    2.8507   13.2411 H   0  0  0  0  0  0  0  0  0  0  0  0
    0.9110    0.5082   12.9122 H   0  0  0  0  0  0  0  0  0  0  0  0
   -1.0953   -0.2763   11.6495 H   0  0  0  0  0  0  0  0  0  0  0  0
   -2.4994    1.3208   10.3922 H   0  0  0  0  0  0  0  0  0  0  0  0
   -1.9139    3.7320   10.3040 H   0  0  0  0  0  0  0  0  0  0  0  0
    1.9976    6.9033   11.3279 H   0  0  0  0  0  0  0  0  0  0  0  0
    0.6417    7.9462   10.9436 H   0  0  0  0  0  0  0  0  0  0  0  0
    3.8124    2.0469   11.6588 H   0  0  0  0  0  0  0  0  0  0  0  0
    4.4026    0.6774    9.7315 H   0  0  0  0  0  0  0  0  0  0  0  0
    3.7265   -0.8574    2.7367 H   0  0  0  0  0  0  0  0  0  0  0  0
  1  2  1  0  0  0  0
  1 31  1  0  0  0  0
  1 32  1  0  0  0  0
  1 33  1  0  0  0  0
  2  3  1  0  0  0  0
  2 34  1  0  0  0  0
  2 35  1  0  0  0  0
  3  4  1  0  0  0  0
  3 30  2  0  0  0  0
  4  5  2  0  0  0  0
  4 36  1  0  0  0  0
  5  6  1  0  0  0  0
  5 37  1  0  0  0  0
  6  7  2  0  0  0  0
  6 38  1  0  0  0  0
  7  8  1  0  0  0  0
  7 30  1  0  0  0  0
  8  9  1  0  0  0  0
  8 39  1  0  0  0  0
  9 10  2  0  0  0  0
  9 11  1  0  0  0  0
 11 12  1  0  0  0  0
 11 40  1  0  0  0  0
 12 13  1  0  0  0  0
 12 29  2  0  0  0  0
 13 14  2  0  0  0  0
 13 41  1  0  0  0  0
 14 15  1  0  0  0  0
 14 42  1  0  0  0  0
 15 16  1  0  0  0  0
 15 28  2  0  0  0  0
 16 17  1  0  0  0  0
 16 24  2  0  0  0  0
 17 18  1  0  0  0  0
 17 43  1  0  0  0  0
 18 19  1  0  0  0  0
 18 23  2  0  0  0  0
 19 20  2  0  0  0  0
 19 44  1  0  0  0  0
 20 21  1  0  0  0  0
 20 45  1  0  0  0  0
 21 22  2  0  0  0  0
 21 46  1  0  0  0  0
 22 23  1  0  0  0  0
 22 47  1  0  0  0  0
 23 24  1  0  0  0  0
 24 25  1  0  0  0  0
 25 26  1  0  0  0  0
 25 27  2  0  0  0  0
 26 48  1  0  0  0  0
 26 49  1  0  0  0  0
 28 29  1  0  0  0  0
 28 50  1  0  0  0  0
 29 51  1  0  0  0  0
 30 52  1  0  0  0  0
M  END
$$$$
