CHEMBL440727
 OpenBabel04072215383D

 40 42  0  0  0  0  0  0  0  0999 V2000
    3.3534    0.2382   -1.1623 C   0  0  0  0  0  0  0  0  0  0  0  0
    2.4275   -0.0649   -0.1144 O   0  0  0  0  0  0  0  0  0  0  0  0
    2.9645   -0.1289    1.1441 C   0  0  0  0  0  0  0  0  0  0  0  0
    4.0429    0.6987    1.5165 C   0  0  0  0  0  0  0  0  0  0  0  0
    4.6891    0.5823    2.7374 C   0  0  0  0  0  0  0  0  0  0  0  0
    5.7478    1.3557    2.9849 N   0  0  0  0  0  0  0  0  0  0  0  0
    6.3588    1.1722    4.1615 C   0  0  0  0  0  0  0  0  0  0  0  0
    6.0063    0.2875    5.0929 N   0  0  0  0  0  0  0  0  0  0  0  0
    4.9429   -0.4954    4.8266 C   0  0  0  0  0  0  0  0  0  0  0  0
    4.5721   -1.4953    5.7717 N   0  0  0  0  0  0  0  0  0  0  0  0
    5.1457   -1.5610    7.0649 C   0  0  0  0  0  0  0  0  0  0  0  0
    5.1881   -0.4183    7.8697 C   0  0  0  0  0  0  0  0  0  0  0  0
    5.9164   -0.4207    9.0543 C   0  0  0  0  0  0  0  0  0  0  0  0
    6.0200    0.7336    9.7768 O   0  0  0  0  0  0  0  0  0  0  0  0
    6.5775   -1.5724    9.4890 C   0  0  0  0  0  0  0  0  0  0  0  0
    7.4560   -1.5697   10.7040 C   0  0  0  0  0  0  0  0  0  0  0  0
    6.4442   -2.7505    8.7370 C   0  0  0  0  0  0  0  0  0  0  0  0
    5.7378   -2.7354    7.5373 C   0  0  0  0  0  0  0  0  0  0  0  0
    5.6774   -3.8540    6.7966 F   0  0  0  0  0  0  0  0  0  0  0  0
    4.2095   -0.3645    3.6425 C   0  0  0  0  0  0  0  0  0  0  0  0
    3.0531   -1.1080    3.3343 C   0  0  0  0  0  0  0  0  0  0  0  0
    2.4294   -1.0100    2.0884 C   0  0  0  0  0  0  0  0  0  0  0  0
    1.3692   -1.8630    2.0025 O   0  0  0  0  0  0  0  0  0  0  0  0
    0.6747   -2.0241    0.7800 C   0  0  0  0  0  0  0  0  0  0  0  0
    3.0828   -0.3587   -2.0378 H   0  0  0  0  0  0  0  0  0  0  0  0
    4.3944   -0.0102   -0.9203 H   0  0  0  0  0  0  0  0  0  0  0  0
    3.2702    1.2973   -1.4249 H   0  0  0  0  0  0  0  0  0  0  0  0
    4.4165    1.4545    0.8307 H   0  0  0  0  0  0  0  0  0  0  0  0
    7.2224    1.7953    4.3701 H   0  0  0  0  0  0  0  0  0  0  0  0
    4.6014   -2.4095    5.3217 H   0  0  0  0  0  0  0  0  0  0  0  0
    4.6893    0.4826    7.5254 H   0  0  0  0  0  0  0  0  0  0  0  0
    5.6658    1.4621    9.2386 H   0  0  0  0  0  0  0  0  0  0  0  0
    7.5831   -0.5662   11.1210 H   0  0  0  0  0  0  0  0  0  0  0  0
    8.4542   -1.9308   10.4337 H   0  0  0  0  0  0  0  0  0  0  0  0
    7.0346   -2.2131   11.4809 H   0  0  0  0  0  0  0  0  0  0  0  0
    6.9278   -3.6702    9.0526 H   0  0  0  0  0  0  0  0  0  0  0  0
    2.6300   -1.7887    4.0718 H   0  0  0  0  0  0  0  0  0  0  0  0
    0.0919   -2.9477    0.8700 H   0  0  0  0  0  0  0  0  0  0  0  0
    1.3431   -2.1623   -0.0719 H   0  0  0  0  0  0  0  0  0  0  0  0
   -0.0290   -1.2014    0.6263 H   0  0  0  0  0  0  0  0  0  0  0  0
  1  2  1  0  0  0  0
  1 25  1  0  0  0  0
  1 26  1  0  0  0  0
  1 27  1  0  0  0  0
  2  3  1  0  0  0  0
  3  4  1  0  0  0  0
  3 22  2  0  0  0  0
  4  5  2  0  0  0  0
  4 28  1  0  0  0  0
  5  6  1  0  0  0  0
  5 20  1  0  0  0  0
  6  7  2  0  0  0  0
  7  8  1  0  0  0  0
  7 29  1  0  0  0  0
  8  9  2  0  0  0  0
  9 10  1  0  0  0  0
  9 20  1  0  0  0  0
 10 11  1  0  0  0  0
 10 30  1  0  0  0  0
 11 12  1  0  0  0  0
 11 18  2  0  0  0  0
 12 13  2  0  0  0  0
 12 31  1  0  0  0  0
 13 14  1  0  0  0  0
 13 15  1  0  0  0  0
 14 32  1  0  0  0  0
 15 16  1  0  0  0  0
 15 17  2  0  0  0  0
 16 33  1  0  0  0  0
 16 34  1  0  0  0  0
 16 35  1  0  0  0  0
 17 18  1  0  0  0  0
 17 36  1  0  0  0  0
 18 19  1  0  0  0  0
 20 21  2  0  0  0  0
 21 22  1  0  0  0  0
 21 37  1  0  0  0  0
 22 23  1  0  0  0  0
 23 24  1  0  0  0  0
 24 38  1  0  0  0  0
 24 39  1  0  0  0  0
 24 40  1  0  0  0  0
M  END
$$$$
