CHEMBL4452405
 OpenBabel04072215383D

 42 45  0  0  0  0  0  0  0  0999 V2000
   -1.6934   -2.9446    5.5126 C   0  0  0  0  0  0  0  0  0  0  0  0
   -2.2640   -2.2474    4.3130 C   0  0  0  0  0  0  0  0  0  0  0  0
   -2.9760   -2.9601    3.3441 C   0  0  0  0  0  0  0  0  0  0  0  0
   -3.5192   -2.3012    2.2368 C   0  0  0  0  0  0  0  0  0  0  0  0
   -3.3600   -0.9197    2.0800 C   0  0  0  0  0  0  0  0  0  0  0  0
   -3.9642   -0.2195    0.9654 C   0  0  0  0  0  0  0  0  0  0  0  0
   -5.1343   -0.5679    0.3272 C   0  0  0  0  0  0  0  0  0  0  0  0
   -5.3358    0.4457   -0.5624 N   0  0  0  0  0  0  0  0  0  0  0  0
   -6.5239    0.7003   -1.3572 C   0  0  0  0  0  0  0  0  0  0  0  0
   -6.4825    0.0105   -2.6975 C   0  0  0  0  0  0  0  0  0  0  0  0
   -7.4539   -0.9349   -3.0407 C   0  0  0  0  0  0  0  0  0  0  0  0
   -7.4296   -1.5538   -4.2957 C   0  0  0  0  0  0  0  0  0  0  0  0
   -6.4500   -1.2424   -5.2551 C   0  0  0  0  0  0  0  0  0  0  0  0
   -6.4414   -1.8953   -6.5768 C   0  0  0  0  0  0  0  0  0  0  0  0
   -7.5963   -2.2839   -7.2418 C   0  0  0  0  0  0  0  0  0  0  0  0
   -7.6324   -2.9079   -8.4406 N   0  0  0  0  0  0  0  0  0  0  0  0
   -6.4410   -3.1428   -9.0046 C   0  0  0  0  0  0  0  0  0  0  0  0
   -5.2510   -2.8120   -8.4869 N   0  0  0  0  0  0  0  0  0  0  0  0
   -5.2861   -2.1968   -7.2821 C   0  0  0  0  0  0  0  0  0  0  0  0
   -5.4865   -0.2842   -4.8982 C   0  0  0  0  0  0  0  0  0  0  0  0
   -5.5003    0.3317   -3.6392 C   0  0  0  0  0  0  0  0  0  0  0  0
   -4.3389    1.3492   -0.5105 N   0  0  0  0  0  0  0  0  0  0  0  0
   -3.4920    0.9520    0.4319 N   0  0  0  0  0  0  0  0  0  0  0  0
   -2.6314   -0.2094    3.0423 C   0  0  0  0  0  0  0  0  0  0  0  0
   -2.0937   -0.8669    4.1541 C   0  0  0  0  0  0  0  0  0  0  0  0
   -1.8798   -4.0233    5.4734 H   0  0  0  0  0  0  0  0  0  0  0  0
   -2.1524   -2.5578    6.4276 H   0  0  0  0  0  0  0  0  0  0  0  0
   -0.6106   -2.7941    5.5575 H   0  0  0  0  0  0  0  0  0  0  0  0
   -3.1167   -4.0341    3.4422 H   0  0  0  0  0  0  0  0  0  0  0  0
   -4.0626   -2.8860    1.4989 H   0  0  0  0  0  0  0  0  0  0  0  0
   -5.8343   -1.3786    0.4596 H   0  0  0  0  0  0  0  0  0  0  0  0
   -6.6279    1.7832   -1.4889 H   0  0  0  0  0  0  0  0  0  0  0  0
   -7.3806    0.3595   -0.7630 H   0  0  0  0  0  0  0  0  0  0  0  0
   -8.2457   -1.2010   -2.3433 H   0  0  0  0  0  0  0  0  0  0  0  0
   -8.1949   -2.2993   -4.5064 H   0  0  0  0  0  0  0  0  0  0  0  0
   -8.5808   -2.0940   -6.8215 H   0  0  0  0  0  0  0  0  0  0  0  0
   -6.4407   -3.6468   -9.9642 H   0  0  0  0  0  0  0  0  0  0  0  0
   -4.3017   -1.9601   -6.8858 H   0  0  0  0  0  0  0  0  0  0  0  0
   -4.7102    0.0155   -5.5992 H   0  0  0  0  0  0  0  0  0  0  0  0
   -4.7335    1.0706   -3.4072 H   0  0  0  0  0  0  0  0  0  0  0  0
   -2.4932    0.8659    2.9434 H   0  0  0  0  0  0  0  0  0  0  0  0
   -1.5460   -0.2923    4.8978 H   0  0  0  0  0  0  0  0  0  0  0  0
  1  2  1  0  0  0  0
  1 26  1  0  0  0  0
  1 27  1  0  0  0  0
  1 28  1  0  0  0  0
  2  3  1  0  0  0  0
  2 25  2  0  0  0  0
  3  4  2  0  0  0  0
  3 29  1  0  0  0  0
  4  5  1  0  0  0  0
  4 30  1  0  0  0  0
  5  6  1  0  0  0  0
  5 24  2  0  0  0  0
  6  7  2  0  0  0  0
  6 23  1  0  0  0  0
  7  8  1  0  0  0  0
  7 31  1  0  0  0  0
  8  9  1  0  0  0  0
  8 22  1  0  0  0  0
  9 10  1  0  0  0  0
  9 32  1  0  0  0  0
  9 33  1  0  0  0  0
 10 11  1  0  0  0  0
 10 21  2  0  0  0  0
 11 12  2  0  0  0  0
 11 34  1  0  0  0  0
 12 13  1  0  0  0  0
 12 35  1  0  0  0  0
 13 14  1  0  0  0  0
 13 20  2  0  0  0  0
 14 15  1  0  0  0  0
 14 19  2  0  0  0  0
 15 16  2  0  0  0  0
 15 36  1  0  0  0  0
 16 17  1  0  0  0  0
 17 18  2  0  0  0  0
 17 37  1  0  0  0  0
 18 19  1  0  0  0  0
 19 38  1  0  0  0  0
 20 21  1  0  0  0  0
 20 39  1  0  0  0  0
 21 40  1  0  0  0  0
 22 23  2  0  0  0  0
 24 25  1  0  0  0  0
 24 41  1  0  0  0  0
 25 42  1  0  0  0  0
M  END
$$$$
