CHEMBL4514617
 OpenBabel04072215383D

 56 60  0  0  0  0  0  0  0  0999 V2000
   -0.6844    1.0704    1.2170 C   0  0  0  0  0  0  0  0  0  0  0  0
    0.3830    1.9624    0.9341 O   0  0  0  0  0  0  0  0  0  0  0  0
    1.3862    2.1076    1.8548 C   0  0  0  0  0  0  0  0  0  0  0  0
    2.3988    2.9683    1.4100 C   0  0  0  0  0  0  0  0  0  0  0  0
    3.5268    3.2591    2.1612 C   0  0  0  0  0  0  0  0  0  0  0  0
    4.4235    4.1025    1.6351 N   0  0  0  0  0  0  0  0  0  0  0  0
    5.5294    4.3410    2.3454 C   0  0  0  0  0  0  0  0  0  0  0  0
    5.8219    3.8067    3.5279 N   0  0  0  0  0  0  0  0  0  0  0  0
    4.8751    3.0025    4.0614 C   0  0  0  0  0  0  0  0  0  0  0  0
    5.1404    2.4393    5.3089 O   0  0  0  0  0  0  0  0  0  0  0  0
    5.8398    3.1852    6.2302 C   0  0  0  0  0  0  0  0  0  0  0  0
    5.7877    4.5727    6.2933 C   0  0  0  0  0  0  0  0  0  0  0  0
    6.5680    5.2626    7.2183 C   0  0  0  0  0  0  0  0  0  0  0  0
    7.3721    4.5863    8.1401 C   0  0  0  0  0  0  0  0  0  0  0  0
    8.2079    5.2571    9.0638 N   0  0  0  0  0  0  0  0  0  0  0  0
    8.2655    6.6296    9.2348 C   0  0  0  0  0  0  0  0  0  0  0  0
    7.5256    7.4448    8.6946 O   0  0  0  0  0  0  0  0  0  0  0  0
    9.3011    7.0134   10.0779 N   0  0  0  0  0  0  0  0  0  0  0  0
    9.4634    8.3797   10.4217 C   0  0  0  0  0  0  0  0  0  0  0  0
    8.3644    9.1742   10.7496 C   0  0  0  0  0  0  0  0  0  0  0  0
    8.5331   10.5294   11.0312 C   0  0  0  0  0  0  0  0  0  0  0  0
    9.8017   11.1110   10.9706 C   0  0  0  0  0  0  0  0  0  0  0  0
    9.8881   12.7942   11.3363 Cl  0  0  0  0  0  0  0  0  0  0  0  0
   10.9165   10.3347   10.6310 C   0  0  0  0  0  0  0  0  0  0  0  0
   12.3057   10.8827   10.4366 C   0  0  0  0  0  0  0  0  0  0  0  0
   12.4867   12.2027   10.6931 F   0  0  0  0  0  0  0  0  0  0  0  0
   13.2149   10.2316   11.2186 F   0  0  0  0  0  0  0  0  0  0  0  0
   12.7403   10.6986    9.1552 F   0  0  0  0  0  0  0  0  0  0  0  0
   10.7333    8.9486   10.3946 C   0  0  0  0  0  0  0  0  0  0  0  0
    7.3587    3.1853    8.1293 C   0  0  0  0  0  0  0  0  0  0  0  0
    6.5936    2.4889    7.1778 C   0  0  0  0  0  0  0  0  0  0  0  0
    3.6753    2.6601    3.4157 C   0  0  0  0  0  0  0  0  0  0  0  0
    2.6476    1.7973    3.8951 C   0  0  0  0  0  0  0  0  0  0  0  0
    1.4982    1.5365    3.1243 C   0  0  0  0  0  0  0  0  0  0  0  0
    0.4910    0.7268    3.5848 O   0  0  0  0  0  0  0  0  0  0  0  0
    0.5428    0.5149    4.9956 C   0  0  0  0  0  0  0  0  0  0  0  0
    1.9522    0.1518    5.4029 C   0  0  0  0  0  0  0  0  0  0  0  0
    2.8232    1.2519    5.1480 O   0  0  0  0  0  0  0  0  0  0  0  0
   -1.3438    1.0554    0.3437 H   0  0  0  0  0  0  0  0  0  0  0  0
   -1.2791    1.4263    2.0639 H   0  0  0  0  0  0  0  0  0  0  0  0
   -0.3235    0.0476    1.3664 H   0  0  0  0  0  0  0  0  0  0  0  0
    2.2984    3.4290    0.4277 H   0  0  0  0  0  0  0  0  0  0  0  0
    6.2488    5.0345    1.9237 H   0  0  0  0  0  0  0  0  0  0  0  0
    5.1729    5.1508    5.6099 H   0  0  0  0  0  0  0  0  0  0  0  0
    6.5191    6.3441    7.1614 H   0  0  0  0  0  0  0  0  0  0  0  0
    8.7293    4.6889    9.7131 H   0  0  0  0  0  0  0  0  0  0  0  0
   10.1400    6.4587    9.9911 H   0  0  0  0  0  0  0  0  0  0  0  0
    7.3585    8.7573   10.7770 H   0  0  0  0  0  0  0  0  0  0  0  0
    7.6579   11.1287   11.2762 H   0  0  0  0  0  0  0  0  0  0  0  0
   11.5933    8.3443   10.1115 H   0  0  0  0  0  0  0  0  0  0  0  0
    7.9496    2.6146    8.8387 H   0  0  0  0  0  0  0  0  0  0  0  0
    6.5972    1.4016    7.1698 H   0  0  0  0  0  0  0  0  0  0  0  0
   -0.1463   -0.3004    5.2366 H   0  0  0  0  0  0  0  0  0  0  0  0
    0.1916    1.4227    5.5012 H   0  0  0  0  0  0  0  0  0  0  0  0
    2.3234   -0.7220    4.8542 H   0  0  0  0  0  0  0  0  0  0  0  0
    1.9976   -0.0691    6.4737 H   0  0  0  0  0  0  0  0  0  0  0  0
  1  2  1  0  0  0  0
  1 39  1  0  0  0  0
  1 40  1  0  0  0  0
  1 41  1  0  0  0  0
  2  3  1  0  0  0  0
  3  4  1  0  0  0  0
  3 34  2  0  0  0  0
  4  5  2  0  0  0  0
  4 42  1  0  0  0  0
  5  6  1  0  0  0  0
  5 32  1  0  0  0  0
  6  7  2  0  0  0  0
  7  8  1  0  0  0  0
  7 43  1  0  0  0  0
  8  9  2  0  0  0  0
  9 10  1  0  0  0  0
  9 32  1  0  0  0  0
 10 11  1  0  0  0  0
 11 12  1  0  0  0  0
 11 31  2  0  0  0  0
 12 13  2  0  0  0  0
 12 44  1  0  0  0  0
 13 14  1  0  0  0  0
 13 45  1  0  0  0  0
 14 15  1  0  0  0  0
 14 30  2  0  0  0  0
 15 16  1  0  0  0  0
 15 46  1  0  0  0  0
 16 17  2  0  0  0  0
 16 18  1  0  0  0  0
 18 19  1  0  0  0  0
 18 47  1  0  0  0  0
 19 20  1  0  0  0  0
 19 29  2  0  0  0  0
 20 21  2  0  0  0  0
 20 48  1  0  0  0  0
 21 22  1  0  0  0  0
 21 49  1  0  0  0  0
 22 23  1  0  0  0  0
 22 24  2  0  0  0  0
 24 25  1  0  0  0  0
 24 29  1  0  0  0  0
 25 26  1  0  0  0  0
 25 27  1  0  0  0  0
 25 28  1  0  0  0  0
 29 50  1  0  0  0  0
 30 31  1  0  0  0  0
 30 51  1  0  0  0  0
 31 52  1  0  0  0  0
 32 33  2  0  0  0  0
 33 34  1  0  0  0  0
 33 38  1  0  0  0  0
 34 35  1  0  0  0  0
 35 36  1  0  0  0  0
 36 37  1  0  0  0  0
 36 53  1  0  0  0  0
 36 54  1  0  0  0  0
 37 38  1  0  0  0  0
 37 55  1  0  0  0  0
 37 56  1  0  0  0  0
M  END
$$$$
