CHEMBL3656083
 OpenBabel04072215373D

 67 70  0  0  0  0  0  0  0  0999 V2000
    2.9235    7.0224    2.5111 C   0  0  0  0  0  0  0  0  0  0  0  0
    1.7672    6.0807    2.3083 C   0  0  0  0  0  0  0  0  0  0  0  0
    2.0193    4.7758    1.8751 C   0  0  0  0  0  0  0  0  0  0  0  0
    0.9666    3.8882    1.7023 C   0  0  0  0  0  0  0  0  0  0  0  0
   -0.3425    4.2989    1.9458 C   0  0  0  0  0  0  0  0  0  0  0  0
   -1.2715    3.3374    1.8793 F   0  0  0  0  0  0  0  0  0  0  0  0
   -0.6470    5.6157    2.3295 C   0  0  0  0  0  0  0  0  0  0  0  0
   -1.9722    6.1196    2.5265 N   0  0  0  0  0  0  0  0  0  0  0  0
   -3.1154    5.5466    1.9867 C   0  0  0  0  0  0  0  0  0  0  0  0
   -3.1353    4.5798    1.2461 O   0  0  0  0  0  0  0  0  0  0  0  0
   -4.2884    6.2377    2.3134 N   0  0  0  0  0  0  0  0  0  0  0  0
   -5.5241    5.6865    1.8655 C   0  0  0  0  0  0  0  0  0  0  0  0
   -5.8539    4.3662    2.1886 C   0  0  0  0  0  0  0  0  0  0  0  0
   -6.9991    3.7659    1.6605 C   0  0  0  0  0  0  0  0  0  0  0  0
   -7.8702    4.5010    0.8548 C   0  0  0  0  0  0  0  0  0  0  0  0
   -9.0344    3.9914    0.3138 O   0  0  0  0  0  0  0  0  0  0  0  0
   -9.7402    3.0294    1.0092 C   0  0  0  0  0  0  0  0  0  0  0  0
   -9.8388    2.9892    2.3956 C   0  0  0  0  0  0  0  0  0  0  0  0
  -10.5242    1.9358    2.9718 C   0  0  0  0  0  0  0  0  0  0  0  0
  -11.1507    0.9651    2.2701 N   0  0  0  0  0  0  0  0  0  0  0  0
  -11.0960    1.0598    0.9204 C   0  0  0  0  0  0  0  0  0  0  0  0
  -11.7964   -0.0032    0.2037 C   0  0  0  0  0  0  0  0  0  0  0  0
  -11.9620   -0.2314   -1.1525 C   0  0  0  0  0  0  0  0  0  0  0  0
  -12.7567   -1.4014   -1.3412 C   0  0  0  0  0  0  0  0  0  0  0  0
  -13.2281   -2.0254   -2.5769 C   0  0  0  0  0  0  0  0  0  0  0  0
  -13.9567   -3.0137   -2.5792 O   0  0  0  0  0  0  0  0  0  0  0  0
  -12.8050   -1.4127   -3.7372 N   0  0  0  0  0  0  0  0  0  0  0  0
  -13.2026   -1.8755   -5.0472 C   0  0  0  0  0  0  0  0  0  0  0  0
  -14.5205   -1.2508   -5.5126 C   0  0  0  0  0  0  0  0  0  0  0  0
  -14.4840    0.2738   -5.6078 C   0  0  0  0  0  0  0  0  0  0  0  0
  -13.4429    0.7518   -6.5913 C   0  0  0  0  0  0  0  0  0  0  0  0
  -12.2911    1.0262   -6.2587 O   0  0  0  0  0  0  0  0  0  0  0  0
  -13.8639    0.8005   -7.8936 N   0  0  0  0  0  0  0  0  0  0  0  0
  -12.9307    1.2658   -8.8449 O   0  0  0  0  0  0  0  0  0  0  0  0
  -13.0289   -1.8701   -0.0647 C   0  0  0  0  0  0  0  0  0  0  0  0
  -12.4414   -1.0351    0.8485 N   0  0  0  0  0  0  0  0  0  0  0  0
  -10.4169    2.0764    0.2542 C   0  0  0  0  0  0  0  0  0  0  0  0
   -7.5383    5.8179    0.5184 C   0  0  0  0  0  0  0  0  0  0  0  0
   -6.3798    6.4207    1.0402 C   0  0  0  0  0  0  0  0  0  0  0  0
    0.4346    6.4944    2.5382 C   0  0  0  0  0  0  0  0  0  0  0  0
    3.8800    6.5236    2.3006 H   0  0  0  0  0  0  0  0  0  0  0  0
    2.9576    7.3682    3.5449 H   0  0  0  0  0  0  0  0  0  0  0  0
    2.8460    7.8756    1.8339 H   0  0  0  0  0  0  0  0  0  0  0  0
    3.0343    4.4359    1.6823 H   0  0  0  0  0  0  0  0  0  0  0  0
    1.1478    2.8638    1.3923 H   0  0  0  0  0  0  0  0  0  0  0  0
   -2.0662    7.0187    2.9639 H   0  0  0  0  0  0  0  0  0  0  0  0
   -4.2053    7.2412    2.2483 H   0  0  0  0  0  0  0  0  0  0  0  0
   -5.2043    3.7793    2.8339 H   0  0  0  0  0  0  0  0  0  0  0  0
   -7.1864    2.7214    1.8890 H   0  0  0  0  0  0  0  0  0  0  0  0
   -9.3682    3.7352    3.0231 H   0  0  0  0  0  0  0  0  0  0  0  0
  -10.5735    1.8365    4.0521 H   0  0  0  0  0  0  0  0  0  0  0  0
  -11.5544    0.3992   -1.9295 H   0  0  0  0  0  0  0  0  0  0  0  0
  -12.2230   -0.5879   -3.6877 H   0  0  0  0  0  0  0  0  0  0  0  0
  -13.3077   -2.9659   -5.0225 H   0  0  0  0  0  0  0  0  0  0  0  0
  -12.3870   -1.6431   -5.7386 H   0  0  0  0  0  0  0  0  0  0  0  0
  -15.3219   -1.5336   -4.8191 H   0  0  0  0  0  0  0  0  0  0  0  0
  -14.7800   -1.6740   -6.4904 H   0  0  0  0  0  0  0  0  0  0  0  0
  -14.2784    0.7336   -4.6349 H   0  0  0  0  0  0  0  0  0  0  0  0
  -15.4667    0.6448   -5.9231 H   0  0  0  0  0  0  0  0  0  0  0  0
  -14.8216    0.6811   -8.2048 H   0  0  0  0  0  0  0  0  0  0  0  0
  -12.1265    1.4130   -8.3001 H   0  0  0  0  0  0  0  0  0  0  0  0
  -13.5943   -2.7358    0.2571 H   0  0  0  0  0  0  0  0  0  0  0  0
  -12.4667   -1.1372    1.8565 H   0  0  0  0  0  0  0  0  0  0  0  0
  -10.3963    2.1248   -0.8267 H   0  0  0  0  0  0  0  0  0  0  0  0
   -8.1708    6.3716   -0.1723 H   0  0  0  0  0  0  0  0  0  0  0  0
   -6.1265    7.4289    0.7278 H   0  0  0  0  0  0  0  0  0  0  0  0
    0.2565    7.5203    2.8525 H   0  0  0  0  0  0  0  0  0  0  0  0
  1  2  1  0  0  0  0
  1 41  1  0  0  0  0
  1 42  1  0  0  0  0
  1 43  1  0  0  0  0
  2  3  1  0  0  0  0
  2 40  2  0  0  0  0
  3  4  2  0  0  0  0
  3 44  1  0  0  0  0
  4  5  1  0  0  0  0
  4 45  1  0  0  0  0
  5  6  1  0  0  0  0
  5  7  2  0  0  0  0
  7  8  1  0  0  0  0
  7 40  1  0  0  0  0
  8  9  1  0  0  0  0
  8 46  1  0  0  0  0
  9 10  2  0  0  0  0
  9 11  1  0  0  0  0
 11 12  1  0  0  0  0
 11 47  1  0  0  0  0
 12 13  1  0  0  0  0
 12 39  2  0  0  0  0
 13 14  2  0  0  0  0
 13 48  1  0  0  0  0
 14 15  1  0  0  0  0
 14 49  1  0  0  0  0
 15 16  1  0  0  0  0
 15 38  2  0  0  0  0
 16 17  1  0  0  0  0
 17 18  1  0  0  0  0
 17 37  2  0  0  0  0
 18 19  2  0  0  0  0
 18 50  1  0  0  0  0
 19 20  1  0  0  0  0
 19 51  1  0  0  0  0
 20 21  2  0  0  0  0
 21 22  1  0  0  0  0
 21 37  1  0  0  0  0
 22 23  2  0  0  0  0
 22 36  1  0  0  0  0
 23 24  1  0  0  0  0
 23 52  1  0  0  0  0
 24 25  1  0  0  0  0
 24 35  2  0  0  0  0
 25 26  2  0  0  0  0
 25 27  1  0  0  0  0
 27 28  1  0  0  0  0
 27 53  1  0  0  0  0
 28 29  1  0  0  0  0
 28 54  1  0  0  0  0
 28 55  1  0  0  0  0
 29 30  1  0  0  0  0
 29 56  1  0  0  0  0
 29 57  1  0  0  0  0
 30 31  1  0  0  0  0
 30 58  1  0  0  0  0
 30 59  1  0  0  0  0
 31 32  2  0  0  0  0
 31 33  1  0  0  0  0
 33 34  1  0  0  0  0
 33 60  1  0  0  0  0
 34 61  1  0  0  0  0
 35 36  1  0  0  0  0
 35 62  1  0  0  0  0
 36 63  1  0  0  0  0
 37 64  1  0  0  0  0
 38 39  1  0  0  0  0
 38 65  1  0  0  0  0
 39 66  1  0  0  0  0
 40 67  1  0  0  0  0
M  END
$$$$
