CHEMBL3656107
 OpenBabel04072215373D

 70 74  0  0  0  0  0  0  0  0999 V2000
    2.8444    7.2187    2.5107 C   0  0  0  0  0  0  0  0  0  0  0  0
    1.7281    6.2355    2.3054 C   0  0  0  0  0  0  0  0  0  0  0  0
    2.0198    4.9329    1.8889 C   0  0  0  0  0  0  0  0  0  0  0  0
    0.9949    4.0088    1.7342 C   0  0  0  0  0  0  0  0  0  0  0  0
   -0.3246    4.3821    1.9739 C   0  0  0  0  0  0  0  0  0  0  0  0
   -1.2259    3.3932    1.9404 F   0  0  0  0  0  0  0  0  0  0  0  0
   -0.6647    5.6990    2.3243 C   0  0  0  0  0  0  0  0  0  0  0  0
   -1.9950    6.1775    2.4879 N   0  0  0  0  0  0  0  0  0  0  0  0
   -3.1233    5.5710    1.9661 C   0  0  0  0  0  0  0  0  0  0  0  0
   -3.1280    4.5625    1.2740 O   0  0  0  0  0  0  0  0  0  0  0  0
   -4.2928    6.2788    2.2519 N   0  0  0  0  0  0  0  0  0  0  0  0
   -5.5307    5.7129    1.8526 C   0  0  0  0  0  0  0  0  0  0  0  0
   -5.8383    4.3897    2.1871 C   0  0  0  0  0  0  0  0  0  0  0  0
   -6.9921    3.7837    1.6921 C   0  0  0  0  0  0  0  0  0  0  0  0
   -7.8808    4.5161    0.9044 C   0  0  0  0  0  0  0  0  0  0  0  0
   -9.0413    3.9991    0.3698 O   0  0  0  0  0  0  0  0  0  0  0  0
   -9.7402    3.0471    1.0745 C   0  0  0  0  0  0  0  0  0  0  0  0
   -9.8682    3.0320    2.4596 C   0  0  0  0  0  0  0  0  0  0  0  0
  -10.5703    1.9900    3.0436 C   0  0  0  0  0  0  0  0  0  0  0  0
  -11.1940    1.0143    2.3488 N   0  0  0  0  0  0  0  0  0  0  0  0
  -11.1219    1.0934    1.0002 C   0  0  0  0  0  0  0  0  0  0  0  0
  -11.8582    0.0572    0.2879 C   0  0  0  0  0  0  0  0  0  0  0  0
  -12.1494   -0.0753   -1.0555 C   0  0  0  0  0  0  0  0  0  0  0  0
  -12.7944   -1.3256   -1.2798 C   0  0  0  0  0  0  0  0  0  0  0  0
  -13.2243   -1.9355   -2.5425 C   0  0  0  0  0  0  0  0  0  0  0  0
  -14.2262   -2.6500   -2.5738 O   0  0  0  0  0  0  0  0  0  0  0  0
  -12.4691   -1.6799   -3.6974 N   0  0  0  0  0  0  0  0  0  0  0  0
  -13.0713   -1.9469   -4.9993 C   0  0  0  0  0  0  0  0  0  0  0  0
  -12.1396   -2.7694   -5.8834 C   0  0  0  0  0  0  0  0  0  0  0  0
  -10.7309   -2.1773   -5.9740 C   0  0  0  0  0  0  0  0  0  0  0  0
  -10.6740   -0.7530   -7.0724 S   0  0  0  0  0  0  0  0  0  0  0  0
  -10.9847   -1.1755   -8.4186 O   0  0  0  0  0  0  0  0  0  0  0  0
  -11.2901    0.4015   -6.4653 O   0  0  0  0  0  0  0  0  0  0  0  0
   -9.0753   -0.5247   -7.0608 O   0  0  0  0  0  0  0  0  0  0  0  0
  -10.1736   -1.8683   -4.5887 C   0  0  0  0  0  0  0  0  0  0  0  0
  -11.1398   -1.0738   -3.7218 C   0  0  0  0  0  0  0  0  0  0  0  0
  -13.0211   -1.8488   -0.0168 C   0  0  0  0  0  0  0  0  0  0  0  0
  -12.4494   -1.0173    0.9133 N   0  0  0  0  0  0  0  0  0  0  0  0
  -10.4043    2.0778    0.3281 C   0  0  0  0  0  0  0  0  0  0  0  0
   -7.5734    5.8373    0.5653 C   0  0  0  0  0  0  0  0  0  0  0  0
   -6.4126    6.4475    1.0595 C   0  0  0  0  0  0  0  0  0  0  0  0
    0.3857    6.6120    2.5218 C   0  0  0  0  0  0  0  0  0  0  0  0
    3.8198    6.7585    2.3141 H   0  0  0  0  0  0  0  0  0  0  0  0
    2.8499    7.5738    3.5457 H   0  0  0  0  0  0  0  0  0  0  0  0
    2.7343    8.0684    1.8308 H   0  0  0  0  0  0  0  0  0  0  0  0
    3.0448    4.6212    1.7018 H   0  0  0  0  0  0  0  0  0  0  0  0
    1.2065    2.9842    1.4428 H   0  0  0  0  0  0  0  0  0  0  0  0
   -2.1117    7.0964    2.8868 H   0  0  0  0  0  0  0  0  0  0  0  0
   -4.2055    7.2774    2.1384 H   0  0  0  0  0  0  0  0  0  0  0  0
   -5.1631    3.8072    2.8103 H   0  0  0  0  0  0  0  0  0  0  0  0
   -7.1678    2.7368    1.9213 H   0  0  0  0  0  0  0  0  0  0  0  0
   -9.4147    3.7926    3.0830 H   0  0  0  0  0  0  0  0  0  0  0  0
  -10.6517    1.9137    4.1249 H   0  0  0  0  0  0  0  0  0  0  0  0
  -11.8798    0.6454   -1.8148 H   0  0  0  0  0  0  0  0  0  0  0  0
  -13.2992   -0.9801   -5.4613 H   0  0  0  0  0  0  0  0  0  0  0  0
  -14.0266   -2.4718   -4.8953 H   0  0  0  0  0  0  0  0  0  0  0  0
  -12.5803   -2.8859   -6.8793 H   0  0  0  0  0  0  0  0  0  0  0  0
  -12.0587   -3.7756   -5.4513 H   0  0  0  0  0  0  0  0  0  0  0  0
  -10.0795   -2.9163   -6.4583 H   0  0  0  0  0  0  0  0  0  0  0  0
   -8.7387   -0.6770   -7.9706 H   0  0  0  0  0  0  0  0  0  0  0  0
   -9.2168   -1.3380   -4.6434 H   0  0  0  0  0  0  0  0  0  0  0  0
   -9.9731   -2.8207   -4.0804 H   0  0  0  0  0  0  0  0  0  0  0  0
  -11.2483   -0.0400   -4.0624 H   0  0  0  0  0  0  0  0  0  0  0  0
  -10.6918   -1.0521   -2.7289 H   0  0  0  0  0  0  0  0  0  0  0  0
  -13.5357   -2.7509    0.2897 H   0  0  0  0  0  0  0  0  0  0  0  0
  -12.4441   -1.1516    1.9173 H   0  0  0  0  0  0  0  0  0  0  0  0
  -10.3473    2.0981   -0.7545 H   0  0  0  0  0  0  0  0  0  0  0  0
   -8.2271    6.3870   -0.1079 H   0  0  0  0  0  0  0  0  0  0  0  0
   -6.1771    7.4616    0.7519 H   0  0  0  0  0  0  0  0  0  0  0  0
    0.1725    7.6358    2.8214 H   0  0  0  0  0  0  0  0  0  0  0  0
  1  2  1  0  0  0  0
  1 43  1  0  0  0  0
  1 44  1  0  0  0  0
  1 45  1  0  0  0  0
  2  3  1  0  0  0  0
  2 42  2  0  0  0  0
  3  4  2  0  0  0  0
  3 46  1  0  0  0  0
  4  5  1  0  0  0  0
  4 47  1  0  0  0  0
  5  6  1  0  0  0  0
  5  7  2  0  0  0  0
  7  8  1  0  0  0  0
  7 42  1  0  0  0  0
  8  9  1  0  0  0  0
  8 48  1  0  0  0  0
  9 10  2  0  0  0  0
  9 11  1  0  0  0  0
 11 12  1  0  0  0  0
 11 49  1  0  0  0  0
 12 13  1  0  0  0  0
 12 41  2  0  0  0  0
 13 14  2  0  0  0  0
 13 50  1  0  0  0  0
 14 15  1  0  0  0  0
 14 51  1  0  0  0  0
 15 16  1  0  0  0  0
 15 40  2  0  0  0  0
 16 17  1  0  0  0  0
 17 18  1  0  0  0  0
 17 39  2  0  0  0  0
 18 19  2  0  0  0  0
 18 52  1  0  0  0  0
 19 20  1  0  0  0  0
 19 53  1  0  0  0  0
 20 21  2  0  0  0  0
 21 22  1  0  0  0  0
 21 39  1  0  0  0  0
 22 23  2  0  0  0  0
 22 38  1  0  0  0  0
 23 24  1  0  0  0  0
 23 54  1  0  0  0  0
 24 25  1  0  0  0  0
 24 37  2  0  0  0  0
 25 26  2  0  0  0  0
 25 27  1  0  0  0  0
 27 28  1  0  0  0  0
 27 36  1  0  0  0  0
 28 29  1  0  0  0  0
 28 55  1  0  0  0  0
 28 56  1  0  0  0  0
 29 30  1  0  0  0  0
 29 57  1  0  0  0  0
 29 58  1  0  0  0  0
 30 31  1  0  0  0  0
 30 35  1  0  0  0  0
 30 59  1  0  0  0  0
 31 32  2  0  0  0  0
 31 33  2  0  0  0  0
 31 34  1  0  0  0  0
 34 60  1  0  0  0  0
 35 36  1  0  0  0  0
 35 61  1  0  0  0  0
 35 62  1  0  0  0  0
 36 63  1  0  0  0  0
 36 64  1  0  0  0  0
 37 38  1  0  0  0  0
 37 65  1  0  0  0  0
 38 66  1  0  0  0  0
 39 67  1  0  0  0  0
 40 41  1  0  0  0  0
 40 68  1  0  0  0  0
 41 69  1  0  0  0  0
 42 70  1  0  0  0  0
M  END
$$$$
