CHEMBL3633288
 OpenBabel04072215373D

 66 69  0  0  0  0  0  0  0  0999 V2000
    1.1967    1.0768    0.1402 C   0  0  0  0  0  0  0  0  0  0  0  0
    2.4439    0.3570    0.0452 O   0  0  0  0  0  0  0  0  0  0  0  0
    3.1005    0.6187   -1.1332 C   0  0  0  0  0  0  0  0  0  0  0  0
    2.8070    1.8288   -1.7973 C   0  0  0  0  0  0  0  0  0  0  0  0
    3.4859    2.2274   -2.9242 C   0  0  0  0  0  0  0  0  0  0  0  0
    4.5306    1.4371   -3.4090 C   0  0  0  0  0  0  0  0  0  0  0  0
    5.3259    1.8777   -4.5772 C   0  0  0  0  0  0  0  0  0  0  0  0
    6.4955    1.5861   -4.7476 O   0  0  0  0  0  0  0  0  0  0  0  0
    4.5485    2.6025   -5.4327 O   0  0  0  0  0  0  0  0  0  0  0  0
    5.2039    3.0376   -6.6369 C   0  0  0  0  0  0  0  0  0  0  0  0
    5.2698    1.8895   -7.6600 C   0  0  0  0  0  0  0  0  0  0  0  0
    5.9279    2.2709   -8.9261 N   0  0  0  0  0  0  0  0  0  0  0  0
    5.9684    1.1393   -9.8814 C   0  0  0  0  0  0  0  0  0  0  0  0
    6.9329    0.0149   -9.4656 C   0  0  0  0  0  0  0  0  0  0  0  0
    8.2655    0.5159   -9.2964 O   0  0  0  0  0  0  0  0  0  0  0  0
    8.2934    1.5740   -8.3296 C   0  0  0  0  0  0  0  0  0  0  0  0
    7.3307    2.7090   -8.7198 C   0  0  0  0  0  0  0  0  0  0  0  0
    4.8246    0.2282   -2.7612 C   0  0  0  0  0  0  0  0  0  0  0  0
    4.1040   -0.2510   -1.6608 C   0  0  0  0  0  0  0  0  0  0  0  0
    4.3747   -1.5700   -1.1262 N   0  0  0  0  0  0  0  0  0  0  0  0
    5.2986   -2.4694   -1.6440 C   0  0  0  0  0  0  0  0  0  0  0  0
    6.0516   -2.2435   -2.6156 O   0  0  0  0  0  0  0  0  0  0  0  0
    5.4272   -3.6564   -0.9891 N   0  0  0  0  0  0  0  0  0  0  0  0
    6.3538   -4.6576   -1.4361 C   0  0  0  0  0  0  0  0  0  0  0  0
    6.2199   -5.1157   -2.7623 C   0  0  0  0  0  0  0  0  0  0  0  0
    7.1075   -6.0352   -3.3548 C   0  0  0  0  0  0  0  0  0  0  0  0
    6.9168   -6.4398   -4.7585 C   0  0  0  0  0  0  0  0  0  0  0  0
    6.3717   -5.5853   -5.6964 C   0  0  0  0  0  0  0  0  0  0  0  0
    6.1421   -5.8970   -6.9932 N   0  0  0  0  0  0  0  0  0  0  0  0
    6.4993   -7.1317   -7.3520 C   0  0  0  0  0  0  0  0  0  0  0  0
    7.0436   -8.0608   -6.5554 N   0  0  0  0  0  0  0  0  0  0  0  0
    7.2374   -7.6882   -5.2663 C   0  0  0  0  0  0  0  0  0  0  0  0
    8.1599   -6.5073   -2.5711 C   0  0  0  0  0  0  0  0  0  0  0  0
    8.3099   -6.0742   -1.2485 C   0  0  0  0  0  0  0  0  0  0  0  0
    7.3937   -5.1828   -0.6558 C   0  0  0  0  0  0  0  0  0  0  0  0
    7.6975   -4.9349    0.6552 O   0  0  0  0  0  0  0  0  0  0  0  0
    6.6164   -4.6560    1.5331 C   0  0  0  0  0  0  0  0  0  0  0  0
    5.3964   -4.7346    0.9771 F   0  0  0  0  0  0  0  0  0  0  0  0
    6.6028   -5.5588    2.5448 F   0  0  0  0  0  0  0  0  0  0  0  0
    6.7883   -3.4258    2.0739 F   0  0  0  0  0  0  0  0  0  0  0  0
    0.5994    0.6231    0.9377 H   0  0  0  0  0  0  0  0  0  0  0  0
    0.6134    0.9924   -0.7885 H   0  0  0  0  0  0  0  0  0  0  0  0
    1.3240    2.1411    0.4093 H   0  0  0  0  0  0  0  0  0  0  0  0
    2.0439    2.5050   -1.4399 H   0  0  0  0  0  0  0  0  0  0  0  0
    3.2315    3.1742   -3.3954 H   0  0  0  0  0  0  0  0  0  0  0  0
    6.2058    3.4009   -6.3801 H   0  0  0  0  0  0  0  0  0  0  0  0
    4.6491    3.8815   -7.0607 H   0  0  0  0  0  0  0  0  0  0  0  0
    4.2381    1.5664   -7.8498 H   0  0  0  0  0  0  0  0  0  0  0  0
    5.7523    1.0296   -7.1857 H   0  0  0  0  0  0  0  0  0  0  0  0
    6.3049    1.5381  -10.8503 H   0  0  0  0  0  0  0  0  0  0  0  0
    4.9613    0.7405  -10.0529 H   0  0  0  0  0  0  0  0  0  0  0  0
    6.9668   -0.7533  -10.2446 H   0  0  0  0  0  0  0  0  0  0  0  0
    6.6083   -0.4746   -8.5407 H   0  0  0  0  0  0  0  0  0  0  0  0
    9.3178    1.9583   -8.2938 H   0  0  0  0  0  0  0  0  0  0  0  0
    8.0636    1.1653   -7.3394 H   0  0  0  0  0  0  0  0  0  0  0  0
    7.6757    3.1529   -9.6616 H   0  0  0  0  0  0  0  0  0  0  0  0
    7.3857    3.5222   -7.9925 H   0  0  0  0  0  0  0  0  0  0  0  0
    5.6628   -0.3402   -3.1589 H   0  0  0  0  0  0  0  0  0  0  0  0
    3.8845   -1.8482   -0.3032 H   0  0  0  0  0  0  0  0  0  0  0  0
    4.5651   -4.0265   -0.5638 H   0  0  0  0  0  0  0  0  0  0  0  0
    5.3906   -4.7309   -3.3514 H   0  0  0  0  0  0  0  0  0  0  0  0
    6.0836   -4.5687   -5.4343 H   0  0  0  0  0  0  0  0  0  0  0  0
    6.3239   -7.4062   -8.3870 H   0  0  0  0  0  0  0  0  0  0  0  0
    7.6561   -8.4694   -4.6406 H   0  0  0  0  0  0  0  0  0  0  0  0
    8.8855   -7.2112   -2.9759 H   0  0  0  0  0  0  0  0  0  0  0  0
    9.1394   -6.4654   -0.6644 H   0  0  0  0  0  0  0  0  0  0  0  0
  1  2  1  0  0  0  0
  1 41  1  0  0  0  0
  1 42  1  0  0  0  0
  1 43  1  0  0  0  0
  2  3  1  0  0  0  0
  3  4  1  0  0  0  0
  3 19  2  0  0  0  0
  4  5  2  0  0  0  0
  4 44  1  0  0  0  0
  5  6  1  0  0  0  0
  5 45  1  0  0  0  0
  6  7  1  0  0  0  0
  6 18  2  0  0  0  0
  7  8  2  0  0  0  0
  7  9  1  0  0  0  0
  9 10  1  0  0  0  0
 10 11  1  0  0  0  0
 10 46  1  0  0  0  0
 10 47  1  0  0  0  0
 11 12  1  0  0  0  0
 11 48  1  0  0  0  0
 11 49  1  0  0  0  0
 12 13  1  0  0  0  0
 12 17  1  0  0  0  0
 13 14  1  0  0  0  0
 13 50  1  0  0  0  0
 13 51  1  0  0  0  0
 14 15  1  0  0  0  0
 14 52  1  0  0  0  0
 14 53  1  0  0  0  0
 15 16  1  0  0  0  0
 16 17  1  0  0  0  0
 16 54  1  0  0  0  0
 16 55  1  0  0  0  0
 17 56  1  0  0  0  0
 17 57  1  0  0  0  0
 18 19  1  0  0  0  0
 18 58  1  0  0  0  0
 19 20  1  0  0  0  0
 20 21  1  0  0  0  0
 20 59  1  0  0  0  0
 21 22  2  0  0  0  0
 21 23  1  0  0  0  0
 23 24  1  0  0  0  0
 23 60  1  0  0  0  0
 24 25  1  0  0  0  0
 24 35  2  0  0  0  0
 25 26  2  0  0  0  0
 25 61  1  0  0  0  0
 26 27  1  0  0  0  0
 26 33  1  0  0  0  0
 27 28  1  0  0  0  0
 27 32  2  0  0  0  0
 28 29  2  0  0  0  0
 28 62  1  0  0  0  0
 29 30  1  0  0  0  0
 30 31  2  0  0  0  0
 30 63  1  0  0  0  0
 31 32  1  0  0  0  0
 32 64  1  0  0  0  0
 33 34  2  0  0  0  0
 33 65  1  0  0  0  0
 34 35  1  0  0  0  0
 34 66  1  0  0  0  0
 35 36  1  0  0  0  0
 36 37  1  0  0  0  0
 37 38  1  0  0  0  0
 37 39  1  0  0  0  0
 37 40  1  0  0  0  0
M  END
$$$$
