CHEMBL3964861
 OpenBabel04072215373D

 52 55  0  0  0  0  0  0  0  0999 V2000
    1.1432    0.8059   -0.0898 O   0  0  0  0  0  0  0  0  0  0  0  0
    2.2377    0.2600   -0.0332 C   0  0  0  0  0  0  0  0  0  0  0  0
    2.7793   -0.5086   -1.0557 N   0  0  0  0  0  0  0  0  0  0  0  0
    2.1189   -0.7814   -2.2789 C   0  0  0  0  0  0  0  0  0  0  0  0
    1.0156   -0.0465   -2.7145 C   0  0  0  0  0  0  0  0  0  0  0  0
    0.3086   -0.4165   -3.8554 C   0  0  0  0  0  0  0  0  0  0  0  0
    0.7591   -1.4645   -4.6541 C   0  0  0  0  0  0  0  0  0  0  0  0
    0.1371   -1.8514   -5.8262 O   0  0  0  0  0  0  0  0  0  0  0  0
   -0.4616   -0.8883   -6.6184 C   0  0  0  0  0  0  0  0  0  0  0  0
   -0.0089    0.4266   -6.6927 C   0  0  0  0  0  0  0  0  0  0  0  0
   -0.7321    1.3170   -7.4487 C   0  0  0  0  0  0  0  0  0  0  0  0
   -1.8024    0.9643   -8.1758 N   0  0  0  0  0  0  0  0  0  0  0  0
   -2.1964   -0.3206   -8.1747 C   0  0  0  0  0  0  0  0  0  0  0  0
   -3.2862   -0.6952   -8.9803 N   0  0  0  0  0  0  0  0  0  0  0  0
   -3.9956    0.1896   -9.7713 C   0  0  0  0  0  0  0  0  0  0  0  0
   -3.8386    1.3921   -9.8855 O   0  0  0  0  0  0  0  0  0  0  0  0
   -5.0623   -0.4746  -10.5874 C   0  0  0  0  0  0  0  0  0  0  0  0
   -4.9807   -0.3944  -12.0958 C   0  0  0  0  0  0  0  0  0  0  0  0
   -6.0591    0.3556  -11.3710 C   0  0  0  0  0  0  0  0  0  0  0  0
   -1.5512   -1.2829   -7.4018 C   0  0  0  0  0  0  0  0  0  0  0  0
    1.8781   -2.1942   -4.2457 C   0  0  0  0  0  0  0  0  0  0  0  0
    2.5601   -1.8518   -3.0653 C   0  0  0  0  0  0  0  0  0  0  0  0
    3.0603    0.3090    1.0775 N   0  0  0  0  0  0  0  0  0  0  0  0
    2.7384    0.9206    2.3133 C   0  0  0  0  0  0  0  0  0  0  0  0
    1.5262    1.5652    2.5724 C   0  0  0  0  0  0  0  0  0  0  0  0
    1.2853    2.1423    3.8132 C   0  0  0  0  0  0  0  0  0  0  0  0
    0.1216    2.7678    4.0389 F   0  0  0  0  0  0  0  0  0  0  0  0
    2.2292    2.0769    4.8277 C   0  0  0  0  0  0  0  0  0  0  0  0
    3.4370    1.4083    4.6067 C   0  0  0  0  0  0  0  0  0  0  0  0
    4.4434    1.2531    5.7168 C   0  0  0  0  0  0  0  0  0  0  0  0
    4.0531    1.8214    6.8903 F   0  0  0  0  0  0  0  0  0  0  0  0
    4.6937   -0.0553    5.9997 F   0  0  0  0  0  0  0  0  0  0  0  0
    5.6481    1.8065    5.4107 F   0  0  0  0  0  0  0  0  0  0  0  0
    3.6919    0.8485    3.3385 C   0  0  0  0  0  0  0  0  0  0  0  0
    3.5722   -1.0889   -0.8311 H   0  0  0  0  0  0  0  0  0  0  0  0
    0.6605    0.8323   -2.1863 H   0  0  0  0  0  0  0  0  0  0  0  0
   -0.5796    0.1570   -4.1065 H   0  0  0  0  0  0  0  0  0  0  0  0
    0.8568    0.7792   -6.1460 H   0  0  0  0  0  0  0  0  0  0  0  0
   -0.4733    2.3698   -7.4890 H   0  0  0  0  0  0  0  0  0  0  0  0
   -3.5411   -1.6692   -8.9945 H   0  0  0  0  0  0  0  0  0  0  0  0
   -5.4553   -1.3942  -10.1687 H   0  0  0  0  0  0  0  0  0  0  0  0
   -5.2638   -1.2680  -12.6699 H   0  0  0  0  0  0  0  0  0  0  0  0
   -4.1805    0.1915  -12.5377 H   0  0  0  0  0  0  0  0  0  0  0  0
   -7.0769   -0.0068  -11.4496 H   0  0  0  0  0  0  0  0  0  0  0  0
   -5.9812    1.4382  -11.3341 H   0  0  0  0  0  0  0  0  0  0  0  0
   -1.8804   -2.3167   -7.3887 H   0  0  0  0  0  0  0  0  0  0  0  0
    2.2200   -3.0375   -4.8402 H   0  0  0  0  0  0  0  0  0  0  0  0
    3.4162   -2.4496   -2.7651 H   0  0  0  0  0  0  0  0  0  0  0  0
    3.9776   -0.0979    0.9894 H   0  0  0  0  0  0  0  0  0  0  0  0
    0.7275    1.6493    1.8447 H   0  0  0  0  0  0  0  0  0  0  0  0
    2.0013    2.5385    5.7838 H   0  0  0  0  0  0  0  0  0  0  0  0
    4.6371    0.3361    3.1713 H   0  0  0  0  0  0  0  0  0  0  0  0
  1  2  2  0  0  0  0
  2  3  1  0  0  0  0
  2 23  1  0  0  0  0
  3  4  1  0  0  0  0
  3 35  1  0  0  0  0
  4  5  1  0  0  0  0
  4 22  2  0  0  0  0
  5  6  2  0  0  0  0
  5 36  1  0  0  0  0
  6  7  1  0  0  0  0
  6 37  1  0  0  0  0
  7  8  1  0  0  0  0
  7 21  2  0  0  0  0
  8  9  1  0  0  0  0
  9 10  1  0  0  0  0
  9 20  2  0  0  0  0
 10 11  2  0  0  0  0
 10 38  1  0  0  0  0
 11 12  1  0  0  0  0
 11 39  1  0  0  0  0
 12 13  2  0  0  0  0
 13 14  1  0  0  0  0
 13 20  1  0  0  0  0
 14 15  1  0  0  0  0
 14 40  1  0  0  0  0
 15 16  2  0  0  0  0
 15 17  1  0  0  0  0
 17 18  1  0  0  0  0
 17 19  1  0  0  0  0
 17 41  1  0  0  0  0
 18 19  1  0  0  0  0
 18 42  1  0  0  0  0
 18 43  1  0  0  0  0
 19 44  1  0  0  0  0
 19 45  1  0  0  0  0
 20 46  1  0  0  0  0
 21 22  1  0  0  0  0
 21 47  1  0  0  0  0
 22 48  1  0  0  0  0
 23 24  1  0  0  0  0
 23 49  1  0  0  0  0
 24 25  1  0  0  0  0
 24 34  2  0  0  0  0
 25 26  2  0  0  0  0
 25 50  1  0  0  0  0
 26 27  1  0  0  0  0
 26 28  1  0  0  0  0
 28 29  2  0  0  0  0
 28 51  1  0  0  0  0
 29 30  1  0  0  0  0
 29 34  1  0  0  0  0
 30 31  1  0  0  0  0
 30 32  1  0  0  0  0
 30 33  1  0  0  0  0
 34 52  1  0  0  0  0
M  END
$$$$
