CHEMBL4104297
 OpenBabel04072215383D

 46 49  0  0  0  0  0  0  0  0999 V2000
    1.8587   -2.2441   -0.6955 N   0  0  0  0  0  0  0  0  0  0  0  0
    1.1341   -1.0735   -0.6099 C   0  0  0  0  0  0  0  0  0  0  0  0
   -0.1199   -1.0699   -1.0674 N   0  0  0  0  0  0  0  0  0  0  0  0
   -0.7693    0.1105   -1.0363 C   0  0  0  0  0  0  0  0  0  0  0  0
   -0.1949    1.2831   -0.6127 C   0  0  0  0  0  0  0  0  0  0  0  0
    1.1132    1.1698   -0.2116 C   0  0  0  0  0  0  0  0  0  0  0  0
    1.7743    2.3439    0.1442 O   0  0  0  0  0  0  0  0  0  0  0  0
    3.1481    2.3552    0.0165 C   0  0  0  0  0  0  0  0  0  0  0  0
    3.8157    1.7806   -1.0599 C   0  0  0  0  0  0  0  0  0  0  0  0
    5.2111    1.7707   -1.0966 C   0  0  0  0  0  0  0  0  0  0  0  0
    5.9959    2.4105   -0.1082 C   0  0  0  0  0  0  0  0  0  0  0  0
    7.4251    2.4553   -0.1027 C   0  0  0  0  0  0  0  0  0  0  0  0
    8.2468    1.8054   -1.1866 C   0  0  0  0  0  0  0  0  0  0  0  0
    7.8350    1.8161   -2.3401 O   0  0  0  0  0  0  0  0  0  0  0  0
    9.4537    1.2526   -0.7712 N   0  0  0  0  0  0  0  0  0  0  0  0
   10.4043    0.5744   -1.5699 C   0  0  0  0  0  0  0  0  0  0  0  0
   10.2086    0.2551   -2.9141 C   0  0  0  0  0  0  0  0  0  0  0  0
   11.1728   -0.4652   -3.6256 C   0  0  0  0  0  0  0  0  0  0  0  0
   12.3564   -0.8578   -3.0063 C   0  0  0  0  0  0  0  0  0  0  0  0
   12.5929   -0.5243   -1.6674 C   0  0  0  0  0  0  0  0  0  0  0  0
   13.8883   -0.9056   -0.9902 C   0  0  0  0  0  0  0  0  0  0  0  0
   14.7275   -1.6310   -1.7795 F   0  0  0  0  0  0  0  0  0  0  0  0
   14.5987    0.1851   -0.5880 F   0  0  0  0  0  0  0  0  0  0  0  0
   13.6873   -1.6514    0.1311 F   0  0  0  0  0  0  0  0  0  0  0  0
   11.6051    0.1867   -0.9568 C   0  0  0  0  0  0  0  0  0  0  0  0
    8.1016    3.1657    0.9035 C   0  0  0  0  0  0  0  0  0  0  0  0
    7.3961    3.7940    1.9234 C   0  0  0  0  0  0  0  0  0  0  0  0
    6.0052    3.7314    1.9469 C   0  0  0  0  0  0  0  0  0  0  0  0
    5.2930    3.0552    0.9457 C   0  0  0  0  0  0  0  0  0  0  0  0
    3.8839    3.0185    0.9962 C   0  0  0  0  0  0  0  0  0  0  0  0
    1.7789    0.0002   -0.1669 N   0  0  0  0  0  0  0  0  0  0  0  0
    1.4855   -2.8170   -1.4394 H   0  0  0  0  0  0  0  0  0  0  0  0
    2.8410   -2.0167   -0.7415 H   0  0  0  0  0  0  0  0  0  0  0  0
   -1.7949    0.0807   -1.3927 H   0  0  0  0  0  0  0  0  0  0  0  0
   -0.7230    2.2248   -0.6225 H   0  0  0  0  0  0  0  0  0  0  0  0
    3.2693    1.2970   -1.8643 H   0  0  0  0  0  0  0  0  0  0  0  0
    5.6717    1.2491   -1.9321 H   0  0  0  0  0  0  0  0  0  0  0  0
    9.6757    1.3080    0.2134 H   0  0  0  0  0  0  0  0  0  0  0  0
    9.3025    0.5350   -3.4421 H   0  0  0  0  0  0  0  0  0  0  0  0
   10.9902   -0.7221   -4.6668 H   0  0  0  0  0  0  0  0  0  0  0  0
   13.0930   -1.4228   -3.5755 H   0  0  0  0  0  0  0  0  0  0  0  0
   11.7972    0.4440    0.0837 H   0  0  0  0  0  0  0  0  0  0  0  0
    9.1842    3.2721    0.8884 H   0  0  0  0  0  0  0  0  0  0  0  0
    7.9272    4.3439    2.6965 H   0  0  0  0  0  0  0  0  0  0  0  0
    5.4766    4.2347    2.7547 H   0  0  0  0  0  0  0  0  0  0  0  0
    3.3503    3.5009    1.8127 H   0  0  0  0  0  0  0  0  0  0  0  0
  1  2  1  0  0  0  0
  1 32  1  0  0  0  0
  1 33  1  0  0  0  0
  2  3  1  0  0  0  0
  2 31  2  0  0  0  0
  3  4  2  0  0  0  0
  4  5  1  0  0  0  0
  4 34  1  0  0  0  0
  5  6  2  0  0  0  0
  5 35  1  0  0  0  0
  6  7  1  0  0  0  0
  6 31  1  0  0  0  0
  7  8  1  0  0  0  0
  8  9  1  0  0  0  0
  8 30  2  0  0  0  0
  9 10  2  0  0  0  0
  9 36  1  0  0  0  0
 10 11  1  0  0  0  0
 10 37  1  0  0  0  0
 11 12  1  0  0  0  0
 11 29  2  0  0  0  0
 12 13  1  0  0  0  0
 12 26  2  0  0  0  0
 13 14  2  0  0  0  0
 13 15  1  0  0  0  0
 15 16  1  0  0  0  0
 15 38  1  0  0  0  0
 16 17  1  0  0  0  0
 16 25  2  0  0  0  0
 17 18  2  0  0  0  0
 17 39  1  0  0  0  0
 18 19  1  0  0  0  0
 18 40  1  0  0  0  0
 19 20  2  0  0  0  0
 19 41  1  0  0  0  0
 20 21  1  0  0  0  0
 20 25  1  0  0  0  0
 21 22  1  0  0  0  0
 21 23  1  0  0  0  0
 21 24  1  0  0  0  0
 25 42  1  0  0  0  0
 26 27  1  0  0  0  0
 26 43  1  0  0  0  0
 27 28  2  0  0  0  0
 27 44  1  0  0  0  0
 28 29  1  0  0  0  0
 28 45  1  0  0  0  0
 29 30  1  0  0  0  0
 30 46  1  0  0  0  0
M  END
$$$$
