CHEMBL1980297
 OpenBabel04072215363D

 56 60  0  0  0  0  0  0  0  0999 V2000
    1.0997    0.0679    0.0648 N   0  0  0  0  0  0  0  0  0  0  0  0
    2.4840   -0.0418    0.0238 C   0  0  0  0  0  0  0  0  0  0  0  0
    3.1229    1.1432    0.0843 N   0  0  0  0  0  0  0  0  0  0  0  0
    4.4658    1.1819    0.0940 C   0  0  0  0  0  0  0  0  0  0  0  0
    5.2911    0.0722    0.0435 C   0  0  0  0  0  0  0  0  0  0  0  0
    6.7363    0.1945    0.0449 C   0  0  0  0  0  0  0  0  0  0  0  0
    7.7612   -0.5929    0.6259 C   0  0  0  0  0  0  0  0  0  0  0  0
    8.9853   -0.1314    0.3502 N   0  0  0  0  0  0  0  0  0  0  0  0
    8.7518    0.9579   -0.4007 N   0  0  0  0  0  0  0  0  0  0  0  0
    9.8617    1.7130   -0.9488 C   0  0  0  0  0  0  0  0  0  0  0  0
   10.7052    0.8884   -1.9124 C   0  0  0  0  0  0  0  0  0  0  0  0
    9.9546    0.5114   -3.0663 O   0  0  0  0  0  0  0  0  0  0  0  0
    7.4232    1.2065   -0.5909 C   0  0  0  0  0  0  0  0  0  0  0  0
    4.6265   -1.1700   -0.0414 C   0  0  0  0  0  0  0  0  0  0  0  0
    5.3534   -2.7331   -0.1652 S   0  0  0  0  0  0  0  0  0  0  0  0
    3.8665   -3.5201   -0.2029 C   0  0  0  0  0  0  0  0  0  0  0  0
    2.7862   -2.6618   -0.1382 C   0  0  0  0  0  0  0  0  0  0  0  0
    1.4436   -3.2549   -0.1205 C   0  0  0  0  0  0  0  0  0  0  0  0
    1.2205   -4.4080    0.6401 C   0  0  0  0  0  0  0  0  0  0  0  0
   -0.0336   -5.0117    0.6840 C   0  0  0  0  0  0  0  0  0  0  0  0
   -1.1195   -4.4451    0.0264 C   0  0  0  0  0  0  0  0  0  0  0  0
   -2.4187   -4.9961    0.1356 N   0  0  0  0  0  0  0  0  0  0  0  0
   -2.8198   -5.8006    1.1888 C   0  0  0  0  0  0  0  0  0  0  0  0
   -2.1672   -5.9965    2.2087 O   0  0  0  0  0  0  0  0  0  0  0  0
   -4.0495   -6.3895    0.9438 N   0  0  0  0  0  0  0  0  0  0  0  0
   -4.6883   -7.1889    1.9194 C   0  0  0  0  0  0  0  0  0  0  0  0
   -4.6671   -6.8423    3.2787 C   0  0  0  0  0  0  0  0  0  0  0  0
   -5.2772   -7.6582    4.2333 C   0  0  0  0  0  0  0  0  0  0  0  0
   -5.9079   -8.8317    3.8293 C   0  0  0  0  0  0  0  0  0  0  0  0
   -5.9307   -9.1682    2.4793 C   0  0  0  0  0  0  0  0  0  0  0  0
   -6.5110  -10.3144    2.0997 F   0  0  0  0  0  0  0  0  0  0  0  0
   -5.3465   -8.3492    1.5168 C   0  0  0  0  0  0  0  0  0  0  0  0
   -0.9088   -3.3229   -0.7756 C   0  0  0  0  0  0  0  0  0  0  0  0
    0.3727   -2.7441   -0.8649 C   0  0  0  0  0  0  0  0  0  0  0  0
    3.2157   -1.2616   -0.0554 C   0  0  0  0  0  0  0  0  0  0  0  0
    0.8602    1.0214    0.3195 H   0  0  0  0  0  0  0  0  0  0  0  0
    0.6591   -0.6450    0.6321 H   0  0  0  0  0  0  0  0  0  0  0  0
    4.8769    2.1867    0.1557 H   0  0  0  0  0  0  0  0  0  0  0  0
    7.6735   -1.4845    1.2304 H   0  0  0  0  0  0  0  0  0  0  0  0
   10.4612    2.0615   -0.1021 H   0  0  0  0  0  0  0  0  0  0  0  0
    9.4397    2.5844   -1.4628 H   0  0  0  0  0  0  0  0  0  0  0  0
   11.1149   -0.0141   -1.4450 H   0  0  0  0  0  0  0  0  0  0  0  0
   11.5457    1.4936   -2.2646 H   0  0  0  0  0  0  0  0  0  0  0  0
    9.3773   -0.2309   -2.7945 H   0  0  0  0  0  0  0  0  0  0  0  0
    7.0904    2.0546   -1.1773 H   0  0  0  0  0  0  0  0  0  0  0  0
    3.8561   -4.6003   -0.2666 H   0  0  0  0  0  0  0  0  0  0  0  0
    2.0182   -4.8683    1.2205 H   0  0  0  0  0  0  0  0  0  0  0  0
   -0.1244   -5.9336    1.2524 H   0  0  0  0  0  0  0  0  0  0  0  0
   -3.1589   -4.5544   -0.3908 H   0  0  0  0  0  0  0  0  0  0  0  0
   -4.2147   -6.6253   -0.0245 H   0  0  0  0  0  0  0  0  0  0  0  0
   -4.1695   -5.9333    3.6123 H   0  0  0  0  0  0  0  0  0  0  0  0
   -5.2453   -7.3838    5.2823 H   0  0  0  0  0  0  0  0  0  0  0  0
   -6.3712   -9.4882    4.5573 H   0  0  0  0  0  0  0  0  0  0  0  0
   -5.3668   -8.6656    0.4803 H   0  0  0  0  0  0  0  0  0  0  0  0
   -1.7265   -2.8586   -1.3225 H   0  0  0  0  0  0  0  0  0  0  0  0
    0.5111   -1.8787   -1.5108 H   0  0  0  0  0  0  0  0  0  0  0  0
  1  2  1  0  0  0  0
  1 36  1  0  0  0  0
  1 37  1  0  0  0  0
  2  3  1  0  0  0  0
  2 35  2  0  0  0  0
  3  4  2  0  0  0  0
  4  5  1  0  0  0  0
  4 38  1  0  0  0  0
  5  6  1  0  0  0  0
  5 14  2  0  0  0  0
  6  7  1  0  0  0  0
  6 13  2  0  0  0  0
  7  8  2  0  0  0  0
  7 39  1  0  0  0  0
  8  9  1  0  0  0  0
  9 10  1  0  0  0  0
  9 13  1  0  0  0  0
 10 11  1  0  0  0  0
 10 40  1  0  0  0  0
 10 41  1  0  0  0  0
 11 12  1  0  0  0  0
 11 42  1  0  0  0  0
 11 43  1  0  0  0  0
 12 44  1  0  0  0  0
 13 45  1  0  0  0  0
 14 15  1  0  0  0  0
 14 35  1  0  0  0  0
 15 16  1  0  0  0  0
 16 17  2  0  0  0  0
 16 46  1  0  0  0  0
 17 18  1  0  0  0  0
 17 35  1  0  0  0  0
 18 19  1  0  0  0  0
 18 34  2  0  0  0  0
 19 20  2  0  0  0  0
 19 47  1  0  0  0  0
 20 21  1  0  0  0  0
 20 48  1  0  0  0  0
 21 22  1  0  0  0  0
 21 33  2  0  0  0  0
 22 23  1  0  0  0  0
 22 49  1  0  0  0  0
 23 24  2  0  0  0  0
 23 25  1  0  0  0  0
 25 26  1  0  0  0  0
 25 50  1  0  0  0  0
 26 27  1  0  0  0  0
 26 32  2  0  0  0  0
 27 28  2  0  0  0  0
 27 51  1  0  0  0  0
 28 29  1  0  0  0  0
 28 52  1  0  0  0  0
 29 30  2  0  0  0  0
 29 53  1  0  0  0  0
 30 31  1  0  0  0  0
 30 32  1  0  0  0  0
 32 54  1  0  0  0  0
 33 34  1  0  0  0  0
 33 55  1  0  0  0  0
 34 56  1  0  0  0  0
M  END
$$$$
