CHEMBL13983
 OpenBabel04072215363D

 57 60  0  0  0  0  0  0  0  0999 V2000
    2.2442    0.4238   -0.8910 C   0  0  0  0  0  0  0  0  0  0  0  0
    0.8402    0.1876   -0.4702 C   0  0  0  0  0  0  0  0  0  0  0  0
    0.4601   -1.0775   -0.1155 N   0  0  0  0  0  0  0  0  0  0  0  0
   -0.8976   -1.1669   -0.0037 C   0  0  0  0  0  0  0  0  0  0  0  0
   -1.5497   -2.4205    0.1159 C   0  0  0  0  0  0  0  0  0  0  0  0
   -1.0201   -3.6552    0.1495 C   0  0  0  0  0  0  0  0  0  0  0  0
    0.4136   -4.1464    0.1592 C   0  0  0  0  0  0  0  0  0  0  0  0
    1.4382   -3.4881    0.1478 O   0  0  0  0  0  0  0  0  0  0  0  0
    0.3237   -5.5260    0.1777 N   0  0  0  0  0  0  0  0  0  0  0  0
   -0.9979   -5.9525    0.1660 C   0  0  0  0  0  0  0  0  0  0  0  0
   -1.4522   -7.2553    0.1484 C   0  0  0  0  0  0  0  0  0  0  0  0
   -2.8354   -7.4485    0.1044 C   0  0  0  0  0  0  0  0  0  0  0  0
   -3.7061   -6.3497    0.0784 C   0  0  0  0  0  0  0  0  0  0  0  0
   -5.0275   -6.5629    0.0206 F   0  0  0  0  0  0  0  0  0  0  0  0
   -3.2354   -5.0408    0.1019 C   0  0  0  0  0  0  0  0  0  0  0  0
   -1.8655   -4.8557    0.1516 C   0  0  0  0  0  0  0  0  0  0  0  0
   -1.3975    0.1314   -0.0664 C   0  0  0  0  0  0  0  0  0  0  0  0
   -2.8291    0.5217    0.1266 C   0  0  0  0  0  0  0  0  0  0  0  0
   -0.2782    1.0107   -0.3574 C   0  0  0  0  0  0  0  0  0  0  0  0
   -0.2812    2.4692   -0.5357 C   0  0  0  0  0  0  0  0  0  0  0  0
    0.6523    3.1895   -0.2022 O   0  0  0  0  0  0  0  0  0  0  0  0
   -1.4370    2.9443   -1.1228 N   0  0  0  0  0  0  0  0  0  0  0  0
   -1.7658    4.3405   -1.3058 C   0  0  0  0  0  0  0  0  0  0  0  0
   -2.0267    4.6562   -2.7923 C   0  0  0  0  0  0  0  0  0  0  0  0
   -0.7758    4.4569   -3.6506 C   0  0  0  0  0  0  0  0  0  0  0  0
    0.3316    5.4304   -3.2443 C   0  0  0  0  0  0  0  0  0  0  0  0
   -0.0889    6.8404   -3.1708 N   0  0  0  0  0  0  0  0  0  0  0  0
    0.9258    7.6049   -2.4326 C   0  0  0  0  0  0  0  0  0  0  0  0
   -1.4058    7.0891   -2.5693 C   0  0  0  0  0  0  0  0  0  0  0  0
   -2.4821    6.1010   -3.0125 C   0  0  0  0  0  0  0  0  0  0  0  0
    2.8189   -0.5118   -0.8616 H   0  0  0  0  0  0  0  0  0  0  0  0
    2.7518    1.1451   -0.2474 H   0  0  0  0  0  0  0  0  0  0  0  0
    2.2701    0.7767   -1.9267 H   0  0  0  0  0  0  0  0  0  0  0  0
    1.1090   -1.8547   -0.0416 H   0  0  0  0  0  0  0  0  0  0  0  0
   -2.6336   -2.3510    0.1294 H   0  0  0  0  0  0  0  0  0  0  0  0
    1.1386   -6.1209    0.1790 H   0  0  0  0  0  0  0  0  0  0  0  0
   -0.7713   -8.0981    0.1585 H   0  0  0  0  0  0  0  0  0  0  0  0
   -3.2517   -8.4510    0.0826 H   0  0  0  0  0  0  0  0  0  0  0  0
   -3.9369   -4.2163    0.0672 H   0  0  0  0  0  0  0  0  0  0  0  0
   -3.4567   -0.3293    0.4009 H   0  0  0  0  0  0  0  0  0  0  0  0
   -3.2559    0.9228   -0.7948 H   0  0  0  0  0  0  0  0  0  0  0  0
   -2.9166    1.2686    0.9208 H   0  0  0  0  0  0  0  0  0  0  0  0
   -2.0437    2.2648   -1.5481 H   0  0  0  0  0  0  0  0  0  0  0  0
   -0.9846    4.9626   -0.8604 H   0  0  0  0  0  0  0  0  0  0  0  0
   -2.6819    4.5180   -0.7305 H   0  0  0  0  0  0  0  0  0  0  0  0
   -2.8146    3.9844   -3.1580 H   0  0  0  0  0  0  0  0  0  0  0  0
   -1.0328    4.6082   -4.7072 H   0  0  0  0  0  0  0  0  0  0  0  0
   -0.4123    3.4258   -3.5702 H   0  0  0  0  0  0  0  0  0  0  0  0
    1.1347    5.3497   -3.9875 H   0  0  0  0  0  0  0  0  0  0  0  0
    0.7605    5.0958   -2.2924 H   0  0  0  0  0  0  0  0  0  0  0  0
    1.9089    7.5080   -2.9040 H   0  0  0  0  0  0  0  0  0  0  0  0
    1.0104    7.2627   -1.3924 H   0  0  0  0  0  0  0  0  0  0  0  0
    0.6750    8.6707   -2.4175 H   0  0  0  0  0  0  0  0  0  0  0  0
   -1.7320    8.0977   -2.8536 H   0  0  0  0  0  0  0  0  0  0  0  0
   -1.3532    7.0828   -1.4735 H   0  0  0  0  0  0  0  0  0  0  0  0
   -2.6982    6.2557   -4.0790 H   0  0  0  0  0  0  0  0  0  0  0  0
   -3.4171    6.2987   -2.4758 H   0  0  0  0  0  0  0  0  0  0  0  0
  1  2  1  0  0  0  0
  1 31  1  0  0  0  0
  1 32  1  0  0  0  0
  1 33  1  0  0  0  0
  2  3  1  0  0  0  0
  2 19  2  0  0  0  0
  3  4  1  0  0  0  0
  3 34  1  0  0  0  0
  4  5  1  0  0  0  0
  4 17  2  0  0  0  0
  5  6  2  0  0  0  0
  5 35  1  0  0  0  0
  6  7  1  0  0  0  0
  6 16  1  0  0  0  0
  7  8  2  0  0  0  0
  7  9  1  0  0  0  0
  9 10  1  0  0  0  0
  9 36  1  0  0  0  0
 10 11  1  0  0  0  0
 10 16  2  0  0  0  0
 11 12  2  0  0  0  0
 11 37  1  0  0  0  0
 12 13  1  0  0  0  0
 12 38  1  0  0  0  0
 13 14  1  0  0  0  0
 13 15  2  0  0  0  0
 15 16  1  0  0  0  0
 15 39  1  0  0  0  0
 17 18  1  0  0  0  0
 17 19  1  0  0  0  0
 18 40  1  0  0  0  0
 18 41  1  0  0  0  0
 18 42  1  0  0  0  0
 19 20  1  0  0  0  0
 20 21  2  0  0  0  0
 20 22  1  0  0  0  0
 22 23  1  0  0  0  0
 22 43  1  0  0  0  0
 23 24  1  0  0  0  0
 23 44  1  0  0  0  0
 23 45  1  0  0  0  0
 24 25  1  0  0  0  0
 24 30  1  0  0  0  0
 24 46  1  0  0  0  0
 25 26  1  0  0  0  0
 25 47  1  0  0  0  0
 25 48  1  0  0  0  0
 26 27  1  0  0  0  0
 26 49  1  0  0  0  0
 26 50  1  0  0  0  0
 27 28  1  0  0  0  0
 27 29  1  0  0  0  0
 28 51  1  0  0  0  0
 28 52  1  0  0  0  0
 28 53  1  0  0  0  0
 29 30  1  0  0  0  0
 29 54  1  0  0  0  0
 29 55  1  0  0  0  0
 30 56  1  0  0  0  0
 30 57  1  0  0  0  0
M  END
$$$$
