CHEMBL3586056
 OpenBabel04072215363D

 37 39  0  0  0  0  0  0  0  0999 V2000
    1.2541    0.6344    0.4090 O   0  0  0  0  0  0  0  0  0  0  0  0
    2.3331    0.1620    0.0767 C   0  0  0  0  0  0  0  0  0  0  0  0
    2.8891    0.2837   -1.1897 N   0  0  0  0  0  0  0  0  0  0  0  0
    2.2793    0.9202   -2.2938 C   0  0  0  0  0  0  0  0  0  0  0  0
    1.1817    1.7704   -2.1834 C   0  0  0  0  0  0  0  0  0  0  0  0
    0.5363    2.2587   -3.3246 C   0  0  0  0  0  0  0  0  0  0  0  0
    0.9807    1.9356   -4.6160 C   0  0  0  0  0  0  0  0  0  0  0  0
    0.2278    2.3674   -5.8133 C   0  0  0  0  0  0  0  0  0  0  0  0
   -0.5063    3.5623   -5.8539 C   0  0  0  0  0  0  0  0  0  0  0  0
   -1.2502    3.9051   -6.9830 C   0  0  0  0  0  0  0  0  0  0  0  0
   -1.2339    3.0463   -8.0661 C   0  0  0  0  0  0  0  0  0  0  0  0
   -0.5416    1.8916   -8.0888 N   0  0  0  0  0  0  0  0  0  0  0  0
    0.1577    1.5822   -6.9677 C   0  0  0  0  0  0  0  0  0  0  0  0
    2.1429    1.1493   -4.7076 C   0  0  0  0  0  0  0  0  0  0  0  0
    2.7843    0.6483   -3.5659 C   0  0  0  0  0  0  0  0  0  0  0  0
    3.1413   -0.5970    0.9086 N   0  0  0  0  0  0  0  0  0  0  0  0
    2.8313   -1.0308    2.2175 C   0  0  0  0  0  0  0  0  0  0  0  0
    1.6122   -0.7791    2.8549 C   0  0  0  0  0  0  0  0  0  0  0  0
    1.3712   -1.2438    4.1514 C   0  0  0  0  0  0  0  0  0  0  0  0
    2.3458   -1.9744    4.8277 C   0  0  0  0  0  0  0  0  0  0  0  0
    1.9822   -2.5152    6.4260 Cl  0  0  0  0  0  0  0  0  0  0  0  0
    3.5638   -2.2429    4.1972 C   0  0  0  0  0  0  0  0  0  0  0  0
    4.8154   -3.1584    4.9605 Cl  0  0  0  0  0  0  0  0  0  0  0  0
    3.8041   -1.7705    2.8992 C   0  0  0  0  0  0  0  0  0  0  0  0
    3.6705   -0.3158   -1.4023 H   0  0  0  0  0  0  0  0  0  0  0  0
    0.7770    2.0633   -1.2194 H   0  0  0  0  0  0  0  0  0  0  0  0
   -0.3520    2.8675   -3.1721 H   0  0  0  0  0  0  0  0  0  0  0  0
   -0.5124    4.2431   -5.0063 H   0  0  0  0  0  0  0  0  0  0  0  0
   -1.8302    4.8206   -7.0113 H   0  0  0  0  0  0  0  0  0  0  0  0
   -1.7958    3.2689   -8.9681 H   0  0  0  0  0  0  0  0  0  0  0  0
    0.6654    0.6228   -7.0288 H   0  0  0  0  0  0  0  0  0  0  0  0
    2.5620    0.8941   -5.6795 H   0  0  0  0  0  0  0  0  0  0  0  0
    3.6560    0.0124   -3.6984 H   0  0  0  0  0  0  0  0  0  0  0  0
    4.0647   -0.8198    0.5657 H   0  0  0  0  0  0  0  0  0  0  0  0
    0.8112   -0.2219    2.3763 H   0  0  0  0  0  0  0  0  0  0  0  0
    0.4145   -1.0254    4.6226 H   0  0  0  0  0  0  0  0  0  0  0  0
    4.7575   -1.9932    2.4266 H   0  0  0  0  0  0  0  0  0  0  0  0
  1  2  2  0  0  0  0
  2  3  1  0  0  0  0
  2 16  1  0  0  0  0
  3  4  1  0  0  0  0
  3 25  1  0  0  0  0
  4  5  1  0  0  0  0
  4 15  2  0  0  0  0
  5  6  2  0  0  0  0
  5 26  1  0  0  0  0
  6  7  1  0  0  0  0
  6 27  1  0  0  0  0
  7  8  1  0  0  0  0
  7 14  2  0  0  0  0
  8  9  1  0  0  0  0
  8 13  2  0  0  0  0
  9 10  2  0  0  0  0
  9 28  1  0  0  0  0
 10 11  1  0  0  0  0
 10 29  1  0  0  0  0
 11 12  2  0  0  0  0
 11 30  1  0  0  0  0
 12 13  1  0  0  0  0
 13 31  1  0  0  0  0
 14 15  1  0  0  0  0
 14 32  1  0  0  0  0
 15 33  1  0  0  0  0
 16 17  1  0  0  0  0
 16 34  1  0  0  0  0
 17 18  1  0  0  0  0
 17 24  2  0  0  0  0
 18 19  2  0  0  0  0
 18 35  1  0  0  0  0
 19 20  1  0  0  0  0
 19 36  1  0  0  0  0
 20 21  1  0  0  0  0
 20 22  2  0  0  0  0
 22 23  1  0  0  0  0
 22 24  1  0  0  0  0
 24 37  1  0  0  0  0
M  END
$$$$
