CHEMBL525550
 OpenBabel04072215383D

 67 70  0  0  0  0  0  0  0  0999 V2000
    2.4912    0.8549    3.9205 C   0  0  0  0  0  0  0  0  0  0  0  0
    3.6325    0.3543    3.2193 O   0  0  0  0  0  0  0  0  0  0  0  0
    4.7090    1.1716    3.3004 C   0  0  0  0  0  0  0  0  0  0  0  0
    4.7635    2.2191    3.9283 O   0  0  0  0  0  0  0  0  0  0  0  0
    5.8418    0.6608    2.4833 C   0  0  0  0  0  0  0  0  0  0  0  0
    5.7887   -0.5377    1.7371 C   0  0  0  0  0  0  0  0  0  0  0  0
    6.8692   -0.9388    0.9244 C   0  0  0  0  0  0  0  0  0  0  0  0
    7.9919   -0.1284    0.8592 C   0  0  0  0  0  0  0  0  0  0  0  0
    8.0264    1.0393    1.6310 C   0  0  0  0  0  0  0  0  0  0  0  0
    6.9916    1.4534    2.4411 C   0  0  0  0  0  0  0  0  0  0  0  0
    9.2208    1.7206    1.4556 N   0  0  0  0  0  0  0  0  0  0  0  0
   10.0465    1.0765    0.5581 C   0  0  0  0  0  0  0  0  0  0  0  0
   11.1217    1.5013    0.1839 O   0  0  0  0  0  0  0  0  0  0  0  0
    9.2869   -0.1717    0.1459 C   0  0  0  0  0  0  0  0  0  0  0  0
    9.8214   -1.0474   -0.7321 C   0  0  0  0  0  0  0  0  0  0  0  0
   11.1272   -0.9651   -1.2272 N   0  0  0  0  0  0  0  0  0  0  0  0
   11.4059   -0.4960   -2.5398 C   0  0  0  0  0  0  0  0  0  0  0  0
   10.7136    0.5765   -3.1129 C   0  0  0  0  0  0  0  0  0  0  0  0
   10.9303    0.9327   -4.4480 C   0  0  0  0  0  0  0  0  0  0  0  0
   11.8698    0.2407   -5.2219 C   0  0  0  0  0  0  0  0  0  0  0  0
   11.9678    0.5749   -6.6686 C   0  0  0  0  0  0  0  0  0  0  0  0
   11.8456    1.7640   -6.9713 O   0  0  0  0  0  0  0  0  0  0  0  0
   12.1310   -0.4189   -7.6454 N   0  0  0  0  0  0  0  0  0  0  0  0
   12.1826   -1.8641   -7.4591 C   0  0  0  0  0  0  0  0  0  0  0  0
   12.1710    0.0241   -9.0482 C   0  0  0  0  0  0  0  0  0  0  0  0
   13.5994    0.4191   -9.4786 C   0  0  0  0  0  0  0  0  0  0  0  0
   13.7517    0.7861  -10.9035 N   0  0  0  0  0  0  0  0  0  0  0  0
   12.9548    1.9695  -11.2393 C   0  0  0  0  0  0  0  0  0  0  0  0
   15.1676    1.0614  -11.1743 C   0  0  0  0  0  0  0  0  0  0  0  0
   12.7011   -0.6873   -4.5935 C   0  0  0  0  0  0  0  0  0  0  0  0
   12.4535   -1.0709   -3.2706 C   0  0  0  0  0  0  0  0  0  0  0  0
    9.0384   -2.1987   -1.2513 C   0  0  0  0  0  0  0  0  0  0  0  0
    8.2765   -2.0339   -2.4198 C   0  0  0  0  0  0  0  0  0  0  0  0
    7.5480   -3.0978   -2.9558 C   0  0  0  0  0  0  0  0  0  0  0  0
    7.5651   -4.3401   -2.3302 C   0  0  0  0  0  0  0  0  0  0  0  0
    8.3224   -4.5188   -1.1706 C   0  0  0  0  0  0  0  0  0  0  0  0
    9.0585   -3.4541   -0.6319 C   0  0  0  0  0  0  0  0  0  0  0  0
    1.7100    0.0916    3.8927 H   0  0  0  0  0  0  0  0  0  0  0  0
    2.1142    1.7573    3.4270 H   0  0  0  0  0  0  0  0  0  0  0  0
    2.7332    1.0636    4.9683 H   0  0  0  0  0  0  0  0  0  0  0  0
    4.8994   -1.1651    1.7711 H   0  0  0  0  0  0  0  0  0  0  0  0
    6.7935   -1.8636    0.3614 H   0  0  0  0  0  0  0  0  0  0  0  0
    7.0650    2.3730    3.0144 H   0  0  0  0  0  0  0  0  0  0  0  0
    9.4697    2.6024    1.8746 H   0  0  0  0  0  0  0  0  0  0  0  0
   11.6177   -1.8443   -1.0787 H   0  0  0  0  0  0  0  0  0  0  0  0
    9.9899    1.1393   -2.5297 H   0  0  0  0  0  0  0  0  0  0  0  0
   10.3575    1.7505   -4.8813 H   0  0  0  0  0  0  0  0  0  0  0  0
   12.2335   -2.1843   -6.4241 H   0  0  0  0  0  0  0  0  0  0  0  0
   13.0588   -2.2518   -7.9891 H   0  0  0  0  0  0  0  0  0  0  0  0
   11.2777   -2.3004   -7.8926 H   0  0  0  0  0  0  0  0  0  0  0  0
   11.4892    0.8734   -9.1640 H   0  0  0  0  0  0  0  0  0  0  0  0
   11.7853   -0.7822   -9.6834 H   0  0  0  0  0  0  0  0  0  0  0  0
   14.2439   -0.4528   -9.2844 H   0  0  0  0  0  0  0  0  0  0  0  0
   13.9632    1.2299   -8.8313 H   0  0  0  0  0  0  0  0  0  0  0  0
   11.8838    1.7524  -11.1808 H   0  0  0  0  0  0  0  0  0  0  0  0
   13.1405    2.2763  -12.2755 H   0  0  0  0  0  0  0  0  0  0  0  0
   13.1788    2.8198  -10.5852 H   0  0  0  0  0  0  0  0  0  0  0  0
   15.7771    0.1721  -10.9791 H   0  0  0  0  0  0  0  0  0  0  0  0
   15.5516    1.8847  -10.5604 H   0  0  0  0  0  0  0  0  0  0  0  0
   15.3182    1.3194  -12.2283 H   0  0  0  0  0  0  0  0  0  0  0  0
   13.5341   -1.1356   -5.1247 H   0  0  0  0  0  0  0  0  0  0  0  0
   13.0698   -1.8486   -2.8276 H   0  0  0  0  0  0  0  0  0  0  0  0
    8.2592   -1.0726   -2.9294 H   0  0  0  0  0  0  0  0  0  0  0  0
    6.9701   -2.9573   -3.8675 H   0  0  0  0  0  0  0  0  0  0  0  0
    7.0019   -5.1673   -2.7461 H   0  0  0  0  0  0  0  0  0  0  0  0
    8.3345   -5.4896   -0.6846 H   0  0  0  0  0  0  0  0  0  0  0  0
    9.6420   -3.6169    0.2704 H   0  0  0  0  0  0  0  0  0  0  0  0
  1  2  1  0  0  0  0
  1 38  1  0  0  0  0
  1 39  1  0  0  0  0
  1 40  1  0  0  0  0
  2  3  1  0  0  0  0
  3  4  2  0  0  0  0
  3  5  1  0  0  0  0
  5  6  1  0  0  0  0
  5 10  2  0  0  0  0
  6  7  2  0  0  0  0
  6 41  1  0  0  0  0
  7  8  1  0  0  0  0
  7 42  1  0  0  0  0
  8  9  2  0  0  0  0
  8 14  1  0  0  0  0
  9 10  1  0  0  0  0
  9 11  1  0  0  0  0
 10 43  1  0  0  0  0
 11 12  1  0  0  0  0
 11 44  1  0  0  0  0
 12 13  2  0  0  0  0
 12 14  1  0  0  0  0
 14 15  2  0  0  0  0
 15 16  1  0  0  0  0
 15 32  1  0  0  0  0
 16 17  1  0  0  0  0
 16 45  1  0  0  0  0
 17 18  1  0  0  0  0
 17 31  2  0  0  0  0
 18 19  2  0  0  0  0
 18 46  1  0  0  0  0
 19 20  1  0  0  0  0
 19 47  1  0  0  0  0
 20 21  1  0  0  0  0
 20 30  2  0  0  0  0
 21 22  2  0  0  0  0
 21 23  1  0  0  0  0
 23 24  1  0  0  0  0
 23 25  1  0  0  0  0
 24 48  1  0  0  0  0
 24 49  1  0  0  0  0
 24 50  1  0  0  0  0
 25 26  1  0  0  0  0
 25 51  1  0  0  0  0
 25 52  1  0  0  0  0
 26 27  1  0  0  0  0
 26 53  1  0  0  0  0
 26 54  1  0  0  0  0
 27 28  1  0  0  0  0
 27 29  1  0  0  0  0
 28 55  1  0  0  0  0
 28 56  1  0  0  0  0
 28 57  1  0  0  0  0
 29 58  1  0  0  0  0
 29 59  1  0  0  0  0
 29 60  1  0  0  0  0
 30 31  1  0  0  0  0
 30 61  1  0  0  0  0
 31 62  1  0  0  0  0
 32 33  1  0  0  0  0
 32 37  2  0  0  0  0
 33 34  2  0  0  0  0
 33 63  1  0  0  0  0
 34 35  1  0  0  0  0
 34 64  1  0  0  0  0
 35 36  2  0  0  0  0
 35 65  1  0  0  0  0
 36 37  1  0  0  0  0
 36 66  1  0  0  0  0
 37 67  1  0  0  0  0
M  END
$$$$
