CHEMBL269914
 OpenBabel04072215363D

 59 63  0  0  0  0  0  0  0  0999 V2000
    4.9684    0.6083   -1.9277 C   0  0  0  0  0  0  0  0  0  0  0  0
    3.8431   -0.0505   -1.3271 O   0  0  0  0  0  0  0  0  0  0  0  0
    4.1604   -0.9936   -0.3866 C   0  0  0  0  0  0  0  0  0  0  0  0
    5.3351   -0.8883    0.3825 C   0  0  0  0  0  0  0  0  0  0  0  0
    5.8058   -1.9195    1.1822 C   0  0  0  0  0  0  0  0  0  0  0  0
    7.0322   -1.7911    1.7112 N   0  0  0  0  0  0  0  0  0  0  0  0
    7.5372   -2.8263    2.4100 C   0  0  0  0  0  0  0  0  0  0  0  0
    6.8734   -4.0189    2.5924 C   0  0  0  0  0  0  0  0  0  0  0  0
    5.6011   -4.1591    2.0437 C   0  0  0  0  0  0  0  0  0  0  0  0
    5.0630   -5.4236    2.2472 O   0  0  0  0  0  0  0  0  0  0  0  0
    4.2024   -5.9946    1.3323 C   0  0  0  0  0  0  0  0  0  0  0  0
    4.2466   -5.7554   -0.0313 C   0  0  0  0  0  0  0  0  0  0  0  0
    3.1240   -6.0546   -0.8114 C   0  0  0  0  0  0  0  0  0  0  0  0
    2.0240   -6.8005   -0.3167 C   0  0  0  0  0  0  0  0  0  0  0  0
    0.8450   -7.1534   -1.0467 C   0  0  0  0  0  0  0  0  0  0  0  0
    0.5102   -6.7451   -2.4532 C   0  0  0  0  0  0  0  0  0  0  0  0
   -0.6669   -6.5804   -2.7405 O   0  0  0  0  0  0  0  0  0  0  0  0
    1.5560   -6.6678   -3.3713 N   0  0  0  0  0  0  0  0  0  0  0  0
    1.4319   -6.3617   -4.7468 C   0  0  0  0  0  0  0  0  0  0  0  0
    0.2913   -5.8021   -5.3167 C   0  0  0  0  0  0  0  0  0  0  0  0
    0.2063   -5.6217   -6.6997 C   0  0  0  0  0  0  0  0  0  0  0  0
    1.2632   -5.9906   -7.5362 C   0  0  0  0  0  0  0  0  0  0  0  0
    1.0116   -5.7758   -9.2287 Cl  0  0  0  0  0  0  0  0  0  0  0  0
    2.4408   -6.5069   -6.9887 C   0  0  0  0  0  0  0  0  0  0  0  0
    3.6439   -6.9162   -7.7996 C   0  0  0  0  0  0  0  0  0  0  0  0
    3.5353   -6.8200   -9.1471 F   0  0  0  0  0  0  0  0  0  0  0  0
    4.7433   -6.1769   -7.4679 F   0  0  0  0  0  0  0  0  0  0  0  0
    3.9989   -8.2118   -7.5556 F   0  0  0  0  0  0  0  0  0  0  0  0
    2.5141   -6.6673   -5.5817 C   0  0  0  0  0  0  0  0  0  0  0  0
   -0.1665   -7.9049   -0.4148 C   0  0  0  0  0  0  0  0  0  0  0  0
   -0.0568   -8.3016    0.9142 C   0  0  0  0  0  0  0  0  0  0  0  0
    1.0711   -7.9361    1.6398 C   0  0  0  0  0  0  0  0  0  0  0  0
    2.0995   -7.1932    1.0486 C   0  0  0  0  0  0  0  0  0  0  0  0
    3.1719   -6.7768    1.8630 C   0  0  0  0  0  0  0  0  0  0  0  0
    5.0081   -3.0592    1.3603 C   0  0  0  0  0  0  0  0  0  0  0  0
    3.7102   -3.0182    0.8033 C   0  0  0  0  0  0  0  0  0  0  0  0
    3.3223   -2.0798   -0.1580 C   0  0  0  0  0  0  0  0  0  0  0  0
    2.1655   -2.4774   -0.7594 O   0  0  0  0  0  0  0  0  0  0  0  0
    1.6431   -1.8057   -1.8873 C   0  0  0  0  0  0  0  0  0  0  0  0
    4.7782    0.6915   -3.0028 H   0  0  0  0  0  0  0  0  0  0  0  0
    5.9124    0.0603   -1.8296 H   0  0  0  0  0  0  0  0  0  0  0  0
    5.0790    1.6119   -1.5100 H   0  0  0  0  0  0  0  0  0  0  0  0
    5.9620   -0.0037    0.3179 H   0  0  0  0  0  0  0  0  0  0  0  0
    8.5318   -2.6663    2.8156 H   0  0  0  0  0  0  0  0  0  0  0  0
    7.3411   -4.8299    3.1390 H   0  0  0  0  0  0  0  0  0  0  0  0
    5.0551   -5.1803   -0.4745 H   0  0  0  0  0  0  0  0  0  0  0  0
    3.1009   -5.5953   -1.7965 H   0  0  0  0  0  0  0  0  0  0  0  0
    2.4502   -7.0295   -3.0716 H   0  0  0  0  0  0  0  0  0  0  0  0
   -0.5597   -5.4956   -4.7143 H   0  0  0  0  0  0  0  0  0  0  0  0
   -0.7058   -5.2014   -7.1202 H   0  0  0  0  0  0  0  0  0  0  0  0
    3.4286   -7.0753   -5.1512 H   0  0  0  0  0  0  0  0  0  0  0  0
   -1.0674   -8.1827   -0.9638 H   0  0  0  0  0  0  0  0  0  0  0  0
   -0.8573   -8.8643    1.3876 H   0  0  0  0  0  0  0  0  0  0  0  0
    1.1232   -8.2257    2.6926 H   0  0  0  0  0  0  0  0  0  0  0  0
    3.1617   -6.9945    2.9168 H   0  0  0  0  0  0  0  0  0  0  0  0
    2.9945   -3.8038    1.0265 H   0  0  0  0  0  0  0  0  0  0  0  0
    0.8856   -2.4697   -2.3251 H   0  0  0  0  0  0  0  0  0  0  0  0
    2.3888   -1.6221   -2.6647 H   0  0  0  0  0  0  0  0  0  0  0  0
    1.1360   -0.8925   -1.5717 H   0  0  0  0  0  0  0  0  0  0  0  0
  1  2  1  0  0  0  0
  1 40  1  0  0  0  0
  1 41  1  0  0  0  0
  1 42  1  0  0  0  0
  2  3  1  0  0  0  0
  3  4  1  0  0  0  0
  3 37  2  0  0  0  0
  4  5  2  0  0  0  0
  4 43  1  0  0  0  0
  5  6  1  0  0  0  0
  5 35  1  0  0  0  0
  6  7  2  0  0  0  0
  7  8  1  0  0  0  0
  7 44  1  0  0  0  0
  8  9  2  0  0  0  0
  8 45  1  0  0  0  0
  9 10  1  0  0  0  0
  9 35  1  0  0  0  0
 10 11  1  0  0  0  0
 11 12  1  0  0  0  0
 11 34  2  0  0  0  0
 12 13  2  0  0  0  0
 12 46  1  0  0  0  0
 13 14  1  0  0  0  0
 13 47  1  0  0  0  0
 14 15  1  0  0  0  0
 14 33  2  0  0  0  0
 15 16  1  0  0  0  0
 15 30  2  0  0  0  0
 16 17  2  0  0  0  0
 16 18  1  0  0  0  0
 18 19  1  0  0  0  0
 18 48  1  0  0  0  0
 19 20  1  0  0  0  0
 19 29  2  0  0  0  0
 20 21  2  0  0  0  0
 20 49  1  0  0  0  0
 21 22  1  0  0  0  0
 21 50  1  0  0  0  0
 22 23  1  0  0  0  0
 22 24  2  0  0  0  0
 24 25  1  0  0  0  0
 24 29  1  0  0  0  0
 25 26  1  0  0  0  0
 25 27  1  0  0  0  0
 25 28  1  0  0  0  0
 29 51  1  0  0  0  0
 30 31  1  0  0  0  0
 30 52  1  0  0  0  0
 31 32  2  0  0  0  0
 31 53  1  0  0  0  0
 32 33  1  0  0  0  0
 32 54  1  0  0  0  0
 33 34  1  0  0  0  0
 34 55  1  0  0  0  0
 35 36  2  0  0  0  0
 36 37  1  0  0  0  0
 36 56  1  0  0  0  0
 37 38  1  0  0  0  0
 38 39  1  0  0  0  0
 39 57  1  0  0  0  0
 39 58  1  0  0  0  0
 39 59  1  0  0  0  0
M  END
$$$$
