CHEMBL2004515
 OpenBabel04072215363D

 27 30  0  0  0  0  0  0  0  0999 V2000
   -1.7642   -0.7130    0.4974 C   0  0  0  0  0  0  0  0  0  0  0  0
   -1.9319    0.6182    0.5709 N   0  0  0  0  0  0  0  0  0  0  0  0
   -0.9649    1.4287    0.0546 C   0  0  0  0  0  0  0  0  0  0  0  0
   -1.1502    2.8814    0.1816 C   0  0  0  0  0  0  0  0  0  0  0  0
   -1.8288    3.4162    1.3098 C   0  0  0  0  0  0  0  0  0  0  0  0
   -1.9912    4.7953    1.4953 C   0  0  0  0  0  0  0  0  0  0  0  0
   -1.4725    5.6318    0.5356 C   0  0  0  0  0  0  0  0  0  0  0  0
   -0.8328    5.1395   -0.5740 C   0  0  0  0  0  0  0  0  0  0  0  0
   -0.6716    3.7859   -0.7845 C   0  0  0  0  0  0  0  0  0  0  0  0
   -0.3959    6.1239   -1.4042 O   0  0  0  0  0  0  0  0  0  0  0  0
   -0.8814    7.2924   -0.7125 C   0  0  0  0  0  0  0  0  0  0  0  0
   -1.5240    6.9900    0.5440 O   0  0  0  0  0  0  0  0  0  0  0  0
    0.1759    0.8328   -0.5124 C   0  0  0  0  0  0  0  0  0  0  0  0
    1.4028    1.2525   -1.1116 C   0  0  0  0  0  0  0  0  0  0  0  0
    2.1198    0.1261   -1.4527 C   0  0  0  0  0  0  0  0  0  0  0  0
    1.3877   -0.9645   -1.0655 N   0  0  0  0  0  0  0  0  0  0  0  0
    0.2090   -0.5549   -0.5020 C   0  0  0  0  0  0  0  0  0  0  0  0
   -0.7251   -1.3872   -0.0194 N   0  0  0  0  0  0  0  0  0  0  0  0
   -2.5654   -1.3162    0.9122 H   0  0  0  0  0  0  0  0  0  0  0  0
   -2.2311    2.7388    2.0628 H   0  0  0  0  0  0  0  0  0  0  0  0
   -2.5054    5.1879    2.3649 H   0  0  0  0  0  0  0  0  0  0  0  0
   -0.1901    3.4518   -1.6965 H   0  0  0  0  0  0  0  0  0  0  0  0
   -1.6039    7.8019   -1.3604 H   0  0  0  0  0  0  0  0  0  0  0  0
   -0.0388    7.9668   -0.5248 H   0  0  0  0  0  0  0  0  0  0  0  0
    1.7366    2.2675   -1.2775 H   0  0  0  0  0  0  0  0  0  0  0  0
    3.0870    0.0096   -1.9243 H   0  0  0  0  0  0  0  0  0  0  0  0
    1.6568   -1.9331   -1.1574 H   0  0  0  0  0  0  0  0  0  0  0  0
  1  2  1  0  0  0  0
  1 18  2  0  0  0  0
  1 19  1  0  0  0  0
  2  3  2  0  0  0  0
  3  4  1  0  0  0  0
  3 13  1  0  0  0  0
  4  5  1  0  0  0  0
  4  9  2  0  0  0  0
  5  6  2  0  0  0  0
  5 20  1  0  0  0  0
  6  7  1  0  0  0  0
  6 21  1  0  0  0  0
  7  8  2  0  0  0  0
  7 12  1  0  0  0  0
  8  9  1  0  0  0  0
  8 10  1  0  0  0  0
  9 22  1  0  0  0  0
 10 11  1  0  0  0  0
 11 12  1  0  0  0  0
 11 23  1  0  0  0  0
 11 24  1  0  0  0  0
 13 14  1  0  0  0  0
 13 17  2  0  0  0  0
 14 15  2  0  0  0  0
 14 25  1  0  0  0  0
 15 16  1  0  0  0  0
 15 26  1  0  0  0  0
 16 17  1  0  0  0  0
 16 27  1  0  0  0  0
 17 18  1  0  0  0  0
M  END
$$$$
