CHEMBL427264
 OpenBabel04072215383D

 44 48  0  0  0  0  0  0  0  0999 V2000
    3.4210   -3.8964    1.1138 F   0  0  0  0  0  0  0  0  0  0  0  0
    2.3422   -4.6764    0.8016 C   0  0  0  0  0  0  0  0  0  0  0  0
    2.6268   -5.8997    1.3265 F   0  0  0  0  0  0  0  0  0  0  0  0
    1.3123   -4.1689    1.5327 F   0  0  0  0  0  0  0  0  0  0  0  0
    2.0599   -4.7152   -0.6739 C   0  0  0  0  0  0  0  0  0  0  0  0
    2.8694   -3.9747   -1.5592 C   0  0  0  0  0  0  0  0  0  0  0  0
    2.6880   -4.0145   -2.9522 C   0  0  0  0  0  0  0  0  0  0  0  0
    3.6186   -3.3328   -3.7613 N   0  0  0  0  0  0  0  0  0  0  0  0
    3.8766   -3.5517   -5.0696 C   0  0  0  0  0  0  0  0  0  0  0  0
    3.2189   -4.2248   -5.9882 N   0  0  0  0  0  0  0  0  0  0  0  0
    3.9739   -4.1489   -7.1340 C   0  0  0  0  0  0  0  0  0  0  0  0
    3.7488   -4.6991   -8.4047 C   0  0  0  0  0  0  0  0  0  0  0  0
    4.7076   -4.4889   -9.4065 C   0  0  0  0  0  0  0  0  0  0  0  0
    4.4349   -5.0735  -10.6278 O   0  0  0  0  0  0  0  0  0  0  0  0
    5.4752   -5.5132  -11.4246 C   0  0  0  0  0  0  0  0  0  0  0  0
    6.6775   -6.0321  -10.9181 C   0  0  0  0  0  0  0  0  0  0  0  0
    7.6788   -6.4030  -11.8086 C   0  0  0  0  0  0  0  0  0  0  0  0
    7.5932   -6.3640  -13.1544 N   0  0  0  0  0  0  0  0  0  0  0  0
    6.3901   -5.9468  -13.5882 C   0  0  0  0  0  0  0  0  0  0  0  0
    6.0305   -5.8753  -14.9049 N   0  0  0  0  0  0  0  0  0  0  0  0
    4.7375   -5.4390  -15.0135 C   0  0  0  0  0  0  0  0  0  0  0  0
    4.2683   -5.1988  -13.7382 C   0  0  0  0  0  0  0  0  0  0  0  0
    5.3093   -5.5206  -12.8205 C   0  0  0  0  0  0  0  0  0  0  0  0
    5.8305   -3.6858   -9.1591 C   0  0  0  0  0  0  0  0  0  0  0  0
    6.0859   -3.1573   -7.8894 C   0  0  0  0  0  0  0  0  0  0  0  0
    5.1275   -3.4097   -6.9107 C   0  0  0  0  0  0  0  0  0  0  0  0
    5.0389   -3.0435   -5.5951 N   0  0  0  0  0  0  0  0  0  0  0  0
    1.6410   -4.7927   -3.4478 C   0  0  0  0  0  0  0  0  0  0  0  0
    0.8127   -5.5187   -2.5856 C   0  0  0  0  0  0  0  0  0  0  0  0
    1.0263   -5.4879   -1.2066 C   0  0  0  0  0  0  0  0  0  0  0  0
   -0.0148   -6.4377   -0.2118 Cl  0  0  0  0  0  0  0  0  0  0  0  0
    3.6824   -3.3763   -1.1471 H   0  0  0  0  0  0  0  0  0  0  0  0
    4.2396   -2.7370   -3.2276 H   0  0  0  0  0  0  0  0  0  0  0  0
    2.8546   -5.2817   -8.5957 H   0  0  0  0  0  0  0  0  0  0  0  0
    6.8486   -6.1358   -9.8562 H   0  0  0  0  0  0  0  0  0  0  0  0
    8.6341   -6.7583  -11.4267 H   0  0  0  0  0  0  0  0  0  0  0  0
    6.6402   -6.1341  -15.6627 H   0  0  0  0  0  0  0  0  0  0  0  0
    4.2612   -5.3435  -15.9811 H   0  0  0  0  0  0  0  0  0  0  0  0
    3.2773   -4.8473  -13.4831 H   0  0  0  0  0  0  0  0  0  0  0  0
    6.5384   -3.4680   -9.9559 H   0  0  0  0  0  0  0  0  0  0  0  0
    6.9797   -2.5777   -7.6887 H   0  0  0  0  0  0  0  0  0  0  0  0
    5.7287   -2.5191   -5.0828 H   0  0  0  0  0  0  0  0  0  0  0  0
    1.4485   -4.8518   -4.5166 H   0  0  0  0  0  0  0  0  0  0  0  0
    0.0102   -6.1195   -3.0079 H   0  0  0  0  0  0  0  0  0  0  0  0
  1  2  1  0  0  0  0
  2  3  1  0  0  0  0
  2  4  1  0  0  0  0
  2  5  1  0  0  0  0
  5  6  1  0  0  0  0
  5 30  2  0  0  0  0
  6  7  2  0  0  0  0
  6 32  1  0  0  0  0
  7  8  1  0  0  0  0
  7 28  1  0  0  0  0
  8  9  1  0  0  0  0
  8 33  1  0  0  0  0
  9 10  2  0  0  0  0
  9 27  1  0  0  0  0
 10 11  1  0  0  0  0
 11 12  1  0  0  0  0
 11 26  2  0  0  0  0
 12 13  2  0  0  0  0
 12 34  1  0  0  0  0
 13 14  1  0  0  0  0
 13 24  1  0  0  0  0
 14 15  1  0  0  0  0
 15 16  1  0  0  0  0
 15 23  2  0  0  0  0
 16 17  2  0  0  0  0
 16 35  1  0  0  0  0
 17 18  1  0  0  0  0
 17 36  1  0  0  0  0
 18 19  2  0  0  0  0
 19 20  1  0  0  0  0
 19 23  1  0  0  0  0
 20 21  1  0  0  0  0
 20 37  1  0  0  0  0
 21 22  2  0  0  0  0
 21 38  1  0  0  0  0
 22 23  1  0  0  0  0
 22 39  1  0  0  0  0
 24 25  2  0  0  0  0
 24 40  1  0  0  0  0
 25 26  1  0  0  0  0
 25 41  1  0  0  0  0
 26 27  1  0  0  0  0
 27 42  1  0  0  0  0
 28 29  2  0  0  0  0
 28 43  1  0  0  0  0
 29 30  1  0  0  0  0
 29 44  1  0  0  0  0
 30 31  1  0  0  0  0
M  END
$$$$
