CHEMBL4532084
 OpenBabel04072215383D

 71 74  0  0  0  0  0  0  0  0999 V2000
    2.7876   -1.0797   -0.1043 C   0  0  0  0  0  0  0  0  0  0  0  0
    2.0887    0.1664   -0.0733 O   0  0  0  0  0  0  0  0  0  0  0  0
    2.8371    1.3031   -0.2229 C   0  0  0  0  0  0  0  0  0  0  0  0
    3.8953    1.3115   -1.1284 C   0  0  0  0  0  0  0  0  0  0  0  0
    4.7183    2.4419   -1.2716 C   0  0  0  0  0  0  0  0  0  0  0  0
    5.8332    2.4838   -2.1157 C   0  0  0  0  0  0  0  0  0  0  0  0
    6.1202    1.3590   -2.9407 N   0  0  0  0  0  0  0  0  0  0  0  0
    7.3688    1.1448   -3.5685 C   0  0  0  0  0  0  0  0  0  0  0  0
    8.5549    1.2608   -2.8362 C   0  0  0  0  0  0  0  0  0  0  0  0
    9.7952    1.1727   -3.4634 C   0  0  0  0  0  0  0  0  0  0  0  0
    9.8813    0.9586   -4.8442 C   0  0  0  0  0  0  0  0  0  0  0  0
   11.2337    0.9824   -5.4953 C   0  0  0  0  0  0  0  0  0  0  0  0
    8.6928    0.7644   -5.5658 C   0  0  0  0  0  0  0  0  0  0  0  0
    8.7027    0.4203   -7.4345 Br  0  0  0  0  0  0  0  0  0  0  0  0
    7.4469    0.8459   -4.9310 C   0  0  0  0  0  0  0  0  0  0  0  0
    6.6389    3.5561   -2.1609 N   0  0  0  0  0  0  0  0  0  0  0  0
    6.3131    4.5914   -1.3848 C   0  0  0  0  0  0  0  0  0  0  0  0
    5.2546    4.6705   -0.5706 N   0  0  0  0  0  0  0  0  0  0  0  0
    4.4668    3.5923   -0.5141 C   0  0  0  0  0  0  0  0  0  0  0  0
    3.3613    3.6056    0.3248 C   0  0  0  0  0  0  0  0  0  0  0  0
    2.5226    2.4907    0.4750 C   0  0  0  0  0  0  0  0  0  0  0  0
    1.4720    2.7185    1.3489 O   0  0  0  0  0  0  0  0  0  0  0  0
    0.7148    1.5592    1.6516 C   0  0  0  0  0  0  0  0  0  0  0  0
   -0.3350    1.7124    2.7480 C   0  0  0  0  0  0  0  0  0  0  0  0
   -1.0798    0.4838    2.9102 O   0  0  0  0  0  0  0  0  0  0  0  0
   -0.2480   -0.6137    3.2896 C   0  0  0  0  0  0  0  0  0  0  0  0
   -0.9928   -1.9392    3.3224 C   0  0  0  0  0  0  0  0  0  0  0  0
   -0.0223   -2.9271    3.6782 O   0  0  0  0  0  0  0  0  0  0  0  0
   -0.5391   -4.2509    3.6619 C   0  0  0  0  0  0  0  0  0  0  0  0
    0.5934   -5.2020    4.0538 C   0  0  0  0  0  0  0  0  0  0  0  0
    0.1702   -6.5895    4.1056 N   0  0  0  0  0  0  0  0  0  0  0  0
    0.2000   -7.3932    2.9868 C   0  0  0  0  0  0  0  0  0  0  0  0
    0.5790   -6.9938    1.8882 O   0  0  0  0  0  0  0  0  0  0  0  0
   -0.2860   -8.8074    3.1955 C   0  0  0  0  0  0  0  0  0  0  0  0
    0.7625   -9.7689    2.9362 N   0  0  0  0  0  0  0  0  0  0  0  0
    1.4000  -10.0234    1.7579 C   0  0  0  0  0  0  0  0  0  0  0  0
    2.2639  -11.0011    1.9197 N   0  0  0  0  0  0  0  0  0  0  0  0
    2.1076  -11.3210    3.2480 C   0  0  0  0  0  0  0  0  0  0  0  0
    2.8929  -12.3514    3.9142 N   0  3  0  0  0  0  0  0  0  0  0  0
    3.7873  -12.8995    3.2514 O   0  0  0  0  0  0  0  0  0  0  0  0
    2.6227  -12.6133    5.0979 O   0  5  0  0  0  0  0  0  0  0  0  0
    1.1825  -10.6030    3.9115 N   0  0  0  0  0  0  0  0  0  0  0  0
    2.4054   -1.7041    0.7095 H   0  0  0  0  0  0  0  0  0  0  0  0
    3.8704   -0.9912    0.0384 H   0  0  0  0  0  0  0  0  0  0  0  0
    2.5713   -1.5804   -1.0523 H   0  0  0  0  0  0  0  0  0  0  0  0
    4.1020    0.4235   -1.7192 H   0  0  0  0  0  0  0  0  0  0  0  0
    5.3380    1.1922   -3.5653 H   0  0  0  0  0  0  0  0  0  0  0  0
    8.5137    1.4551   -1.7667 H   0  0  0  0  0  0  0  0  0  0  0  0
   10.6923    1.3050   -2.8634 H   0  0  0  0  0  0  0  0  0  0  0  0
   12.0212    1.2096   -4.7679 H   0  0  0  0  0  0  0  0  0  0  0  0
   11.2710    1.7666   -6.2587 H   0  0  0  0  0  0  0  0  0  0  0  0
   11.4660    0.0125   -5.9437 H   0  0  0  0  0  0  0  0  0  0  0  0
    6.5376    0.7216   -5.5129 H   0  0  0  0  0  0  0  0  0  0  0  0
    6.9694    5.4528   -1.4209 H   0  0  0  0  0  0  0  0  0  0  0  0
    3.1500    4.5071    0.8981 H   0  0  0  0  0  0  0  0  0  0  0  0
    1.4302    0.8201    2.0139 H   0  0  0  0  0  0  0  0  0  0  0  0
    0.1902    1.2111    0.7543 H   0  0  0  0  0  0  0  0  0  0  0  0
   -1.0467    2.5027    2.4821 H   0  0  0  0  0  0  0  0  0  0  0  0
    0.1168    2.0028    3.7034 H   0  0  0  0  0  0  0  0  0  0  0  0
    0.2138   -0.4078    4.2617 H   0  0  0  0  0  0  0  0  0  0  0  0
    0.5597   -0.7672    2.5699 H   0  0  0  0  0  0  0  0  0  0  0  0
   -1.4147   -2.1576    2.3335 H   0  0  0  0  0  0  0  0  0  0  0  0
   -1.8063   -1.9154    4.0530 H   0  0  0  0  0  0  0  0  0  0  0  0
   -0.9177   -4.4950    2.6631 H   0  0  0  0  0  0  0  0  0  0  0  0
   -1.3620   -4.3284    4.3808 H   0  0  0  0  0  0  0  0  0  0  0  0
    0.9839   -4.9366    5.0427 H   0  0  0  0  0  0  0  0  0  0  0  0
    1.4281   -5.0975    3.3502 H   0  0  0  0  0  0  0  0  0  0  0  0
   -0.1382   -6.9546    4.9989 H   0  0  0  0  0  0  0  0  0  0  0  0
   -1.1115   -9.0094    2.5058 H   0  0  0  0  0  0  0  0  0  0  0  0
   -0.6488   -8.9558    4.2178 H   0  0  0  0  0  0  0  0  0  0  0  0
    1.2100   -9.4748    0.8435 H   0  0  0  0  0  0  0  0  0  0  0  0
  1  2  1  0  0  0  0
  1 43  1  0  0  0  0
  1 44  1  0  0  0  0
  1 45  1  0  0  0  0
  2  3  1  0  0  0  0
  3  4  1  0  0  0  0
  3 21  2  0  0  0  0
  4  5  2  0  0  0  0
  4 46  1  0  0  0  0
  5  6  1  0  0  0  0
  5 19  1  0  0  0  0
  6  7  1  0  0  0  0
  6 16  2  0  0  0  0
  7  8  1  0  0  0  0
  7 47  1  0  0  0  0
  8  9  1  0  0  0  0
  8 15  2  0  0  0  0
  9 10  2  0  0  0  0
  9 48  1  0  0  0  0
 10 11  1  0  0  0  0
 10 49  1  0  0  0  0
 11 12  1  0  0  0  0
 11 13  2  0  0  0  0
 12 50  1  0  0  0  0
 12 51  1  0  0  0  0
 12 52  1  0  0  0  0
 13 14  1  0  0  0  0
 13 15  1  0  0  0  0
 15 53  1  0  0  0  0
 16 17  1  0  0  0  0
 17 18  2  0  0  0  0
 17 54  1  0  0  0  0
 18 19  1  0  0  0  0
 19 20  2  0  0  0  0
 20 21  1  0  0  0  0
 20 55  1  0  0  0  0
 21 22  1  0  0  0  0
 22 23  1  0  0  0  0
 23 24  1  0  0  0  0
 23 56  1  0  0  0  0
 23 57  1  0  0  0  0
 24 25  1  0  0  0  0
 24 58  1  0  0  0  0
 24 59  1  0  0  0  0
 25 26  1  0  0  0  0
 26 27  1  0  0  0  0
 26 60  1  0  0  0  0
 26 61  1  0  0  0  0
 27 28  1  0  0  0  0
 27 62  1  0  0  0  0
 27 63  1  0  0  0  0
 28 29  1  0  0  0  0
 29 30  1  0  0  0  0
 29 64  1  0  0  0  0
 29 65  1  0  0  0  0
 30 31  1  0  0  0  0
 30 66  1  0  0  0  0
 30 67  1  0  0  0  0
 31 32  1  0  0  0  0
 31 68  1  0  0  0  0
 32 33  2  0  0  0  0
 32 34  1  0  0  0  0
 34 35  1  0  0  0  0
 34 69  1  0  0  0  0
 34 70  1  0  0  0  0
 35 36  1  0  0  0  0
 35 42  1  0  0  0  0
 36 37  2  0  0  0  0
 36 71  1  0  0  0  0
 37 38  1  0  0  0  0
 38 39  1  0  0  0  0
 38 42  2  0  0  0  0
 39 40  2  0  0  0  0
 39 41  1  0  0  0  0
M  CHG  2  39   1  41  -1
M  END
$$$$
