CHEMBL68082
 OpenBabel04072215383D

 55 59  0  0  0  0  0  0  0  0999 V2000
    2.9569   -0.2685    1.2456 N   0  0  0  0  0  0  0  0  0  0  0  0
    2.2373   -0.0775   -0.0077 C   0  0  0  0  0  0  0  0  0  0  0  0
    2.7775   -1.0003   -1.0619 C   0  0  0  0  0  0  0  0  0  0  0  0
    3.4614   -0.7477   -2.2609 C   0  0  0  0  0  0  0  0  0  0  0  0
    3.8496    0.5899   -2.7281 C   0  0  0  0  0  0  0  0  0  0  0  0
    4.2624    1.5905   -1.8441 C   0  0  0  0  0  0  0  0  0  0  0  0
    4.6822    2.8348   -2.3113 C   0  0  0  0  0  0  0  0  0  0  0  0
    4.9014    3.0270   -3.6728 C   0  0  0  0  0  0  0  0  0  0  0  0
    5.5133    4.1375   -4.2112 O   0  0  0  0  0  0  0  0  0  0  0  0
    6.4572    4.8136   -3.4707 C   0  0  0  0  0  0  0  0  0  0  0  0
    7.2992    4.2215   -2.5405 C   0  0  0  0  0  0  0  0  0  0  0  0
    8.1600    5.0071   -1.7611 C   0  0  0  0  0  0  0  0  0  0  0  0
    8.2232    6.3757   -1.9829 C   0  0  0  0  0  0  0  0  0  0  0  0
    7.4369    6.9663   -2.9853 C   0  0  0  0  0  0  0  0  0  0  0  0
    6.5517    6.1822   -3.7215 C   0  0  0  0  0  0  0  0  0  0  0  0
    4.4669    2.0609   -4.5715 C   0  0  0  0  0  0  0  0  0  0  0  0
    3.8685    0.8906   -4.0961 C   0  0  0  0  0  0  0  0  0  0  0  0
    3.6648   -2.0199   -2.9231 C   0  0  0  0  0  0  0  0  0  0  0  0
    4.2486   -2.5003   -4.1213 C   0  0  0  0  0  0  0  0  0  0  0  0
    4.9170   -1.7420   -5.0631 N   0  0  0  0  0  0  0  0  0  0  0  0
    4.1309   -3.8065   -4.4319 N   0  0  0  0  0  0  0  0  0  0  0  0
    3.5001   -4.6155   -3.5701 C   0  0  0  0  0  0  0  0  0  0  0  0
    2.9625   -4.2947   -2.3899 N   0  0  0  0  0  0  0  0  0  0  0  0
    3.0662   -2.9823   -2.1182 C   0  0  0  0  0  0  0  0  0  0  0  0
    2.5922   -2.3770   -0.9771 N   0  0  0  0  0  0  0  0  0  0  0  0
    1.9934   -3.0813    0.1448 C   0  0  0  0  0  0  0  0  0  0  0  0
    2.8910   -4.1106    0.8347 C   0  0  0  0  0  0  0  0  0  0  0  0
    1.9259   -4.9586    1.6618 C   0  0  0  0  0  0  0  0  0  0  0  0
    0.5240   -4.7001    1.1034 C   0  0  0  0  0  0  0  0  0  0  0  0
    0.7146   -3.8591   -0.1544 C   0  0  0  0  0  0  0  0  0  0  0  0
    2.6581    0.4340    1.9190 H   0  0  0  0  0  0  0  0  0  0  0  0
    3.9548   -0.1350    1.0973 H   0  0  0  0  0  0  0  0  0  0  0  0
    2.2921    0.9712   -0.2998 H   0  0  0  0  0  0  0  0  0  0  0  0
    1.1699   -0.2722    0.1436 H   0  0  0  0  0  0  0  0  0  0  0  0
    4.2908    1.4289   -0.7724 H   0  0  0  0  0  0  0  0  0  0  0  0
    4.9074    3.6148   -1.5890 H   0  0  0  0  0  0  0  0  0  0  0  0
    7.2962    3.1458   -2.3618 H   0  0  0  0  0  0  0  0  0  0  0  0
    8.7656    4.5488   -0.9853 H   0  0  0  0  0  0  0  0  0  0  0  0
    8.8932    6.9946   -1.3904 H   0  0  0  0  0  0  0  0  0  0  0  0
    7.5091    8.0317   -3.1659 H   0  0  0  0  0  0  0  0  0  0  0  0
    5.9301    6.6372   -4.4871 H   0  0  0  0  0  0  0  0  0  0  0  0
    4.6041    2.2028   -5.6405 H   0  0  0  0  0  0  0  0  0  0  0  0
    3.4671    0.1907   -4.8247 H   0  0  0  0  0  0  0  0  0  0  0  0
    5.3950   -0.9014   -4.7753 H   0  0  0  0  0  0  0  0  0  0  0  0
    5.2764   -2.2662   -5.8491 H   0  0  0  0  0  0  0  0  0  0  0  0
    3.4198   -5.6556   -3.8676 H   0  0  0  0  0  0  0  0  0  0  0  0
    1.7201   -2.3463    0.9050 H   0  0  0  0  0  0  0  0  0  0  0  0
    3.6539   -3.6350    1.4604 H   0  0  0  0  0  0  0  0  0  0  0  0
    3.4168   -4.7516    0.1198 H   0  0  0  0  0  0  0  0  0  0  0  0
    1.9677   -4.6721    2.7192 H   0  0  0  0  0  0  0  0  0  0  0  0
    2.1911   -6.0190    1.6014 H   0  0  0  0  0  0  0  0  0  0  0  0
   -0.0650   -4.1411    1.8407 H   0  0  0  0  0  0  0  0  0  0  0  0
   -0.0116   -5.6298    0.8918 H   0  0  0  0  0  0  0  0  0  0  0  0
   -0.1364   -3.1936   -0.3334 H   0  0  0  0  0  0  0  0  0  0  0  0
    0.8146   -4.5121   -1.0263 H   0  0  0  0  0  0  0  0  0  0  0  0
  1  2  1  0  0  0  0
  1 31  1  0  0  0  0
  1 32  1  0  0  0  0
  2  3  1  0  0  0  0
  2 33  1  0  0  0  0
  2 34  1  0  0  0  0
  3  4  2  0  0  0  0
  3 25  1  0  0  0  0
  4  5  1  0  0  0  0
  4 18  1  0  0  0  0
  5  6  1  0  0  0  0
  5 17  2  0  0  0  0
  6  7  2  0  0  0  0
  6 35  1  0  0  0  0
  7  8  1  0  0  0  0
  7 36  1  0  0  0  0
  8  9  1  0  0  0  0
  8 16  2  0  0  0  0
  9 10  1  0  0  0  0
 10 11  1  0  0  0  0
 10 15  2  0  0  0  0
 11 12  2  0  0  0  0
 11 37  1  0  0  0  0
 12 13  1  0  0  0  0
 12 38  1  0  0  0  0
 13 14  2  0  0  0  0
 13 39  1  0  0  0  0
 14 15  1  0  0  0  0
 14 40  1  0  0  0  0
 15 41  1  0  0  0  0
 16 17  1  0  0  0  0
 16 42  1  0  0  0  0
 17 43  1  0  0  0  0
 18 19  1  0  0  0  0
 18 24  2  0  0  0  0
 19 20  1  0  0  0  0
 19 21  2  0  0  0  0
 20 44  1  0  0  0  0
 20 45  1  0  0  0  0
 21 22  1  0  0  0  0
 22 23  2  0  0  0  0
 22 46  1  0  0  0  0
 23 24  1  0  0  0  0
 24 25  1  0  0  0  0
 25 26  1  0  0  0  0
 26 27  1  0  0  0  0
 26 30  1  0  0  0  0
 26 47  1  0  0  0  0
 27 28  1  0  0  0  0
 27 48  1  0  0  0  0
 27 49  1  0  0  0  0
 28 29  1  0  0  0  0
 28 50  1  0  0  0  0
 28 51  1  0  0  0  0
 29 30  1  0  0  0  0
 29 52  1  0  0  0  0
 29 53  1  0  0  0  0
 30 54  1  0  0  0  0
 30 55  1  0  0  0  0
M  END
$$$$
