CHEMBL3648126
 OpenBabel04072215373D

 40 41  0  0  0  0  0  0  0  0999 V2000
    0.9225    0.2593   -2.4796 C   0  0  0  0  0  0  0  0  0  0  0  0
    2.2144    1.0479   -2.2287 C   0  0  0  0  0  0  0  0  0  0  0  0
    1.8434    2.3514   -1.5234 C   0  0  0  0  0  0  0  0  0  0  0  0
    3.1210    0.1942   -1.4417 N   0  0  0  0  0  0  0  0  0  0  0  0
    4.5091    0.3945   -1.6467 C   0  0  0  0  0  0  0  0  0  0  0  0
    4.9576    1.6269   -1.9712 N   0  0  0  0  0  0  0  0  0  0  0  0
    6.2863    1.8160   -2.0488 C   0  0  0  0  0  0  0  0  0  0  0  0
    6.7534    3.0605   -2.4719 N   0  0  0  0  0  0  0  0  0  0  0  0
    8.0309    3.6056   -2.2758 C   0  0  0  0  0  0  0  0  0  0  0  0
    8.6263    4.4200   -3.2430 C   0  0  0  0  0  0  0  0  0  0  0  0
    9.9544    4.8414   -3.1009 C   0  0  0  0  0  0  0  0  0  0  0  0
   10.7046    4.4456   -1.9864 C   0  0  0  0  0  0  0  0  0  0  0  0
   12.4244    4.8930   -1.8651 S   0  0  3  0  0  0  0  0  0  0  0  0
   12.5295    5.8638   -0.3946 C   0  0  0  0  0  0  0  0  0  0  0  0
   13.1956    3.5617   -1.6345 N   0  0  0  0  0  0  0  0  0  0  0  0
   12.7000    5.7995   -2.9623 O   0  0  0  0  0  0  0  0  0  0  0  0
   10.1244    3.6488   -1.0016 C   0  0  0  0  0  0  0  0  0  0  0  0
    8.8033    3.2319   -1.1610 C   0  0  0  0  0  0  0  0  0  0  0  0
    7.1907    0.8514   -1.8090 N   0  0  0  0  0  0  0  0  0  0  0  0
    6.7346   -0.3746   -1.5289 C   0  0  0  0  0  0  0  0  0  0  0  0
    5.3978   -0.6625   -1.4462 C   0  0  0  0  0  0  0  0  0  0  0  0
    4.8627   -2.4649   -1.2468 Br  0  0  0  0  0  0  0  0  0  0  0  0
    0.1871    0.8740   -3.0152 H   0  0  0  0  0  0  0  0  0  0  0  0
    0.4670   -0.0721   -1.5395 H   0  0  0  0  0  0  0  0  0  0  0  0
    1.1221   -0.6289   -3.0854 H   0  0  0  0  0  0  0  0  0  0  0  0
    2.6562    1.2730   -3.2063 H   0  0  0  0  0  0  0  0  0  0  0  0
    1.5168    2.1863   -0.4906 H   0  0  0  0  0  0  0  0  0  0  0  0
    1.0153    2.8416   -2.0534 H   0  0  0  0  0  0  0  0  0  0  0  0
    2.6734    3.0628   -1.5115 H   0  0  0  0  0  0  0  0  0  0  0  0
    2.9308   -0.7936   -1.6066 H   0  0  0  0  0  0  0  0  0  0  0  0
    6.0634    3.5857   -2.9791 H   0  0  0  0  0  0  0  0  0  0  0  0
    8.0837    4.6933   -4.1421 H   0  0  0  0  0  0  0  0  0  0  0  0
   10.4085    5.4495   -3.8816 H   0  0  0  0  0  0  0  0  0  0  0  0
   12.2180    5.2686    0.4665 H   0  0  0  0  0  0  0  0  0  0  0  0
   11.8943    6.7474   -0.5005 H   0  0  0  0  0  0  0  0  0  0  0  0
   13.5665    6.1794   -0.2721 H   0  0  0  0  0  0  0  0  0  0  0  0
   13.0186    3.1537   -0.7173 H   0  0  0  0  0  0  0  0  0  0  0  0
   10.6760    3.3070   -0.1355 H   0  0  0  0  0  0  0  0  0  0  0  0
    8.3743    2.5804   -0.3993 H   0  0  0  0  0  0  0  0  0  0  0  0
    7.5039   -1.1265   -1.4059 H   0  0  0  0  0  0  0  0  0  0  0  0
  1  2  1  0  0  0  0
  1 23  1  0  0  0  0
  1 24  1  0  0  0  0
  1 25  1  0  0  0  0
  2  3  1  0  0  0  0
  2  4  1  0  0  0  0
  2 26  1  0  0  0  0
  3 27  1  0  0  0  0
  3 28  1  0  0  0  0
  3 29  1  0  0  0  0
  4  5  1  0  0  0  0
  4 30  1  0  0  0  0
  5  6  1  0  0  0  0
  5 21  2  0  0  0  0
  6  7  2  0  0  0  0
  7  8  1  0  0  0  0
  7 19  1  0  0  0  0
  8  9  1  0  0  0  0
  8 31  1  0  0  0  0
  9 10  1  0  0  0  0
  9 18  2  0  0  0  0
 10 11  2  0  0  0  0
 10 32  1  0  0  0  0
 11 12  1  0  0  0  0
 11 33  1  0  0  0  0
 12 13  1  0  0  0  0
 12 17  2  0  0  0  0
 13 14  1  0  0  0  0
 13 15  2  0  0  0  0
 13 16  2  0  0  0  0
 14 34  1  0  0  0  0
 14 35  1  0  0  0  0
 14 36  1  0  0  0  0
 15 37  1  0  0  0  0
 17 18  1  0  0  0  0
 17 38  1  0  0  0  0
 18 39  1  0  0  0  0
 19 20  2  0  0  0  0
 20 21  1  0  0  0  0
 20 40  1  0  0  0  0
 21 22  1  0  0  0  0
M  END
$$$$
