CHEMBL4435366
 OpenBabel04072215383D

 62 66  0  0  0  0  0  0  0  0999 V2000
    0.8887    1.8689   -1.1677 C   0  0  0  0  0  0  0  0  0  0  0  0
    2.1945    2.0556   -0.3984 C   0  0  0  0  0  0  0  0  0  0  0  0
    1.9300    2.0169    1.1040 C   0  0  0  0  0  0  0  0  0  0  0  0
    3.0843    0.9882   -0.7657 O   0  0  0  0  0  0  0  0  0  0  0  0
    4.4341    1.2365   -0.8278 C   0  0  0  0  0  0  0  0  0  0  0  0
    5.0313    2.4198   -0.3858 C   0  0  0  0  0  0  0  0  0  0  0  0
    6.3844    2.6674   -0.5228 C   0  0  0  0  0  0  0  0  0  0  0  0
    6.8294    3.8617   -0.1067 N   0  0  0  0  0  0  0  0  0  0  0  0
    8.1203    4.1276   -0.2918 C   0  0  0  0  0  0  0  0  0  0  0  0
    9.0117    3.3109   -0.8484 N   0  0  0  0  0  0  0  0  0  0  0  0
    8.5502    2.0902   -1.2033 C   0  0  0  0  0  0  0  0  0  0  0  0
    9.4468    1.2095   -1.8028 O   0  0  0  0  0  0  0  0  0  0  0  0
   10.7563    1.2004   -1.3856 C   0  0  0  0  0  0  0  0  0  0  0  0
   11.1681    1.5596   -0.1094 C   0  0  0  0  0  0  0  0  0  0  0  0
   12.5220    1.5541    0.2146 C   0  0  0  0  0  0  0  0  0  0  0  0
   13.4923    1.1348   -0.7002 C   0  0  0  0  0  0  0  0  0  0  0  0
   14.8789    1.1382   -0.4085 N   0  0  0  0  0  0  0  0  0  0  0  0
   15.4201    1.4600    0.8183 C   0  0  0  0  0  0  0  0  0  0  0  0
   14.7741    1.7118    1.8283 O   0  0  0  0  0  0  0  0  0  0  0  0
   16.8101    1.5086    0.8064 N   0  0  0  0  0  0  0  0  0  0  0  0
   17.4392    1.8765    2.0277 C   0  0  0  0  0  0  0  0  0  0  0  0
   17.0936    1.2355    3.2257 C   0  0  0  0  0  0  0  0  0  0  0  0
   17.4991    1.7566    4.4611 C   0  0  0  0  0  0  0  0  0  0  0  0
   17.0513    1.1106    5.7502 C   0  0  0  0  0  0  0  0  0  0  0  0
   16.3156   -0.0217    5.5740 F   0  0  0  0  0  0  0  0  0  0  0  0
   18.1059    0.7464    6.5331 F   0  0  0  0  0  0  0  0  0  0  0  0
   16.2891    1.9389    6.5158 F   0  0  0  0  0  0  0  0  0  0  0  0
   18.2888    2.9189    4.4756 C   0  0  0  0  0  0  0  0  0  0  0  0
   18.6952    3.5182    3.2779 C   0  0  0  0  0  0  0  0  0  0  0  0
   18.2851    2.9825    2.0609 C   0  0  0  0  0  0  0  0  0  0  0  0
   18.6222    3.6007    0.9190 F   0  0  0  0  0  0  0  0  0  0  0  0
   13.0695    0.7075   -1.9628 C   0  0  0  0  0  0  0  0  0  0  0  0
   11.7069    0.7394   -2.3003 C   0  0  0  0  0  0  0  0  0  0  0  0
    7.2102    1.6921   -1.0878 C   0  0  0  0  0  0  0  0  0  0  0  0
    6.6400    0.4484   -1.4780 C   0  0  0  0  0  0  0  0  0  0  0  0
    5.2584    0.2276   -1.3490 C   0  0  0  0  0  0  0  0  0  0  0  0
    4.6715   -0.9562   -1.7336 O   0  0  0  0  0  0  0  0  0  0  0  0
    5.6191   -2.0264   -1.7882 C   0  0  0  0  0  0  0  0  0  0  0  0
    6.8420   -1.6128   -2.5808 C   0  0  0  0  0  0  0  0  0  0  0  0
    7.4991   -0.5125   -1.9562 O   0  0  0  0  0  0  0  0  0  0  0  0
    0.1505    2.6256   -0.8789 H   0  0  0  0  0  0  0  0  0  0  0  0
    0.4640    0.8749   -0.9962 H   0  0  0  0  0  0  0  0  0  0  0  0
    1.0698    1.9616   -2.2442 H   0  0  0  0  0  0  0  0  0  0  0  0
    2.5743    3.0367   -0.6989 H   0  0  0  0  0  0  0  0  0  0  0  0
    1.6835    1.0027    1.4377 H   0  0  0  0  0  0  0  0  0  0  0  0
    1.1110    2.6879    1.3848 H   0  0  0  0  0  0  0  0  0  0  0  0
    2.8185    2.3238    1.6667 H   0  0  0  0  0  0  0  0  0  0  0  0
    4.4485    3.2040    0.0872 H   0  0  0  0  0  0  0  0  0  0  0  0
    8.4761    5.0965    0.0414 H   0  0  0  0  0  0  0  0  0  0  0  0
   10.4622    1.8771    0.6521 H   0  0  0  0  0  0  0  0  0  0  0  0
   12.7649    1.9036    1.2112 H   0  0  0  0  0  0  0  0  0  0  0  0
   15.5087    0.7889   -1.1150 H   0  0  0  0  0  0  0  0  0  0  0  0
   17.1912    1.9557   -0.0183 H   0  0  0  0  0  0  0  0  0  0  0  0
   16.4383    0.3641    3.1997 H   0  0  0  0  0  0  0  0  0  0  0  0
   18.5735    3.3697    5.4252 H   0  0  0  0  0  0  0  0  0  0  0  0
   19.2904    4.4260    3.2901 H   0  0  0  0  0  0  0  0  0  0  0  0
   13.7818    0.3548   -2.7029 H   0  0  0  0  0  0  0  0  0  0  0  0
   11.3864    0.4106   -3.2855 H   0  0  0  0  0  0  0  0  0  0  0  0
    5.1361   -2.8835   -2.2676 H   0  0  0  0  0  0  0  0  0  0  0  0
    5.8840   -2.3133   -0.7631 H   0  0  0  0  0  0  0  0  0  0  0  0
    6.5866   -1.3263   -3.6062 H   0  0  0  0  0  0  0  0  0  0  0  0
    7.5604   -2.4397   -2.6287 H   0  0  0  0  0  0  0  0  0  0  0  0
  1  2  1  0  0  0  0
  1 41  1  0  0  0  0
  1 42  1  0  0  0  0
  1 43  1  0  0  0  0
  2  3  1  0  0  0  0
  2  4  1  0  0  0  0
  2 44  1  0  0  0  0
  3 45  1  0  0  0  0
  3 46  1  0  0  0  0
  3 47  1  0  0  0  0
  4  5  1  0  0  0  0
  5  6  1  0  0  0  0
  5 36  2  0  0  0  0
  6  7  2  0  0  0  0
  6 48  1  0  0  0  0
  7  8  1  0  0  0  0
  7 34  1  0  0  0  0
  8  9  2  0  0  0  0
  9 10  1  0  0  0  0
  9 49  1  0  0  0  0
 10 11  2  0  0  0  0
 11 12  1  0  0  0  0
 11 34  1  0  0  0  0
 12 13  1  0  0  0  0
 13 14  1  0  0  0  0
 13 33  2  0  0  0  0
 14 15  2  0  0  0  0
 14 50  1  0  0  0  0
 15 16  1  0  0  0  0
 15 51  1  0  0  0  0
 16 17  1  0  0  0  0
 16 32  2  0  0  0  0
 17 18  1  0  0  0  0
 17 52  1  0  0  0  0
 18 19  2  0  0  0  0
 18 20  1  0  0  0  0
 20 21  1  0  0  0  0
 20 53  1  0  0  0  0
 21 22  1  0  0  0  0
 21 30  2  0  0  0  0
 22 23  2  0  0  0  0
 22 54  1  0  0  0  0
 23 24  1  0  0  0  0
 23 28  1  0  0  0  0
 24 25  1  0  0  0  0
 24 26  1  0  0  0  0
 24 27  1  0  0  0  0
 28 29  2  0  0  0  0
 28 55  1  0  0  0  0
 29 30  1  0  0  0  0
 29 56  1  0  0  0  0
 30 31  1  0  0  0  0
 32 33  1  0  0  0  0
 32 57  1  0  0  0  0
 33 58  1  0  0  0  0
 34 35  2  0  0  0  0
 35 36  1  0  0  0  0
 35 40  1  0  0  0  0
 36 37  1  0  0  0  0
 37 38  1  0  0  0  0
 38 39  1  0  0  0  0
 38 59  1  0  0  0  0
 38 60  1  0  0  0  0
 39 40  1  0  0  0  0
 39 61  1  0  0  0  0
 39 62  1  0  0  0  0
M  END
$$$$
