CHEMBL3656030
 OpenBabel04072215373D

 51 54  0  0  0  0  0  0  0  0999 V2000
   10.0874   -5.7921    9.0748 C   0  0  0  0  0  0  0  0  0  0  0  0
    9.9550   -4.8169    8.0412 O   0  0  0  0  0  0  0  0  0  0  0  0
   10.0519   -5.3480    6.7886 C   0  0  0  0  0  0  0  0  0  0  0  0
   10.2528   -6.5352    6.5563 O   0  0  0  0  0  0  0  0  0  0  0  0
    9.8776   -4.3650    5.7291 C   0  0  0  0  0  0  0  0  0  0  0  0
    9.7082   -2.9942    5.8318 C   0  0  0  0  0  0  0  0  0  0  0  0
    9.5743   -2.4768    4.5662 N   0  0  0  0  0  0  0  0  0  0  0  0
    9.6410   -3.4840    3.6298 C   0  0  0  0  0  0  0  0  0  0  0  0
    9.4985   -3.2502    2.2003 C   0  0  0  0  0  0  0  0  0  0  0  0
    9.5308   -4.3017    1.2929 C   0  0  0  0  0  0  0  0  0  0  0  0
    9.3446   -4.0357   -0.0584 C   0  0  0  0  0  0  0  0  0  0  0  0
    9.3882   -5.1114   -0.9715 N   0  0  0  0  0  0  0  0  0  0  0  0
    8.7074   -5.1984   -2.2040 C   0  0  0  0  0  0  0  0  0  0  0  0
    9.3025   -5.8571   -3.2828 C   0  0  0  0  0  0  0  0  0  0  0  0
    8.6514   -5.9192   -4.5128 C   0  0  0  0  0  0  0  0  0  0  0  0
    7.3764   -5.3703   -4.6612 C   0  0  0  0  0  0  0  0  0  0  0  0
    6.7273   -4.7836   -3.5754 C   0  0  0  0  0  0  0  0  0  0  0  0
    5.4107   -4.2857   -3.6270 N   0  0  0  0  0  0  0  0  0  0  0  0
    4.4733   -4.4993   -4.6241 C   0  0  0  0  0  0  0  0  0  0  0  0
    4.6638   -5.1639   -5.6382 O   0  0  0  0  0  0  0  0  0  0  0  0
    3.1876   -3.8804   -4.3412 C   0  0  0  0  0  0  0  0  0  0  0  0
    3.0578   -3.0806   -3.2338 O   0  0  0  0  0  0  0  0  0  0  0  0
    1.7787   -2.6298   -3.2135 C   0  0  0  0  0  0  0  0  0  0  0  0
    1.0739   -3.1277   -4.2814 C   0  0  0  0  0  0  0  0  0  0  0  0
    1.9754   -3.9469   -5.0158 C   0  0  0  0  0  0  0  0  0  0  0  0
    1.6823   -4.7239   -6.2470 C   0  0  0  0  0  0  0  0  0  0  0  0
    7.4078   -4.6874   -2.3570 C   0  0  0  0  0  0  0  0  0  0  0  0
    9.1856   -2.7104   -0.4558 C   0  0  0  0  0  0  0  0  0  0  0  0
    9.1733   -1.7218    0.5156 C   0  0  0  0  0  0  0  0  0  0  0  0
    9.3200   -1.9586    1.8383 N   0  0  0  0  0  0  0  0  0  0  0  0
    9.8411   -4.6570    4.3368 C   0  0  0  0  0  0  0  0  0  0  0  0
    9.8208   -5.3213   10.0242 H   0  0  0  0  0  0  0  0  0  0  0  0
   11.1244   -6.1372    9.1327 H   0  0  0  0  0  0  0  0  0  0  0  0
    9.4094   -6.6373    8.9121 H   0  0  0  0  0  0  0  0  0  0  0  0
    9.6713   -2.3468    6.6954 H   0  0  0  0  0  0  0  0  0  0  0  0
    9.4349   -1.5027    4.3246 H   0  0  0  0  0  0  0  0  0  0  0  0
    9.6625   -5.3245    1.6261 H   0  0  0  0  0  0  0  0  0  0  0  0
   10.3244   -5.5081   -1.0110 H   0  0  0  0  0  0  0  0  0  0  0  0
   10.2844   -6.3117   -3.1840 H   0  0  0  0  0  0  0  0  0  0  0  0
    9.1326   -6.3985   -5.3613 H   0  0  0  0  0  0  0  0  0  0  0  0
    6.9159   -5.4182   -5.6428 H   0  0  0  0  0  0  0  0  0  0  0  0
    5.0591   -3.8005   -2.8079 H   0  0  0  0  0  0  0  0  0  0  0  0
    1.5255   -1.9755   -2.3914 H   0  0  0  0  0  0  0  0  0  0  0  0
    0.0345   -2.9303   -4.5067 H   0  0  0  0  0  0  0  0  0  0  0  0
    0.6405   -4.5941   -6.5569 H   0  0  0  0  0  0  0  0  0  0  0  0
    1.8509   -5.7922   -6.0753 H   0  0  0  0  0  0  0  0  0  0  0  0
    2.3232   -4.3984   -7.0725 H   0  0  0  0  0  0  0  0  0  0  0  0
    6.9136   -4.2452   -1.4952 H   0  0  0  0  0  0  0  0  0  0  0  0
    9.0825   -2.4443   -1.5020 H   0  0  0  0  0  0  0  0  0  0  0  0
    9.0416   -0.6793    0.2395 H   0  0  0  0  0  0  0  0  0  0  0  0
    9.9409   -5.6477    3.9135 H   0  0  0  0  0  0  0  0  0  0  0  0
  1  2  1  0  0  0  0
  1 32  1  0  0  0  0
  1 33  1  0  0  0  0
  1 34  1  0  0  0  0
  2  3  1  0  0  0  0
  3  4  2  0  0  0  0
  3  5  1  0  0  0  0
  5  6  2  0  0  0  0
  5 31  1  0  0  0  0
  6  7  1  0  0  0  0
  6 35  1  0  0  0  0
  7  8  1  0  0  0  0
  7 36  1  0  0  0  0
  8  9  1  0  0  0  0
  8 31  2  0  0  0  0
  9 10  1  0  0  0  0
  9 30  2  0  0  0  0
 10 11  2  0  0  0  0
 10 37  1  0  0  0  0
 11 12  1  0  0  0  0
 11 28  1  0  0  0  0
 12 13  1  0  0  0  0
 12 38  1  0  0  0  0
 13 14  1  0  0  0  0
 13 27  2  0  0  0  0
 14 15  2  0  0  0  0
 14 39  1  0  0  0  0
 15 16  1  0  0  0  0
 15 40  1  0  0  0  0
 16 17  2  0  0  0  0
 16 41  1  0  0  0  0
 17 18  1  0  0  0  0
 17 27  1  0  0  0  0
 18 19  1  0  0  0  0
 18 42  1  0  0  0  0
 19 20  2  0  0  0  0
 19 21  1  0  0  0  0
 21 22  1  0  0  0  0
 21 25  2  0  0  0  0
 22 23  1  0  0  0  0
 23 24  2  0  0  0  0
 23 43  1  0  0  0  0
 24 25  1  0  0  0  0
 24 44  1  0  0  0  0
 25 26  1  0  0  0  0
 26 45  1  0  0  0  0
 26 46  1  0  0  0  0
 26 47  1  0  0  0  0
 27 48  1  0  0  0  0
 28 29  2  0  0  0  0
 28 49  1  0  0  0  0
 29 30  1  0  0  0  0
 29 50  1  0  0  0  0
 31 51  1  0  0  0  0
M  END
$$$$
