CHEMBL3656109
 OpenBabel04072215373D

 55 58  0  0  0  0  0  0  0  0999 V2000
   -0.0455   -1.9376    1.0329 C   0  0  0  0  0  0  0  0  0  0  0  0
    1.1587   -2.1876    1.7540 O   0  0  0  0  0  0  0  0  0  0  0  0
    2.1144   -2.8159    1.0051 C   0  0  0  0  0  0  0  0  0  0  0  0
    1.9538   -3.1634   -0.1588 O   0  0  0  0  0  0  0  0  0  0  0  0
    3.3574   -3.0363    1.7290 C   0  0  0  0  0  0  0  0  0  0  0  0
    3.6510   -2.7760    3.0566 C   0  0  0  0  0  0  0  0  0  0  0  0
    4.9544   -3.1456    3.2900 N   0  0  0  0  0  0  0  0  0  0  0  0
    5.5229   -3.6382    2.1382 C   0  0  0  0  0  0  0  0  0  0  0  0
    6.9081   -4.0977    2.0732 C   0  0  0  0  0  0  0  0  0  0  0  0
    7.4520   -4.5730    0.8848 C   0  0  0  0  0  0  0  0  0  0  0  0
    8.7697   -5.0176    0.8688 C   0  0  0  0  0  0  0  0  0  0  0  0
    9.5751   -5.6948   -0.5789 S   0  0  0  0  0  0  0  0  0  0  0  0
    8.3551   -5.6121   -1.8755 C   0  0  0  0  0  0  0  0  0  0  0  0
    8.2332   -4.4582   -2.6457 C   0  0  0  0  0  0  0  0  0  0  0  0
    7.2806   -4.3854   -3.6687 C   0  0  0  0  0  0  0  0  0  0  0  0
    6.4377   -5.4626   -3.9604 C   0  0  0  0  0  0  0  0  0  0  0  0
    5.4440   -5.4184   -4.9724 N   0  0  0  0  0  0  0  0  0  0  0  0
    5.2480   -4.3816   -5.8699 C   0  0  0  0  0  0  0  0  0  0  0  0
    5.9884   -3.4124   -5.9897 O   0  0  0  0  0  0  0  0  0  0  0  0
    4.0858   -4.5379   -6.6170 N   0  0  0  0  0  0  0  0  0  0  0  0
    3.7132   -3.5121   -7.5290 C   0  0  0  0  0  0  0  0  0  0  0  0
    4.6281   -2.9646   -8.4382 C   0  0  0  0  0  0  0  0  0  0  0  0
    4.2729   -1.8703   -9.2413 C   0  0  0  0  0  0  0  0  0  0  0  0
    5.2583   -1.2710  -10.2025 C   0  0  0  0  0  0  0  0  0  0  0  0
    2.9899   -1.3207   -9.1175 C   0  0  0  0  0  0  0  0  0  0  0  0
    2.0637   -1.8830   -8.2364 C   0  0  0  0  0  0  0  0  0  0  0  0
    2.4226   -2.9876   -7.4691 C   0  0  0  0  0  0  0  0  0  0  0  0
    1.5344   -3.5014   -6.6039 F   0  0  0  0  0  0  0  0  0  0  0  0
    6.5734   -6.6286   -3.1965 C   0  0  0  0  0  0  0  0  0  0  0  0
    7.5270   -6.7020   -2.1642 C   0  0  0  0  0  0  0  0  0  0  0  0
    9.4995   -4.9466    2.0572 C   0  0  0  0  0  0  0  0  0  0  0  0
    8.8798   -4.4518    3.1967 C   0  0  0  0  0  0  0  0  0  0  0  0
    7.5973   -4.0287    3.2349 N   0  0  0  0  0  0  0  0  0  0  0  0
    4.5419   -3.5894    1.1690 C   0  0  0  0  0  0  0  0  0  0  0  0
   -0.6974   -1.3207    1.6570 H   0  0  0  0  0  0  0  0  0  0  0  0
   -0.5586   -2.8810    0.8180 H   0  0  0  0  0  0  0  0  0  0  0  0
    0.1583   -1.3911    0.1063 H   0  0  0  0  0  0  0  0  0  0  0  0
    3.0462   -2.3582    3.8534 H   0  0  0  0  0  0  0  0  0  0  0  0
    5.4518   -3.0787    4.1750 H   0  0  0  0  0  0  0  0  0  0  0  0
    6.8432   -4.5896   -0.0090 H   0  0  0  0  0  0  0  0  0  0  0  0
    8.8686   -3.5946   -2.4649 H   0  0  0  0  0  0  0  0  0  0  0  0
    7.2314   -3.4517   -4.2185 H   0  0  0  0  0  0  0  0  0  0  0  0
    4.8924   -6.2530   -5.1169 H   0  0  0  0  0  0  0  0  0  0  0  0
    3.3133   -4.9398   -6.1004 H   0  0  0  0  0  0  0  0  0  0  0  0
    5.6331   -3.3768   -8.5063 H   0  0  0  0  0  0  0  0  0  0  0  0
    6.2061   -1.8198  -10.2033 H   0  0  0  0  0  0  0  0  0  0  0  0
    5.4712   -0.2322   -9.9306 H   0  0  0  0  0  0  0  0  0  0  0  0
    4.8557   -1.3013  -11.2203 H   0  0  0  0  0  0  0  0  0  0  0  0
    2.7119   -0.4460   -9.7021 H   0  0  0  0  0  0  0  0  0  0  0  0
    1.0752   -1.4495   -8.1258 H   0  0  0  0  0  0  0  0  0  0  0  0
    5.9498   -7.4974   -3.3880 H   0  0  0  0  0  0  0  0  0  0  0  0
    7.6148   -7.6194   -1.5865 H   0  0  0  0  0  0  0  0  0  0  0  0
   10.5341   -5.2715    2.1061 H   0  0  0  0  0  0  0  0  0  0  0  0
    9.4195   -4.3856    4.1381 H   0  0  0  0  0  0  0  0  0  0  0  0
    4.6471   -3.9071    0.1396 H   0  0  0  0  0  0  0  0  0  0  0  0
  1  2  1  0  0  0  0
  1 35  1  0  0  0  0
  1 36  1  0  0  0  0
  1 37  1  0  0  0  0
  2  3  1  0  0  0  0
  3  4  2  0  0  0  0
  3  5  1  0  0  0  0
  5  6  2  0  0  0  0
  5 34  1  0  0  0  0
  6  7  1  0  0  0  0
  6 38  1  0  0  0  0
  7  8  1  0  0  0  0
  7 39  1  0  0  0  0
  8  9  1  0  0  0  0
  8 34  2  0  0  0  0
  9 10  1  0  0  0  0
  9 33  2  0  0  0  0
 10 11  2  0  0  0  0
 10 40  1  0  0  0  0
 11 12  1  0  0  0  0
 11 31  1  0  0  0  0
 12 13  1  0  0  0  0
 13 14  1  0  0  0  0
 13 30  2  0  0  0  0
 14 15  2  0  0  0  0
 14 41  1  0  0  0  0
 15 16  1  0  0  0  0
 15 42  1  0  0  0  0
 16 17  1  0  0  0  0
 16 29  2  0  0  0  0
 17 18  1  0  0  0  0
 17 43  1  0  0  0  0
 18 19  2  0  0  0  0
 18 20  1  0  0  0  0
 20 21  1  0  0  0  0
 20 44  1  0  0  0  0
 21 22  1  0  0  0  0
 21 27  2  0  0  0  0
 22 23  2  0  0  0  0
 22 45  1  0  0  0  0
 23 24  1  0  0  0  0
 23 25  1  0  0  0  0
 24 46  1  0  0  0  0
 24 47  1  0  0  0  0
 24 48  1  0  0  0  0
 25 26  2  0  0  0  0
 25 49  1  0  0  0  0
 26 27  1  0  0  0  0
 26 50  1  0  0  0  0
 27 28  1  0  0  0  0
 29 30  1  0  0  0  0
 29 51  1  0  0  0  0
 30 52  1  0  0  0  0
 31 32  2  0  0  0  0
 31 53  1  0  0  0  0
 32 33  1  0  0  0  0
 32 54  1  0  0  0  0
 34 55  1  0  0  0  0
M  END
$$$$
