CHEMBL3896615
 OpenBabel04072215373D

 75 79  0  0  0  0  0  0  0  0999 V2000
    2.3702    0.2755    1.0960 C   0  0  0  0  0  0  0  0  0  0  0  0
    2.3634    0.1457   -0.3267 O   0  0  0  0  0  0  0  0  0  0  0  0
    3.0934   -0.8569   -0.8998 C   0  0  0  0  0  0  0  0  0  0  0  0
    4.1647   -1.4496   -0.2365 C   0  0  0  0  0  0  0  0  0  0  0  0
    4.8090   -2.5929   -0.7497 C   0  0  0  0  0  0  0  0  0  0  0  0
    5.7849   -3.3126   -0.0449 C   0  0  0  0  0  0  0  0  0  0  0  0
    6.1327   -2.9216    1.2798 N   0  0  0  0  0  0  0  0  0  0  0  0
    6.8031   -3.7315    2.2213 C   0  0  0  0  0  0  0  0  0  0  0  0
    7.7227   -3.1678    3.1026 C   0  0  0  0  0  0  0  0  0  0  0  0
    8.4670   -3.9781    3.9681 C   0  0  0  0  0  0  0  0  0  0  0  0
    8.2949   -5.3652    3.9981 C   0  0  0  0  0  0  0  0  0  0  0  0
    9.1108   -6.2401    4.7611 N   0  0  0  0  0  0  0  0  0  0  0  0
   10.1537   -5.8571    5.5837 C   0  0  0  0  0  0  0  0  0  0  0  0
   10.4680   -4.6980    5.8318 O   0  0  0  0  0  0  0  0  0  0  0  0
   10.8690   -6.9424    6.0870 N   0  0  0  0  0  0  0  0  0  0  0  0
   11.9818   -6.6942    6.9335 C   0  0  0  0  0  0  0  0  0  0  0  0
   11.8590   -5.8608    8.0538 C   0  0  0  0  0  0  0  0  0  0  0  0
   12.9721   -5.5556    8.8392 C   0  0  0  0  0  0  0  0  0  0  0  0
   14.2200   -6.0725    8.4996 C   0  0  0  0  0  0  0  0  0  0  0  0
   14.3399   -6.9100    7.3903 C   0  0  0  0  0  0  0  0  0  0  0  0
   15.8933   -7.5078    6.9475 Cl  0  0  0  0  0  0  0  0  0  0  0  0
   13.2241   -7.2455    6.6180 C   0  0  0  0  0  0  0  0  0  0  0  0
    7.2867   -5.9164    3.2050 C   0  0  0  0  0  0  0  0  0  0  0  0
    6.5426   -5.1021    2.3384 C   0  0  0  0  0  0  0  0  0  0  0  0
    6.3797   -4.4024   -0.5744 N   0  0  0  0  0  0  0  0  0  0  0  0
    5.9776   -4.7550   -1.8007 C   0  0  0  0  0  0  0  0  0  0  0  0
    5.0299   -4.1655   -2.5377 N   0  0  0  0  0  0  0  0  0  0  0  0
    4.4393   -3.0903   -2.0005 C   0  0  0  0  0  0  0  0  0  0  0  0
    3.4402   -2.4349   -2.7081 C   0  0  0  0  0  0  0  0  0  0  0  0
    2.7851   -1.3050   -2.1952 C   0  0  0  0  0  0  0  0  0  0  0  0
    1.8893   -0.7364   -3.0767 O   0  0  0  0  0  0  0  0  0  0  0  0
    1.7327    0.6709   -2.9107 C   0  0  0  0  0  0  0  0  0  0  0  0
    1.4134    1.3806   -4.2236 C   0  0  0  0  0  0  0  0  0  0  0  0
    1.3084    2.8832   -3.9137 C   0  0  0  0  0  0  0  0  0  0  0  0
    1.0565    3.7373   -5.0725 N   0  0  0  0  0  0  0  0  0  0  0  0
   -0.2248    3.4463   -5.7368 C   0  0  0  0  0  0  0  0  0  0  0  0
   -0.4106    4.3506   -6.9753 C   0  0  0  0  0  0  0  0  0  0  0  0
   -0.3592    5.8001   -6.7006 N   0  0  0  0  0  0  0  0  0  0  0  0
   -1.5812    6.2628   -6.0495 C   0  0  0  0  0  0  0  0  0  0  0  0
    0.8411    6.0993   -5.8925 C   0  0  0  0  0  0  0  0  0  0  0  0
    1.0695    5.1650   -4.6794 C   0  0  0  0  0  0  0  0  0  0  0  0
    2.8059    1.2449    1.3551 H   0  0  0  0  0  0  0  0  0  0  0  0
    2.8985   -0.5077    1.6461 H   0  0  0  0  0  0  0  0  0  0  0  0
    1.3369    0.2478    1.4508 H   0  0  0  0  0  0  0  0  0  0  0  0
    4.5264   -1.0373    0.6952 H   0  0  0  0  0  0  0  0  0  0  0  0
    6.4942   -1.9730    1.2665 H   0  0  0  0  0  0  0  0  0  0  0  0
    7.9168   -2.0986    3.1080 H   0  0  0  0  0  0  0  0  0  0  0  0
    9.1986   -3.4760    4.5909 H   0  0  0  0  0  0  0  0  0  0  0  0
    8.9026   -7.2267    4.7029 H   0  0  0  0  0  0  0  0  0  0  0  0
   10.9613   -7.7146    5.4430 H   0  0  0  0  0  0  0  0  0  0  0  0
   10.8945   -5.4290    8.3145 H   0  0  0  0  0  0  0  0  0  0  0  0
   12.8661   -4.8986    9.6989 H   0  0  0  0  0  0  0  0  0  0  0  0
   15.0919   -5.8096    9.0927 H   0  0  0  0  0  0  0  0  0  0  0  0
   13.3502   -7.8657    5.7366 H   0  0  0  0  0  0  0  0  0  0  0  0
    7.0717   -6.9805    3.2194 H   0  0  0  0  0  0  0  0  0  0  0  0
    5.7666   -5.5551    1.7256 H   0  0  0  0  0  0  0  0  0  0  0  0
    6.4750   -5.6153   -2.2388 H   0  0  0  0  0  0  0  0  0  0  0  0
    3.1619   -2.8074   -3.6930 H   0  0  0  0  0  0  0  0  0  0  0  0
    2.6548    1.1244   -2.5302 H   0  0  0  0  0  0  0  0  0  0  0  0
    0.9049    0.8393   -2.2131 H   0  0  0  0  0  0  0  0  0  0  0  0
    0.4862    0.9752   -4.6425 H   0  0  0  0  0  0  0  0  0  0  0  0
    2.2012    1.1874   -4.9633 H   0  0  0  0  0  0  0  0  0  0  0  0
    2.2685    3.1904   -3.4758 H   0  0  0  0  0  0  0  0  0  0  0  0
    0.5446    3.0444   -3.1419 H   0  0  0  0  0  0  0  0  0  0  0  0
   -1.0627    3.5752   -5.0386 H   0  0  0  0  0  0  0  0  0  0  0  0
   -0.2524    2.4100   -6.0865 H   0  0  0  0  0  0  0  0  0  0  0  0
   -1.3496    4.0939   -7.4791 H   0  0  0  0  0  0  0  0  0  0  0  0
    0.3842    4.1130   -7.6957 H   0  0  0  0  0  0  0  0  0  0  0  0
   -2.4541    6.0304   -6.6707 H   0  0  0  0  0  0  0  0  0  0  0  0
   -1.5614    7.3521   -5.9396 H   0  0  0  0  0  0  0  0  0  0  0  0
   -1.7420    5.8227   -5.0605 H   0  0  0  0  0  0  0  0  0  0  0  0
    0.8207    7.1431   -5.5554 H   0  0  0  0  0  0  0  0  0  0  0  0
    1.7158    6.0200   -6.5517 H   0  0  0  0  0  0  0  0  0  0  0  0
    0.3038    5.3603   -3.9160 H   0  0  0  0  0  0  0  0  0  0  0  0
    2.0383    5.4192   -4.2314 H   0  0  0  0  0  0  0  0  0  0  0  0
  1  2  1  0  0  0  0
  1 42  1  0  0  0  0
  1 43  1  0  0  0  0
  1 44  1  0  0  0  0
  2  3  1  0  0  0  0
  3  4  1  0  0  0  0
  3 30  2  0  0  0  0
  4  5  2  0  0  0  0
  4 45  1  0  0  0  0
  5  6  1  0  0  0  0
  5 28  1  0  0  0  0
  6  7  1  0  0  0  0
  6 25  2  0  0  0  0
  7  8  1  0  0  0  0
  7 46  1  0  0  0  0
  8  9  1  0  0  0  0
  8 24  2  0  0  0  0
  9 10  2  0  0  0  0
  9 47  1  0  0  0  0
 10 11  1  0  0  0  0
 10 48  1  0  0  0  0
 11 12  1  0  0  0  0
 11 23  2  0  0  0  0
 12 13  1  0  0  0  0
 12 49  1  0  0  0  0
 13 14  2  0  0  0  0
 13 15  1  0  0  0  0
 15 16  1  0  0  0  0
 15 50  1  0  0  0  0
 16 17  1  0  0  0  0
 16 22  2  0  0  0  0
 17 18  2  0  0  0  0
 17 51  1  0  0  0  0
 18 19  1  0  0  0  0
 18 52  1  0  0  0  0
 19 20  2  0  0  0  0
 19 53  1  0  0  0  0
 20 21  1  0  0  0  0
 20 22  1  0  0  0  0
 22 54  1  0  0  0  0
 23 24  1  0  0  0  0
 23 55  1  0  0  0  0
 24 56  1  0  0  0  0
 25 26  1  0  0  0  0
 26 27  2  0  0  0  0
 26 57  1  0  0  0  0
 27 28  1  0  0  0  0
 28 29  2  0  0  0  0
 29 30  1  0  0  0  0
 29 58  1  0  0  0  0
 30 31  1  0  0  0  0
 31 32  1  0  0  0  0
 32 33  1  0  0  0  0
 32 59  1  0  0  0  0
 32 60  1  0  0  0  0
 33 34  1  0  0  0  0
 33 61  1  0  0  0  0
 33 62  1  0  0  0  0
 34 35  1  0  0  0  0
 34 63  1  0  0  0  0
 34 64  1  0  0  0  0
 35 36  1  0  0  0  0
 35 41  1  0  0  0  0
 36 37  1  0  0  0  0
 36 65  1  0  0  0  0
 36 66  1  0  0  0  0
 37 38  1  0  0  0  0
 37 67  1  0  0  0  0
 37 68  1  0  0  0  0
 38 39  1  0  0  0  0
 38 40  1  0  0  0  0
 39 69  1  0  0  0  0
 39 70  1  0  0  0  0
 39 71  1  0  0  0  0
 40 41  1  0  0  0  0
 40 72  1  0  0  0  0
 40 73  1  0  0  0  0
 41 74  1  0  0  0  0
 41 75  1  0  0  0  0
M  END
$$$$
