CHEMBL3109352
 OpenBabel04072215363D

 60 64  0  0  1  0  0  0  0  0999 V2000
   11.0299  -14.2074   13.1723 C   0  0  0  0  0  0  0  0  0  0  0  0
   10.1451  -13.4409   12.3697 O   0  0  0  0  0  0  0  0  0  0  0  0
   10.6489  -12.1256   12.1316 C   0  0  0  0  0  0  0  0  0  0  0  0
    9.6519  -11.3875   11.2517 C   0  0  0  0  0  0  0  0  0  0  0  0
   10.1070  -10.0557   10.9882 O   0  0  0  0  0  0  0  0  0  0  0  0
    9.3097   -9.3134   10.1435 C   0  0  0  0  0  0  0  0  0  0  0  0
    9.8001   -7.9584    9.9179 C   0  0  0  0  0  0  0  0  0  0  0  0
    9.1150   -7.1262    9.1109 C   0  0  0  0  0  0  0  0  0  0  0  0
    7.9444   -7.5714    8.4899 N   0  0  0  0  0  0  0  0  0  0  0  0
    7.0418   -6.9359    7.6502 C   0  0  0  0  0  0  0  0  0  0  0  0
    7.0796   -5.5550    7.1887 C   0  0  0  0  0  0  0  0  0  0  0  0
    5.8981   -4.8892    6.9021 C   0  0  0  0  0  0  0  0  0  0  0  0
    5.9677   -3.6157    6.3664 C   0  0  0  0  0  0  0  0  0  0  0  0
    7.2122   -3.0434    6.1092 C   0  0  0  0  0  0  0  0  0  0  0  0
    7.2733   -1.7730    5.5227 C   0  0  0  0  0  0  0  0  0  0  0  0
    8.4979   -1.2063    5.2066 C   0  0  0  0  0  0  0  0  0  0  0  0
    9.6672   -1.8887    5.5169 C   0  0  0  0  0  0  0  0  0  0  0  0
    9.6184   -3.1268    6.1801 C   0  0  0  0  0  0  0  0  0  0  0  0
   10.7615   -3.7734    6.6136 O   0  0  0  0  0  0  0  0  0  0  0  0
   11.9076   -2.9513    6.9134 C   0  0  1  0  0  0  0  0  0  0  0  0
   11.6502   -1.9870    8.0738 C   0  0  0  0  0  0  0  0  0  0  0  0
   11.7105   -2.8483    9.2677 N   0  0  0  0  0  0  0  0  0  0  0  0
   12.8666   -3.7445    9.0083 C   0  0  2  0  0  0  0  0  0  0  0  0
   14.1207   -3.1626    9.6823 C   0  0  0  0  0  0  0  0  0  0  0  0
   14.9037   -2.3759    9.1625 O   0  0  0  0  0  0  0  0  0  0  0  0
   14.2169   -3.6268   10.9643 O   0  0  0  0  0  0  0  0  0  0  0  0
   15.3097   -3.0836   11.7043 C   0  0  0  0  0  0  0  0  0  0  0  0
   13.0073   -3.8504    7.4835 C   0  0  0  0  0  0  0  0  0  0  0  0
    8.3866   -3.7631    6.4433 C   0  0  0  0  0  0  0  0  0  0  0  0
    8.3015   -5.0048    6.9939 N   0  0  0  0  0  0  0  0  0  0  0  0
    6.0902   -7.9084    7.3755 C   0  0  0  0  0  0  0  0  0  0  0  0
    6.3407   -9.0809    8.0209 N   0  0  0  0  0  0  0  0  0  0  0  0
    7.4503   -8.8615    8.6867 C   0  0  0  0  0  0  0  0  0  0  0  0
    8.1721   -9.7302    9.5451 C   0  0  0  0  0  0  0  0  0  0  0  0
   10.5883  -15.1962   13.3206 H   0  0  0  0  0  0  0  0  0  0  0  0
   11.1649  -13.7338   14.1491 H   0  0  0  0  0  0  0  0  0  0  0  0
   11.9946  -14.3253   12.6707 H   0  0  0  0  0  0  0  0  0  0  0  0
   11.6221  -12.1782   11.6297 H   0  0  0  0  0  0  0  0  0  0  0  0
   10.7830  -11.5936   13.0798 H   0  0  0  0  0  0  0  0  0  0  0  0
    8.6791  -11.3578   11.7602 H   0  0  0  0  0  0  0  0  0  0  0  0
    9.5395  -11.9466   10.3146 H   0  0  0  0  0  0  0  0  0  0  0  0
   10.7124   -7.6448   10.4141 H   0  0  0  0  0  0  0  0  0  0  0  0
    9.4382   -6.1116    8.9125 H   0  0  0  0  0  0  0  0  0  0  0  0
    4.9312   -5.3486    7.0780 H   0  0  0  0  0  0  0  0  0  0  0  0
    5.0452   -3.0903    6.1311 H   0  0  0  0  0  0  0  0  0  0  0  0
    6.3621   -1.2240    5.2923 H   0  0  0  0  0  0  0  0  0  0  0  0
    8.5417   -0.2332    4.7250 H   0  0  0  0  0  0  0  0  0  0  0  0
   10.6076   -1.4253    5.2395 H   0  0  0  0  0  0  0  0  0  0  0  0
   12.2745   -2.4661    6.0029 H   0  0  0  0  0  0  0  0  0  0  0  0
   10.6829   -1.4808    8.0359 H   0  0  0  0  0  0  0  0  0  0  0  0
   12.4321   -1.2202    8.1236 H   0  0  0  0  0  0  0  0  0  0  0  0
   10.8686   -3.4318    9.2510 H   0  0  0  0  0  0  0  0  0  0  0  0
   12.6806   -4.7380    9.4322 H   0  0  0  0  0  0  0  0  0  0  0  0
   15.2865   -3.5160   12.7087 H   0  0  0  0  0  0  0  0  0  0  0  0
   15.2119   -1.9971   11.7945 H   0  0  0  0  0  0  0  0  0  0  0  0
   16.2615   -3.3508   11.2351 H   0  0  0  0  0  0  0  0  0  0  0  0
   12.8933   -4.8872    7.1494 H   0  0  0  0  0  0  0  0  0  0  0  0
   13.9862   -3.4915    7.1450 H   0  0  0  0  0  0  0  0  0  0  0  0
    5.2215   -7.8147    6.7363 H   0  0  0  0  0  0  0  0  0  0  0  0
    7.7542  -10.7184    9.6792 H   0  0  0  0  0  0  0  0  0  0  0  0
  1  2  1  0  0  0  0
  1 35  1  0  0  0  0
  1 36  1  0  0  0  0
  1 37  1  0  0  0  0
  2  3  1  0  0  0  0
  3  4  1  0  0  0  0
  3 38  1  0  0  0  0
  3 39  1  0  0  0  0
  4  5  1  0  0  0  0
  4 40  1  0  0  0  0
  4 41  1  0  0  0  0
  5  6  1  0  0  0  0
  6  7  1  0  0  0  0
  6 34  2  0  0  0  0
  7  8  2  0  0  0  0
  7 42  1  0  0  0  0
  8  9  1  0  0  0  0
  8 43  1  0  0  0  0
  9 10  1  0  0  0  0
  9 33  1  0  0  0  0
 10 11  1  0  0  0  0
 10 31  2  0  0  0  0
 11 12  1  0  0  0  0
 11 30  2  0  0  0  0
 12 13  2  0  0  0  0
 12 44  1  0  0  0  0
 13 14  1  0  0  0  0
 13 45  1  0  0  0  0
 14 15  1  0  0  0  0
 14 29  2  0  0  0  0
 15 16  2  0  0  0  0
 15 46  1  0  0  0  0
 16 17  1  0  0  0  0
 16 47  1  0  0  0  0
 17 18  2  0  0  0  0
 17 48  1  0  0  0  0
 18 19  1  0  0  0  0
 18 29  1  0  0  0  0
 20 21  1  0  0  0  0
 20 28  1  0  0  0  0
 20 19  1  0  0  0  0
 20 49  1  6  0  0  0
 21 22  1  0  0  0  0
 21 50  1  0  0  0  0
 21 51  1  0  0  0  0
 22 23  1  0  0  0  0
 22 52  1  0  0  0  0
 23 24  1  0  0  0  0
 23 28  1  0  0  0  0
 23 53  1  1  0  0  0
 24 25  2  0  0  0  0
 24 26  1  0  0  0  0
 26 27  1  0  0  0  0
 27 54  1  0  0  0  0
 27 55  1  0  0  0  0
 27 56  1  0  0  0  0
 28 57  1  0  0  0  0
 28 58  1  0  0  0  0
 29 30  1  0  0  0  0
 31 32  1  0  0  0  0
 31 59  1  0  0  0  0
 32 33  2  0  0  0  0
 33 34  1  0  0  0  0
 34 60  1  0  0  0  0
M  END
$$$$
