CHEMBL3297891
 OpenBabel04072215363D

 37 40  0  0  0  0  0  0  0  0999 V2000
    1.2828    0.0811    0.3472 C   0  0  0  0  0  0  0  0  0  0  0  0
    2.7778   -0.0219    0.2373 C   0  0  0  0  0  0  0  0  0  0  0  0
    3.3365   -1.2337    0.4236 N   0  0  0  0  0  0  0  0  0  0  0  0
    4.6943   -1.4294    0.2804 C   0  0  0  0  0  0  0  0  0  0  0  0
    5.2091   -2.7433    0.3489 N   0  0  0  0  0  0  0  0  0  0  0  0
    4.4400   -3.9062    0.0813 C   0  0  0  0  0  0  0  0  0  0  0  0
    3.3913   -3.8139   -0.8504 C   0  0  0  0  0  0  0  0  0  0  0  0
    2.4254   -4.8074   -0.9631 C   0  0  0  0  0  0  0  0  0  0  0  0
    2.4413   -5.8693   -0.0784 C   0  0  0  0  0  0  0  0  0  0  0  0
    3.5238   -6.0142    0.8049 C   0  0  0  0  0  0  0  0  0  0  0  0
    3.5448   -7.1087    1.6607 C   0  0  0  0  0  0  0  0  0  0  0  0
    4.7657   -7.6519    2.0512 C   0  0  0  0  0  0  0  0  0  0  0  0
    5.9186   -6.8944    1.8921 C   0  0  0  0  0  0  0  0  0  0  0  0
    5.8199   -5.5859    1.3965 C   0  0  0  0  0  0  0  0  0  0  0  0
    4.6301   -5.1361    0.7677 C   0  0  0  0  0  0  0  0  0  0  0  0
    5.4513   -0.2966   -0.0046 C   0  0  0  0  0  0  0  0  0  0  0  0
    6.8250    0.0242   -0.2214 C   0  0  0  0  0  0  0  0  0  0  0  0
    6.8753    1.3769   -0.4769 C   0  0  0  0  0  0  0  0  0  0  0  0
    7.9566    2.3340   -0.7675 C   0  0  0  0  0  0  0  0  0  0  0  0
    5.6232    1.9077   -0.4324 O   0  0  0  0  0  0  0  0  0  0  0  0
    4.7577    0.8960   -0.1558 C   0  0  0  0  0  0  0  0  0  0  0  0
    3.4361    1.1011   -0.0689 N   0  0  0  0  0  0  0  0  0  0  0  0
    0.8336   -0.9151    0.4252 H   0  0  0  0  0  0  0  0  0  0  0  0
    0.8720    0.5825   -0.5396 H   0  0  0  0  0  0  0  0  0  0  0  0
    1.0138    0.6556    1.2379 H   0  0  0  0  0  0  0  0  0  0  0  0
    6.1999   -2.8404    0.2021 H   0  0  0  0  0  0  0  0  0  0  0  0
    3.3185   -2.9493   -1.5046 H   0  0  0  0  0  0  0  0  0  0  0  0
    1.6598   -4.7332   -1.7234 H   0  0  0  0  0  0  0  0  0  0  0  0
    1.6486   -6.6004   -0.0998 H   0  0  0  0  0  0  0  0  0  0  0  0
    2.6261   -7.5463    2.0380 H   0  0  0  0  0  0  0  0  0  0  0  0
    4.8050   -8.6529    2.4822 H   0  0  0  0  0  0  0  0  0  0  0  0
    6.8756   -7.3058    2.1990 H   0  0  0  0  0  0  0  0  0  0  0  0
    6.7074   -4.9606    1.4071 H   0  0  0  0  0  0  0  0  0  0  0  0
    7.6681   -0.6470   -0.1963 H   0  0  0  0  0  0  0  0  0  0  0  0
    8.9101    1.8175   -0.8978 H   0  0  0  0  0  0  0  0  0  0  0  0
    8.0619    3.0502    0.0535 H   0  0  0  0  0  0  0  0  0  0  0  0
    7.7379    2.8903   -1.6836 H   0  0  0  0  0  0  0  0  0  0  0  0
  1  2  1  0  0  0  0
  1 23  1  0  0  0  0
  1 24  1  0  0  0  0
  1 25  1  0  0  0  0
  2  3  1  0  0  0  0
  2 22  2  0  0  0  0
  3  4  2  0  0  0  0
  4  5  1  0  0  0  0
  4 16  1  0  0  0  0
  5  6  1  0  0  0  0
  5 26  1  0  0  0  0
  6  7  1  0  0  0  0
  6 15  2  0  0  0  0
  7  8  2  0  0  0  0
  7 27  1  0  0  0  0
  8  9  1  0  0  0  0
  8 28  1  0  0  0  0
  9 10  2  0  0  0  0
  9 29  1  0  0  0  0
 10 11  1  0  0  0  0
 10 15  1  0  0  0  0
 11 12  2  0  0  0  0
 11 30  1  0  0  0  0
 12 13  1  0  0  0  0
 12 31  1  0  0  0  0
 13 14  2  0  0  0  0
 13 32  1  0  0  0  0
 14 15  1  0  0  0  0
 14 33  1  0  0  0  0
 16 17  1  0  0  0  0
 16 21  2  0  0  0  0
 17 18  2  0  0  0  0
 17 34  1  0  0  0  0
 18 19  1  0  0  0  0
 18 20  1  0  0  0  0
 19 35  1  0  0  0  0
 19 36  1  0  0  0  0
 19 37  1  0  0  0  0
 20 21  1  0  0  0  0
 21 22  1  0  0  0  0
M  END
$$$$
