CHEMBL354895
 OpenBabel04072215363D

 31 34  0  0  0  0  0  0  0  0999 V2000
    1.3398   -0.2183    0.2145 C   0  0  0  0  0  0  0  0  0  0  0  0
    0.7705    0.9427    0.7375 C   0  0  0  0  0  0  0  0  0  0  0  0
   -0.5994    1.1737    0.5988 C   0  0  0  0  0  0  0  0  0  0  0  0
   -1.4058    0.2432   -0.0672 C   0  0  0  0  0  0  0  0  0  0  0  0
   -2.8551    0.4675   -0.1943 C   0  0  0  0  0  0  0  0  0  0  0  0
   -3.8024   -0.0369    0.7971 C   0  0  0  0  0  0  0  0  0  0  0  0
   -5.1189    0.1676    0.6251 C   0  0  0  0  0  0  0  0  0  0  0  0
   -5.5744    0.8646   -0.4978 N   0  0  0  0  0  0  0  0  0  0  0  0
   -6.8539    1.2001   -0.9186 C   0  0  0  0  0  0  0  0  0  0  0  0
   -8.0773    0.8766   -0.2423 C   0  0  0  0  0  0  0  0  0  0  0  0
   -8.1171    0.2198    0.8981 N   0  0  0  0  0  0  0  0  0  0  0  0
   -9.4229    0.0639    1.3180 C   0  0  0  0  0  0  0  0  0  0  0  0
  -10.3796    0.6023    0.4885 C   0  0  0  0  0  0  0  0  0  0  0  0
   -9.6225    1.3254   -0.8658 S   0  0  0  0  0  0  0  0  0  0  0  0
   -6.6584    1.8934   -2.1008 C   0  0  0  0  0  0  0  0  0  0  0  0
   -5.3335    1.9962   -2.4253 N   0  0  0  0  0  0  0  0  0  0  0  0
   -4.6964    1.3727   -1.4591 C   0  0  0  0  0  0  0  0  0  0  0  0
   -3.3012    1.1490   -1.2728 C   0  0  0  0  0  0  0  0  0  0  0  0
   -0.8278   -0.9203   -0.5905 C   0  0  0  0  0  0  0  0  0  0  0  0
    0.5420   -1.1488   -0.4501 C   0  0  0  0  0  0  0  0  0  0  0  0
    2.4060   -0.3983    0.3258 H   0  0  0  0  0  0  0  0  0  0  0  0
    1.3934    1.6675    1.2555 H   0  0  0  0  0  0  0  0  0  0  0  0
   -1.0338    2.0803    1.0136 H   0  0  0  0  0  0  0  0  0  0  0  0
   -3.4216   -0.5735    1.6604 H   0  0  0  0  0  0  0  0  0  0  0  0
   -5.8483   -0.1940    1.3370 H   0  0  0  0  0  0  0  0  0  0  0  0
   -9.6224   -0.4549    2.2479 H   0  0  0  0  0  0  0  0  0  0  0  0
  -11.4531    0.6051    0.6097 H   0  0  0  0  0  0  0  0  0  0  0  0
   -7.4115    2.3290   -2.7461 H   0  0  0  0  0  0  0  0  0  0  0  0
   -2.6263    1.5367   -2.0291 H   0  0  0  0  0  0  0  0  0  0  0  0
   -1.4419   -1.6537   -1.1084 H   0  0  0  0  0  0  0  0  0  0  0  0
    0.9858   -2.0536   -0.8577 H   0  0  0  0  0  0  0  0  0  0  0  0
  1  2  1  0  0  0  0
  1 20  2  0  0  0  0
  1 21  1  0  0  0  0
  2  3  2  0  0  0  0
  2 22  1  0  0  0  0
  3  4  1  0  0  0  0
  3 23  1  0  0  0  0
  4  5  1  0  0  0  0
  4 19  2  0  0  0  0
  5  6  1  0  0  0  0
  5 18  2  0  0  0  0
  6  7  2  0  0  0  0
  6 24  1  0  0  0  0
  7  8  1  0  0  0  0
  7 25  1  0  0  0  0
  8  9  1  0  0  0  0
  8 17  1  0  0  0  0
  9 10  1  0  0  0  0
  9 15  2  0  0  0  0
 10 11  2  0  0  0  0
 10 14  1  0  0  0  0
 11 12  1  0  0  0  0
 12 13  2  0  0  0  0
 12 26  1  0  0  0  0
 13 14  1  0  0  0  0
 13 27  1  0  0  0  0
 15 16  1  0  0  0  0
 15 28  1  0  0  0  0
 16 17  2  0  0  0  0
 17 18  1  0  0  0  0
 18 29  1  0  0  0  0
 19 20  1  0  0  0  0
 19 30  1  0  0  0  0
 20 31  1  0  0  0  0
M  END
$$$$
