CHEMBL117166
 OpenBabel04072215363D

 55 59  0  0  0  0  0  0  0  0999 V2000
   -1.0327   -1.6719   -2.3719 C   0  0  0  0  0  0  0  0  0  0  0  0
   -1.7491   -2.8371   -2.1436 C   0  0  0  0  0  0  0  0  0  0  0  0
   -1.4429   -3.7230   -1.1754 N   0  0  0  0  0  0  0  0  0  0  0  0
   -0.3579   -3.4364   -0.4107 C   0  0  0  0  0  0  0  0  0  0  0  0
    0.4365   -2.3004   -0.5574 C   0  0  0  0  0  0  0  0  0  0  0  0
    1.5883   -2.0485    0.2897 C   0  0  0  0  0  0  0  0  0  0  0  0
    2.1472   -0.8318    0.7331 C   0  0  0  0  0  0  0  0  0  0  0  0
    3.2261   -0.9945    1.4999 N   0  0  0  0  0  0  0  0  0  0  0  0
    3.3940   -2.3373    1.5615 N   0  0  0  0  0  0  0  0  0  0  0  0
    4.3849   -3.0328    2.2454 C   0  0  0  0  0  0  0  0  0  0  0  0
    4.4260   -4.3737    2.2046 C   0  0  0  0  0  0  0  0  0  0  0  0
    5.4242   -5.1653    2.9122 C   0  0  0  0  0  0  0  0  0  0  0  0
    5.1965   -5.5537    4.2353 C   0  0  0  0  0  0  0  0  0  0  0  0
    6.1421   -6.3246    4.9161 C   0  0  0  0  0  0  0  0  0  0  0  0
    7.3217   -6.7191    4.2804 C   0  0  0  0  0  0  0  0  0  0  0  0
    8.3095   -7.4698    4.8666 O   0  0  0  0  0  0  0  0  0  0  0  0
    7.8368   -8.4134    5.8392 C   0  0  0  0  0  0  0  0  0  0  0  0
    9.0090   -9.2616    6.3624 C   0  0  0  0  0  0  0  0  0  0  0  0
    8.6221  -10.2147    7.4269 N   0  0  0  0  0  0  0  0  0  0  0  0
    7.6836  -11.2402    6.9423 C   0  0  0  0  0  0  0  0  0  0  0  0
    7.2626  -12.1908    8.0647 C   0  0  0  0  0  0  0  0  0  0  0  0
    8.4709  -12.8493    8.7142 C   0  0  0  0  0  0  0  0  0  0  0  0
    9.4718  -11.7885    9.1540 C   0  0  0  0  0  0  0  0  0  0  0  0
    9.8244  -10.8416    8.0042 C   0  0  0  0  0  0  0  0  0  0  0  0
    7.5629   -6.3051    2.9692 C   0  0  0  0  0  0  0  0  0  0  0  0
    6.6160   -5.5373    2.2826 C   0  0  0  0  0  0  0  0  0  0  0  0
    3.3499   -5.0094    1.3822 C   0  0  0  0  0  0  0  0  0  0  0  0
    2.4065   -4.3893    0.7388 N   0  0  0  0  0  0  0  0  0  0  0  0
    2.4147   -3.0201    0.8273 C   0  0  0  0  0  0  0  0  0  0  0  0
    0.0706   -1.4006   -1.5626 C   0  0  0  0  0  0  0  0  0  0  0  0
   -1.3224   -0.9944   -3.1666 H   0  0  0  0  0  0  0  0  0  0  0  0
   -2.6089   -3.0948   -2.7535 H   0  0  0  0  0  0  0  0  0  0  0  0
   -0.1518   -4.1777    0.3567 H   0  0  0  0  0  0  0  0  0  0  0  0
    1.8051    0.1761    0.5337 H   0  0  0  0  0  0  0  0  0  0  0  0
    5.0910   -2.4248    2.7959 H   0  0  0  0  0  0  0  0  0  0  0  0
    4.2852   -5.2587    4.7523 H   0  0  0  0  0  0  0  0  0  0  0  0
    5.9349   -6.5851    5.9484 H   0  0  0  0  0  0  0  0  0  0  0  0
    7.0873   -9.0527    5.3600 H   0  0  0  0  0  0  0  0  0  0  0  0
    7.3960   -7.8909    6.6945 H   0  0  0  0  0  0  0  0  0  0  0  0
    9.7532   -8.5601    6.7644 H   0  0  0  0  0  0  0  0  0  0  0  0
    9.5033   -9.7737    5.5267 H   0  0  0  0  0  0  0  0  0  0  0  0
    8.1258  -11.8124    6.1165 H   0  0  0  0  0  0  0  0  0  0  0  0
    6.7669  -10.7759    6.5653 H   0  0  0  0  0  0  0  0  0  0  0  0
    6.5904  -12.9591    7.6661 H   0  0  0  0  0  0  0  0  0  0  0  0
    6.6964  -11.6347    8.8232 H   0  0  0  0  0  0  0  0  0  0  0  0
    8.9462  -13.5311    7.9984 H   0  0  0  0  0  0  0  0  0  0  0  0
    8.1554  -13.4514    9.5733 H   0  0  0  0  0  0  0  0  0  0  0  0
   10.3809  -12.2730    9.5276 H   0  0  0  0  0  0  0  0  0  0  0  0
    9.0504  -11.2130    9.9881 H   0  0  0  0  0  0  0  0  0  0  0  0
   10.3818  -11.3918    7.2347 H   0  0  0  0  0  0  0  0  0  0  0  0
   10.4927  -10.0673    8.4000 H   0  0  0  0  0  0  0  0  0  0  0  0
    8.4863   -6.5903    2.4718 H   0  0  0  0  0  0  0  0  0  0  0  0
    6.8178   -5.2351    1.2571 H   0  0  0  0  0  0  0  0  0  0  0  0
    3.3791   -6.1114    1.3339 H   0  0  0  0  0  0  0  0  0  0  0  0
    0.6448   -0.4960   -1.7418 H   0  0  0  0  0  0  0  0  0  0  0  0
  1  2  1  0  0  0  0
  1 30  2  0  0  0  0
  1 31  1  0  0  0  0
  2  3  2  0  0  0  0
  2 32  1  0  0  0  0
  3  4  1  0  0  0  0
  4  5  2  0  0  0  0
  4 33  1  0  0  0  0
  5  6  1  0  0  0  0
  5 30  1  0  0  0  0
  6  7  1  0  0  0  0
  6 29  2  0  0  0  0
  7  8  2  0  0  0  0
  7 34  1  0  0  0  0
  8  9  1  0  0  0  0
  9 10  1  0  0  0  0
  9 29  1  0  0  0  0
 10 11  2  0  0  0  0
 10 35  1  0  0  0  0
 11 12  1  0  0  0  0
 11 27  1  0  0  0  0
 12 13  1  0  0  0  0
 12 26  2  0  0  0  0
 13 14  2  0  0  0  0
 13 36  1  0  0  0  0
 14 15  1  0  0  0  0
 14 37  1  0  0  0  0
 15 16  1  0  0  0  0
 15 25  2  0  0  0  0
 16 17  1  0  0  0  0
 17 18  1  0  0  0  0
 17 38  1  0  0  0  0
 17 39  1  0  0  0  0
 18 19  1  0  0  0  0
 18 40  1  0  0  0  0
 18 41  1  0  0  0  0
 19 20  1  0  0  0  0
 19 24  1  0  0  0  0
 20 21  1  0  0  0  0
 20 42  1  0  0  0  0
 20 43  1  0  0  0  0
 21 22  1  0  0  0  0
 21 44  1  0  0  0  0
 21 45  1  0  0  0  0
 22 23  1  0  0  0  0
 22 46  1  0  0  0  0
 22 47  1  0  0  0  0
 23 24  1  0  0  0  0
 23 48  1  0  0  0  0
 23 49  1  0  0  0  0
 24 50  1  0  0  0  0
 24 51  1  0  0  0  0
 25 26  1  0  0  0  0
 25 52  1  0  0  0  0
 26 53  1  0  0  0  0
 27 28  2  0  0  0  0
 27 54  1  0  0  0  0
 28 29  1  0  0  0  0
 30 55  1  0  0  0  0
M  END
$$$$
