CHEMBL224496
 OpenBabel04072215363D

 63 68  0  0  0  0  0  0  0  0999 V2000
    1.9657   -0.2380   -1.0026 C   0  0  0  0  0  0  0  0  0  0  0  0
    0.5335    0.0386   -1.0463 N   0  0  0  0  0  0  0  0  0  0  0  0
   -0.2485   -1.1544   -0.6841 C   0  0  0  0  0  0  0  0  0  0  0  0
   -1.7645   -0.8530   -0.7033 C   0  0  0  0  0  0  0  0  0  0  0  0
   -2.1825    0.2263    0.2199 N   0  0  0  0  0  0  0  0  0  0  0  0
   -2.0490   -0.1187    1.6485 C   0  0  0  0  0  0  0  0  0  0  0  0
   -2.8654   -1.3231    2.0885 C   0  0  0  0  0  0  0  0  0  0  0  0
   -2.2846   -2.6180    2.0277 C   0  0  0  0  0  0  0  0  0  0  0  0
   -3.0069   -3.7699    2.3424 C   0  0  0  0  0  0  0  0  0  0  0  0
   -4.3123   -3.6149    2.7635 C   0  0  0  0  0  0  0  0  0  0  0  0
   -4.8825   -2.3162    2.8776 C   0  0  0  0  0  0  0  0  0  0  0  0
   -4.1905   -1.1727    2.5369 C   0  0  0  0  0  0  0  0  0  0  0  0
   -6.1913   -2.5496    3.3832 C   0  0  0  0  0  0  0  0  0  0  0  0
   -7.2649   -1.8883    3.8558 N   0  0  0  0  0  0  0  0  0  0  0  0
   -8.2137   -2.7439    4.3266 N   0  0  0  0  0  0  0  0  0  0  0  0
   -7.6923   -3.9719    4.1222 C   0  0  0  0  0  0  0  0  0  0  0  0
   -8.3558   -5.2143    4.5282 C   0  0  0  0  0  0  0  0  0  0  0  0
   -9.2652   -5.3142    5.5596 C   0  0  0  0  0  0  0  0  0  0  0  0
   -9.7980   -6.9219    5.8000 S   0  0  0  0  0  0  0  0  0  0  0  0
   -8.8276   -7.5003    4.5163 C   0  0  0  0  0  0  0  0  0  0  0  0
   -8.7820   -8.8755    4.1467 C   0  0  0  0  0  0  0  0  0  0  0  0
   -8.7845  -10.0402    3.8456 C   0  0  0  0  0  0  0  0  0  0  0  0
   -8.8620  -11.4508    3.4505 C   0  0  0  0  0  0  0  0  0  0  0  0
   -7.7032  -12.1505    3.9081 O   0  0  0  0  0  0  0  0  0  0  0  0
   -7.6857  -13.4934    3.6318 C   0  0  0  0  0  0  0  0  0  0  0  0
   -8.3096  -14.0934    2.5352 C   0  0  0  0  0  0  0  0  0  0  0  0
   -8.2179  -15.4746    2.3415 C   0  0  0  0  0  0  0  0  0  0  0  0
   -7.4932  -16.2607    3.2335 C   0  0  0  0  0  0  0  0  0  0  0  0
   -6.8515  -15.6650    4.3176 C   0  0  0  0  0  0  0  0  0  0  0  0
   -6.9428  -14.2839    4.5109 C   0  0  0  0  0  0  0  0  0  0  0  0
   -8.1239   -6.4838    3.9020 C   0  0  0  0  0  0  0  0  0  0  0  0
   -6.4227   -3.8885    3.5470 C   0  0  0  0  0  0  0  0  0  0  0  0
   -5.2789   -4.7472    3.1448 C   0  0  0  0  0  0  0  0  0  0  0  0
   -1.3609    1.4190   -0.1087 C   0  0  0  0  0  0  0  0  0  0  0  0
    0.1724    1.1700   -0.1715 C   0  0  0  0  0  0  0  0  0  0  0  0
    2.2160   -1.0745   -1.6652 H   0  0  0  0  0  0  0  0  0  0  0  0
    2.3124   -0.4865    0.0069 H   0  0  0  0  0  0  0  0  0  0  0  0
    2.5330    0.6273   -1.3613 H   0  0  0  0  0  0  0  0  0  0  0  0
    0.0555   -1.5226    0.3029 H   0  0  0  0  0  0  0  0  0  0  0  0
   -0.0485   -1.9604   -1.3999 H   0  0  0  0  0  0  0  0  0  0  0  0
   -2.3375   -1.7694   -0.5317 H   0  0  0  0  0  0  0  0  0  0  0  0
   -2.0414   -0.5510   -1.7237 H   0  0  0  0  0  0  0  0  0  0  0  0
   -2.3907    0.7388    2.2446 H   0  0  0  0  0  0  0  0  0  0  0  0
   -1.0053   -0.2778    1.9440 H   0  0  0  0  0  0  0  0  0  0  0  0
   -1.2532   -2.7334    1.7044 H   0  0  0  0  0  0  0  0  0  0  0  0
   -2.5541   -4.7515    2.2546 H   0  0  0  0  0  0  0  0  0  0  0  0
   -4.6488   -0.1925    2.6052 H   0  0  0  0  0  0  0  0  0  0  0  0
   -7.4289   -0.8903    3.9271 H   0  0  0  0  0  0  0  0  0  0  0  0
   -9.6256   -4.5204    6.1980 H   0  0  0  0  0  0  0  0  0  0  0  0
   -8.9285  -11.4857    2.3583 H   0  0  0  0  0  0  0  0  0  0  0  0
   -9.7608  -11.9037    3.8876 H   0  0  0  0  0  0  0  0  0  0  0  0
   -8.8583  -13.5177    1.7992 H   0  0  0  0  0  0  0  0  0  0  0  0
   -8.7047  -15.9324    1.4835 H   0  0  0  0  0  0  0  0  0  0  0  0
   -7.4233  -17.3344    3.0796 H   0  0  0  0  0  0  0  0  0  0  0  0
   -6.2798  -16.2741    5.0121 H   0  0  0  0  0  0  0  0  0  0  0  0
   -6.4377  -13.8250    5.3576 H   0  0  0  0  0  0  0  0  0  0  0  0
   -7.4775   -6.6483    3.0521 H   0  0  0  0  0  0  0  0  0  0  0  0
   -5.5122   -5.3607    2.2710 H   0  0  0  0  0  0  0  0  0  0  0  0
   -4.8873   -5.3383    3.9756 H   0  0  0  0  0  0  0  0  0  0  0  0
   -1.5733    2.2319    0.5963 H   0  0  0  0  0  0  0  0  0  0  0  0
   -1.6881    1.7907   -1.0896 H   0  0  0  0  0  0  0  0  0  0  0  0
    0.5517    1.0054    0.8451 H   0  0  0  0  0  0  0  0  0  0  0  0
    0.6510    2.0816   -0.5492 H   0  0  0  0  0  0  0  0  0  0  0  0
  1  2  1  0  0  0  0
  1 36  1  0  0  0  0
  1 37  1  0  0  0  0
  1 38  1  0  0  0  0
  2  3  1  0  0  0  0
  2 35  1  0  0  0  0
  3  4  1  0  0  0  0
  3 39  1  0  0  0  0
  3 40  1  0  0  0  0
  4  5  1  0  0  0  0
  4 41  1  0  0  0  0
  4 42  1  0  0  0  0
  5  6  1  0  0  0  0
  5 34  1  0  0  0  0
  6  7  1  0  0  0  0
  6 43  1  0  0  0  0
  6 44  1  0  0  0  0
  7  8  1  0  0  0  0
  7 12  2  0  0  0  0
  8  9  2  0  0  0  0
  8 45  1  0  0  0  0
  9 10  1  0  0  0  0
  9 46  1  0  0  0  0
 10 11  2  0  0  0  0
 10 33  1  0  0  0  0
 11 12  1  0  0  0  0
 11 13  1  0  0  0  0
 12 47  1  0  0  0  0
 13 14  1  0  0  0  0
 13 32  2  0  0  0  0
 14 15  1  0  0  0  0
 14 48  1  0  0  0  0
 15 16  2  0  0  0  0
 16 17  1  0  0  0  0
 16 32  1  0  0  0  0
 17 18  2  0  0  0  0
 17 31  1  0  0  0  0
 18 19  1  0  0  0  0
 18 49  1  0  0  0  0
 19 20  1  0  0  0  0
 20 21  1  0  0  0  0
 20 31  2  0  0  0  0
 21 22  3  0  0  0  0
 22 23  1  0  0  0  0
 23 24  1  0  0  0  0
 23 50  1  0  0  0  0
 23 51  1  0  0  0  0
 24 25  1  0  0  0  0
 25 26  1  0  0  0  0
 25 30  2  0  0  0  0
 26 27  2  0  0  0  0
 26 52  1  0  0  0  0
 27 28  1  0  0  0  0
 27 53  1  0  0  0  0
 28 29  2  0  0  0  0
 28 54  1  0  0  0  0
 29 30  1  0  0  0  0
 29 55  1  0  0  0  0
 30 56  1  0  0  0  0
 31 57  1  0  0  0  0
 32 33  1  0  0  0  0
 33 58  1  0  0  0  0
 33 59  1  0  0  0  0
 34 35  1  0  0  0  0
 34 60  1  0  0  0  0
 34 61  1  0  0  0  0
 35 62  1  0  0  0  0
 35 63  1  0  0  0  0
M  END
$$$$
