CHEMBL409673
 OpenBabel04072215383D

 44 47  0  0  0  0  0  0  0  0999 V2000
    1.2655    2.5075    0.1645 C   0  0  0  0  0  0  0  0  0  0  0  0
    2.6831    2.3676    0.1120 O   0  0  0  0  0  0  0  0  0  0  0  0
    3.1199    1.1848   -0.4211 C   0  0  0  0  0  0  0  0  0  0  0  0
    2.3708    0.3083   -0.8273 O   0  0  0  0  0  0  0  0  0  0  0  0
    4.5851    1.0997   -0.4475 C   0  0  0  0  0  0  0  0  0  0  0  0
    5.4124    2.0924    0.0321 C   0  0  0  0  0  0  0  0  0  0  0  0
    6.7037    1.7324   -0.1664 N   0  0  0  0  0  0  0  0  0  0  0  0
    7.7408    2.5019    0.1881 N   0  0  0  0  0  0  0  0  0  0  0  0
    8.8900    2.0085   -0.1272 C   0  0  0  0  0  0  0  0  0  0  0  0
    9.1115    0.8265   -0.7688 N   0  0  0  0  0  0  0  0  0  0  0  0
    8.1108    0.0623   -1.1119 C   0  0  0  0  0  0  0  0  0  0  0  0
    8.3886   -1.1376   -1.7315 N   0  0  0  0  0  0  0  0  0  0  0  0
    9.4714   -1.3238   -2.6283 C   0  0  0  0  0  0  0  0  0  0  0  0
   10.0849   -2.5757   -2.7678 C   0  0  0  0  0  0  0  0  0  0  0  0
   11.0682   -2.9126   -3.6433 N   0  0  0  0  0  0  0  0  0  0  0  0
   11.4178   -1.8879   -4.4414 C   0  0  0  0  0  0  0  0  0  0  0  0
   12.3690   -1.9554   -5.4226 N   0  0  0  0  0  0  0  0  0  0  0  0
   12.4695   -0.7429   -6.0577 C   0  0  0  0  0  0  0  0  0  0  0  0
   11.5652    0.1170   -5.4693 C   0  0  0  0  0  0  0  0  0  0  0  0
   10.8947   -0.6009   -4.4420 C   0  0  0  0  0  0  0  0  0  0  0  0
    9.8839   -0.3136   -3.5089 C   0  0  0  0  0  0  0  0  0  0  0  0
    6.7728    0.5111   -0.7872 C   0  0  0  0  0  0  0  0  0  0  0  0
    5.4583    0.0484   -0.9731 C   0  0  0  0  0  0  0  0  0  0  0  0
    4.8954   -1.2030   -1.6393 C   0  0  0  0  0  0  0  0  0  0  0  0
    4.6292   -0.9733   -3.1291 C   0  0  0  0  0  0  0  0  0  0  0  0
    5.6377   -2.5155   -1.4228 C   0  0  0  0  0  0  0  0  0  0  0  0
    1.0383    3.5327    0.4695 H   0  0  0  0  0  0  0  0  0  0  0  0
    0.8493    1.8242    0.9106 H   0  0  0  0  0  0  0  0  0  0  0  0
    0.8130    2.3352   -0.8174 H   0  0  0  0  0  0  0  0  0  0  0  0
    5.1835    3.0463    0.4888 H   0  0  0  0  0  0  0  0  0  0  0  0
    9.7917    2.5845    0.1419 H   0  0  0  0  0  0  0  0  0  0  0  0
    8.3058   -1.9110   -1.0812 H   0  0  0  0  0  0  0  0  0  0  0  0
    9.7840   -3.4043   -2.1304 H   0  0  0  0  0  0  0  0  0  0  0  0
   12.8974   -2.7894   -5.6326 H   0  0  0  0  0  0  0  0  0  0  0  0
   13.1696   -0.5988   -6.8698 H   0  0  0  0  0  0  0  0  0  0  0  0
   11.4011    1.1494   -5.7498 H   0  0  0  0  0  0  0  0  0  0  0  0
    9.4315    0.6720   -3.4905 H   0  0  0  0  0  0  0  0  0  0  0  0
    3.9222   -1.3935   -1.1720 H   0  0  0  0  0  0  0  0  0  0  0  0
    5.5469   -0.7150   -3.6661 H   0  0  0  0  0  0  0  0  0  0  0  0
    3.9131   -0.1571   -3.2775 H   0  0  0  0  0  0  0  0  0  0  0  0
    4.2019   -1.8702   -3.5918 H   0  0  0  0  0  0  0  0  0  0  0  0
    6.5301   -2.5966   -2.0412 H   0  0  0  0  0  0  0  0  0  0  0  0
    4.9999   -3.3553   -1.7276 H   0  0  0  0  0  0  0  0  0  0  0  0
    5.9013   -2.6658   -0.3719 H   0  0  0  0  0  0  0  0  0  0  0  0
  1  2  1  0  0  0  0
  1 27  1  0  0  0  0
  1 28  1  0  0  0  0
  1 29  1  0  0  0  0
  2  3  1  0  0  0  0
  3  4  2  0  0  0  0
  3  5  1  0  0  0  0
  5  6  2  0  0  0  0
  5 23  1  0  0  0  0
  6  7  1  0  0  0  0
  6 30  1  0  0  0  0
  7  8  1  0  0  0  0
  7 22  1  0  0  0  0
  8  9  2  0  0  0  0
  9 10  1  0  0  0  0
  9 31  1  0  0  0  0
 10 11  2  0  0  0  0
 11 12  1  0  0  0  0
 11 22  1  0  0  0  0
 12 13  1  0  0  0  0
 12 32  1  0  0  0  0
 13 14  1  0  0  0  0
 13 21  2  0  0  0  0
 14 15  2  0  0  0  0
 14 33  1  0  0  0  0
 15 16  1  0  0  0  0
 16 17  1  0  0  0  0
 16 20  2  0  0  0  0
 17 18  1  0  0  0  0
 17 34  1  0  0  0  0
 18 19  2  0  0  0  0
 18 35  1  0  0  0  0
 19 20  1  0  0  0  0
 19 36  1  0  0  0  0
 20 21  1  0  0  0  0
 21 37  1  0  0  0  0
 22 23  2  0  0  0  0
 23 24  1  0  0  0  0
 24 25  1  0  0  0  0
 24 26  1  0  0  0  0
 24 38  1  0  0  0  0
 25 39  1  0  0  0  0
 25 40  1  0  0  0  0
 25 41  1  0  0  0  0
 26 42  1  0  0  0  0
 26 43  1  0  0  0  0
 26 44  1  0  0  0  0
M  END
$$$$
