CHEMBL258805
 OpenBabel04072215363D

 29 31  0  0  0  0  0  0  0  0999 V2000
    1.1172   -0.1591   -0.5339 C   0  0  0  0  0  0  0  0  0  0  0  0
    2.5048   -0.0837   -0.2325 O   0  0  0  0  0  0  0  0  0  0  0  0
    3.1353   -1.2810   -0.0202 C   0  0  0  0  0  0  0  0  0  0  0  0
    4.2038   -1.2104    0.8963 C   0  0  0  0  0  0  0  0  0  0  0  0
    4.9581   -2.3374    1.2082 C   0  0  0  0  0  0  0  0  0  0  0  0
    4.6207   -3.5116    0.5704 C   0  0  0  0  0  0  0  0  0  0  0  0
    3.5772   -3.6093   -0.3593 C   0  0  0  0  0  0  0  0  0  0  0  0
    2.8197   -2.4870   -0.6654 C   0  0  0  0  0  0  0  0  0  0  0  0
    3.5358   -5.0282   -0.7692 C   0  0  0  0  0  0  0  0  0  0  0  0
    2.6926   -5.5737   -1.6653 C   0  0  0  0  0  0  0  0  0  0  0  0
    2.6136   -6.9531   -1.9935 C   0  0  0  0  0  0  0  0  0  0  0  0
    2.3316   -7.6666   -3.1425 C   0  0  0  0  0  0  0  0  0  0  0  0
    2.3259   -9.0201   -2.9039 N   0  0  0  0  0  0  0  0  0  0  0  0
    2.6052   -9.1435   -1.6259 C   0  0  0  0  0  0  0  0  0  0  0  0
    2.7609   -7.9290   -1.0348 N   0  0  0  0  0  0  0  0  0  0  0  0
    4.6276   -5.7273    0.0165 C   0  0  0  0  0  0  0  0  0  0  0  0
    4.9118   -6.9090    0.0485 O   0  0  0  0  0  0  0  0  0  0  0  0
    5.2300   -4.7397    0.7662 N   0  0  0  0  0  0  0  0  0  0  0  0
    0.7216    0.8617   -0.5210 H   0  0  0  0  0  0  0  0  0  0  0  0
    0.5784   -0.7365    0.2249 H   0  0  0  0  0  0  0  0  0  0  0  0
    0.9495   -0.5660   -1.5348 H   0  0  0  0  0  0  0  0  0  0  0  0
    4.4315   -0.2623    1.3793 H   0  0  0  0  0  0  0  0  0  0  0  0
    5.7659   -2.2887    1.9292 H   0  0  0  0  0  0  0  0  0  0  0  0
    2.0178   -2.5486   -1.3908 H   0  0  0  0  0  0  0  0  0  0  0  0
    2.0069   -4.9238   -2.2061 H   0  0  0  0  0  0  0  0  0  0  0  0
    2.1439   -7.2846   -4.1379 H   0  0  0  0  0  0  0  0  0  0  0  0
    2.7282  -10.0719   -1.0834 H   0  0  0  0  0  0  0  0  0  0  0  0
    3.0532   -7.7822   -0.0785 H   0  0  0  0  0  0  0  0  0  0  0  0
    5.9943   -4.9288    1.3958 H   0  0  0  0  0  0  0  0  0  0  0  0
  1  2  1  0  0  0  0
  1 19  1  0  0  0  0
  1 20  1  0  0  0  0
  1 21  1  0  0  0  0
  2  3  1  0  0  0  0
  3  4  1  0  0  0  0
  3  8  2  0  0  0  0
  4  5  2  0  0  0  0
  4 22  1  0  0  0  0
  5  6  1  0  0  0  0
  5 23  1  0  0  0  0
  6  7  2  0  0  0  0
  6 18  1  0  0  0  0
  7  8  1  0  0  0  0
  7  9  1  0  0  0  0
  8 24  1  0  0  0  0
  9 10  2  0  0  0  0
  9 16  1  0  0  0  0
 10 11  1  0  0  0  0
 10 25  1  0  0  0  0
 11 12  2  0  0  0  0
 11 15  1  0  0  0  0
 12 13  1  0  0  0  0
 12 26  1  0  0  0  0
 13 14  2  0  0  0  0
 14 15  1  0  0  0  0
 14 27  1  0  0  0  0
 15 28  1  0  0  0  0
 16 17  2  0  0  0  0
 16 18  1  0  0  0  0
 18 29  1  0  0  0  0
M  END
$$$$
