CHEMBL3690419
 OpenBabel04072215373D

 49 52  0  0  0  0  0  0  0  0999 V2000
    1.1711    0.0530    0.0550 C   0  0  0  0  0  0  0  0  0  0  0  0
    2.6137    0.0770    0.0606 N   0  0  0  0  0  0  0  0  0  0  0  0
    3.4193    1.1793    0.0613 C   0  0  0  0  0  0  0  0  0  0  0  0
    4.7068    0.6995    0.0694 C   0  0  0  0  0  0  0  0  0  0  0  0
    5.8953    1.4777    0.0746 C   0  0  0  0  0  0  0  0  0  0  0  0
    6.9847    2.1940    0.0840 C   0  0  0  0  0  0  0  0  0  0  0  0
    8.2548    3.0290    0.0949 C   0  0  0  0  0  0  0  0  0  0  0  0
    8.1367    4.4754    0.1427 C   0  0  0  0  0  0  0  0  0  0  0  0
    9.2558    5.2165    0.2038 C   0  0  0  0  0  0  0  0  0  0  0  0
   10.5098    4.5924    0.1796 N   0  0  0  0  0  0  0  0  0  0  0  0
   11.8050    5.1166    0.1769 C   0  0  0  0  0  0  0  0  0  0  0  0
   12.1973    6.5328    0.1326 C   0  0  0  0  0  0  0  0  0  0  0  0
   11.4530    7.4703   -0.5944 C   0  0  0  0  0  0  0  0  0  0  0  0
   11.8335    8.8068   -0.6362 C   0  0  0  0  0  0  0  0  0  0  0  0
   12.9973    9.2199    0.0037 C   0  0  0  0  0  0  0  0  0  0  0  0
   13.7885    8.3094    0.7071 C   0  0  0  0  0  0  0  0  0  0  0  0
   15.0141    8.6814    1.3129 N   0  0  0  0  0  0  0  0  0  0  0  0
   15.4244    9.9720    1.5468 C   0  0  0  0  0  0  0  0  0  0  0  0
   14.7466   10.9862    1.4332 O   0  0  0  0  0  0  0  0  0  0  0  0
   16.7510   10.0623    1.8941 N   0  0  0  0  0  0  0  0  0  0  0  0
   17.2964   11.3877    2.2138 C   0  0  0  0  0  0  0  0  0  0  0  0
   16.9360   11.9475    3.5985 C   0  0  0  0  0  0  0  0  0  0  0  0
   16.2961   11.0379    4.3684 F   0  0  0  0  0  0  0  0  0  0  0  0
   18.0688   12.2920    4.2625 F   0  0  0  0  0  0  0  0  0  0  0  0
   16.1668   13.0535    3.5229 F   0  0  0  0  0  0  0  0  0  0  0  0
   13.3782    6.9676    0.7706 C   0  0  0  0  0  0  0  0  0  0  0  0
   12.6174    3.9956    0.1959 C   0  0  0  0  0  0  0  0  0  0  0  0
   11.9024    2.8275    0.1847 N   0  0  0  0  0  0  0  0  0  0  0  0
   10.6461    3.2020    0.1550 C   0  0  0  0  0  0  0  0  0  0  0  0
    9.4559    2.4200    0.1129 C   0  0  0  0  0  0  0  0  0  0  0  0
    4.5743   -0.6999    0.0719 C   0  0  0  0  0  0  0  0  0  0  0  0
    3.2940   -1.0864    0.0666 N   0  0  0  0  0  0  0  0  0  0  0  0
    0.7897    1.0770    0.0534 H   0  0  0  0  0  0  0  0  0  0  0  0
    0.8320   -0.4705    0.9524 H   0  0  0  0  0  0  0  0  0  0  0  0
    0.8388   -0.4707   -0.8448 H   0  0  0  0  0  0  0  0  0  0  0  0
    3.0188    2.1830    0.0561 H   0  0  0  0  0  0  0  0  0  0  0  0
    7.1498    4.9277    0.1412 H   0  0  0  0  0  0  0  0  0  0  0  0
    9.2125    6.2935    0.2749 H   0  0  0  0  0  0  0  0  0  0  0  0
   10.5779    7.1795   -1.1667 H   0  0  0  0  0  0  0  0  0  0  0  0
   11.2394    9.5289   -1.1893 H   0  0  0  0  0  0  0  0  0  0  0  0
   13.2807   10.2609   -0.1008 H   0  0  0  0  0  0  0  0  0  0  0  0
   15.5880    7.9366    1.6800 H   0  0  0  0  0  0  0  0  0  0  0  0
   17.2042    9.2518    2.2942 H   0  0  0  0  0  0  0  0  0  0  0  0
   16.9533   12.0935    1.4470 H   0  0  0  0  0  0  0  0  0  0  0  0
   18.3832   11.3103    2.1130 H   0  0  0  0  0  0  0  0  0  0  0  0
   13.9766    6.2507    1.3302 H   0  0  0  0  0  0  0  0  0  0  0  0
   13.6998    3.9666    0.1952 H   0  0  0  0  0  0  0  0  0  0  0  0
    9.5536    1.3397    0.1042 H   0  0  0  0  0  0  0  0  0  0  0  0
    5.3507   -1.4537    0.0775 H   0  0  0  0  0  0  0  0  0  0  0  0
  1  2  1  0  0  0  0
  1 33  1  0  0  0  0
  1 34  1  0  0  0  0
  1 35  1  0  0  0  0
  2  3  1  0  0  0  0
  2 32  1  0  0  0  0
  3  4  2  0  0  0  0
  3 36  1  0  0  0  0
  4  5  1  0  0  0  0
  4 31  1  0  0  0  0
  5  6  3  0  0  0  0
  6  7  1  0  0  0  0
  7  8  1  0  0  0  0
  7 30  2  0  0  0  0
  8  9  2  0  0  0  0
  8 37  1  0  0  0  0
  9 10  1  0  0  0  0
  9 38  1  0  0  0  0
 10 11  1  0  0  0  0
 10 29  1  0  0  0  0
 11 12  1  0  0  0  0
 11 27  2  0  0  0  0
 12 13  1  0  0  0  0
 12 26  2  0  0  0  0
 13 14  2  0  0  0  0
 13 39  1  0  0  0  0
 14 15  1  0  0  0  0
 14 40  1  0  0  0  0
 15 16  2  0  0  0  0
 15 41  1  0  0  0  0
 16 17  1  0  0  0  0
 16 26  1  0  0  0  0
 17 18  1  0  0  0  0
 17 42  1  0  0  0  0
 18 19  2  0  0  0  0
 18 20  1  0  0  0  0
 20 21  1  0  0  0  0
 20 43  1  0  0  0  0
 21 22  1  0  0  0  0
 21 44  1  0  0  0  0
 21 45  1  0  0  0  0
 22 23  1  0  0  0  0
 22 24  1  0  0  0  0
 22 25  1  0  0  0  0
 26 46  1  0  0  0  0
 27 28  1  0  0  0  0
 27 47  1  0  0  0  0
 28 29  2  0  0  0  0
 29 30  1  0  0  0  0
 30 48  1  0  0  0  0
 31 32  2  0  0  0  0
 31 49  1  0  0  0  0
M  END
$$$$
