CHEMBL4590471
 OpenBabel04072215383D

 54 57  0  0  0  0  0  0  0  0999 V2000
    6.1111    5.3095   -5.2699 C   0  0  0  0  0  0  0  0  0  0  0  0
    4.8671    5.5417   -5.9203 O   0  0  0  0  0  0  0  0  0  0  0  0
    3.7363    5.1298   -5.2642 C   0  0  0  0  0  0  0  0  0  0  0  0
    3.6609    5.1231   -3.8591 C   0  0  0  0  0  0  0  0  0  0  0  0
    2.4860    4.7583   -3.1646 C   0  0  0  0  0  0  0  0  0  0  0  0
    2.5659    4.6615   -1.6498 C   0  0  0  0  0  0  0  0  0  0  0  0
    1.2669    4.6538   -0.8452 C   0  0  0  0  0  0  0  0  0  0  0  0
    0.7529    3.6257   -0.4451 O   0  0  0  0  0  0  0  0  0  0  0  0
    0.7566    5.9255   -0.6579 N   0  0  0  0  0  0  0  0  0  0  0  0
   -0.4192    6.2766    0.0414 C   0  0  0  0  0  0  0  0  0  0  0  0
   -1.0843    7.3790   -0.5144 C   0  0  0  0  0  0  0  0  0  0  0  0
   -2.1097    8.0235    0.1535 C   0  0  0  0  0  0  0  0  0  0  0  0
   -2.4348    7.4830    1.3820 C   0  0  0  0  0  0  0  0  0  0  0  0
   -3.1022    7.9890    2.4532 N   0  0  0  0  0  0  0  0  0  0  0  0
   -3.7111    6.9257    3.0647 C   0  0  0  0  0  0  0  0  0  0  0  0
   -5.0846    7.0811    3.5958 C   0  0  0  0  0  0  0  0  0  0  0  0
   -5.8495    8.1927    3.1636 C   0  0  0  0  0  0  0  0  0  0  0  0
   -7.1779    8.3945    3.5590 C   0  0  0  0  0  0  0  0  0  0  0  0
   -7.7759    7.4684    4.3993 C   0  0  0  0  0  0  0  0  0  0  0  0
   -9.4106    7.7064    4.8816 Cl  0  0  0  0  0  0  0  0  0  0  0  0
   -7.0569    6.3543    4.8312 C   0  0  0  0  0  0  0  0  0  0  0  0
   -5.7172    6.1539    4.4276 C   0  0  0  0  0  0  0  0  0  0  0  0
   -2.8694    5.8979    2.9360 N   0  0  0  0  0  0  0  0  0  0  0  0
   -2.0142    6.2580    1.8724 C   0  0  0  0  0  0  0  0  0  0  0  0
   -0.9039    5.6570    1.2238 C   0  0  0  0  0  0  0  0  0  0  0  0
    1.3627    4.4103   -3.9190 C   0  0  0  0  0  0  0  0  0  0  0  0
    1.4018    4.4624   -5.3258 C   0  0  0  0  0  0  0  0  0  0  0  0
    0.3221    4.1241   -6.1123 O   0  0  0  0  0  0  0  0  0  0  0  0
   -0.9550    4.4412   -5.5723 C   0  0  0  0  0  0  0  0  0  0  0  0
    2.5943    4.7936   -6.0083 C   0  0  0  0  0  0  0  0  0  0  0  0
    2.4996    4.8269   -7.3817 O   0  0  0  0  0  0  0  0  0  0  0  0
    3.6397    4.4082   -8.1223 C   0  0  0  0  0  0  0  0  0  0  0  0
    6.9068    5.4880   -5.9965 H   0  0  0  0  0  0  0  0  0  0  0  0
    6.1943    4.2707   -4.9328 H   0  0  0  0  0  0  0  0  0  0  0  0
    6.2639    6.0133   -4.4385 H   0  0  0  0  0  0  0  0  0  0  0  0
    4.5210    5.4252   -3.2737 H   0  0  0  0  0  0  0  0  0  0  0  0
    3.1821    5.4904   -1.2740 H   0  0  0  0  0  0  0  0  0  0  0  0
    3.0995    3.7372   -1.4020 H   0  0  0  0  0  0  0  0  0  0  0  0
    1.1245    6.6384   -1.2777 H   0  0  0  0  0  0  0  0  0  0  0  0
   -0.7908    7.7607   -1.4891 H   0  0  0  0  0  0  0  0  0  0  0  0
   -2.6086    8.8938   -0.2554 H   0  0  0  0  0  0  0  0  0  0  0  0
   -3.2614    8.9646    2.6587 H   0  0  0  0  0  0  0  0  0  0  0  0
   -5.4444    8.9241    2.4688 H   0  0  0  0  0  0  0  0  0  0  0  0
   -7.7265    9.2572    3.1925 H   0  0  0  0  0  0  0  0  0  0  0  0
   -7.5409    5.6254    5.4772 H   0  0  0  0  0  0  0  0  0  0  0  0
   -5.1903    5.2643    4.7606 H   0  0  0  0  0  0  0  0  0  0  0  0
   -0.4188    4.7917    1.6627 H   0  0  0  0  0  0  0  0  0  0  0  0
    0.4629    4.0705   -3.4133 H   0  0  0  0  0  0  0  0  0  0  0  0
   -1.6762    4.4458   -6.3972 H   0  0  0  0  0  0  0  0  0  0  0  0
   -0.9660    5.4372   -5.1168 H   0  0  0  0  0  0  0  0  0  0  0  0
   -1.2706    3.6771   -4.8565 H   0  0  0  0  0  0  0  0  0  0  0  0
    3.3031    4.1408   -9.1295 H   0  0  0  0  0  0  0  0  0  0  0  0
    4.1170    3.5222   -7.6894 H   0  0  0  0  0  0  0  0  0  0  0  0
    4.3540    5.2275   -8.2385 H   0  0  0  0  0  0  0  0  0  0  0  0
  1  2  1  0  0  0  0
  1 33  1  0  0  0  0
  1 34  1  0  0  0  0
  1 35  1  0  0  0  0
  2  3  1  0  0  0  0
  3  4  1  0  0  0  0
  3 30  2  0  0  0  0
  4  5  2  0  0  0  0
  4 36  1  0  0  0  0
  5  6  1  0  0  0  0
  5 26  1  0  0  0  0
  6  7  1  0  0  0  0
  6 37  1  0  0  0  0
  6 38  1  0  0  0  0
  7  8  2  0  0  0  0
  7  9  1  0  0  0  0
  9 10  1  0  0  0  0
  9 39  1  0  0  0  0
 10 11  1  0  0  0  0
 10 25  2  0  0  0  0
 11 12  2  0  0  0  0
 11 40  1  0  0  0  0
 12 13  1  0  0  0  0
 12 41  1  0  0  0  0
 13 14  1  0  0  0  0
 13 24  2  0  0  0  0
 14 15  1  0  0  0  0
 14 42  1  0  0  0  0
 15 16  1  0  0  0  0
 15 23  2  0  0  0  0
 16 17  1  0  0  0  0
 16 22  2  0  0  0  0
 17 18  2  0  0  0  0
 17 43  1  0  0  0  0
 18 19  1  0  0  0  0
 18 44  1  0  0  0  0
 19 20  1  0  0  0  0
 19 21  2  0  0  0  0
 21 22  1  0  0  0  0
 21 45  1  0  0  0  0
 22 46  1  0  0  0  0
 23 24  1  0  0  0  0
 24 25  1  0  0  0  0
 25 47  1  0  0  0  0
 26 27  2  0  0  0  0
 26 48  1  0  0  0  0
 27 28  1  0  0  0  0
 27 30  1  0  0  0  0
 28 29  1  0  0  0  0
 29 49  1  0  0  0  0
 29 50  1  0  0  0  0
 29 51  1  0  0  0  0
 30 31  1  0  0  0  0
 31 32  1  0  0  0  0
 32 52  1  0  0  0  0
 32 53  1  0  0  0  0
 32 54  1  0  0  0  0
M  END
$$$$
