CHEMBL4218013
 OpenBabel04072215383D

 71 74  0  0  0  0  0  0  0  0999 V2000
    8.8172  -14.1024   -8.3204 C   0  0  0  0  0  0  0  0  0  0  0  0
    8.2147  -13.4623   -7.0858 C   0  0  0  0  0  0  0  0  0  0  0  0
    6.7936  -13.5904   -7.1147 O   0  0  0  0  0  0  0  0  0  0  0  0
    6.1103  -13.0744   -6.0253 C   0  0  0  0  0  0  0  0  0  0  0  0
    6.6603  -12.4232   -4.9810 C   0  0  0  0  0  0  0  0  0  0  0  0
    5.8932  -11.9460   -3.8416 C   0  0  0  0  0  0  0  0  0  0  0  0
    6.5528  -11.3565   -2.6614 C   0  0  0  0  0  0  0  0  0  0  0  0
    7.0677  -12.2170   -1.6877 C   0  0  0  0  0  0  0  0  0  0  0  0
    7.7749  -11.7187   -0.5878 C   0  0  0  0  0  0  0  0  0  0  0  0
    8.0063  -10.3522   -0.4361 C   0  0  0  0  0  0  0  0  0  0  0  0
    8.7463   -9.8033    0.6511 N   0  0  0  0  0  0  0  0  0  0  0  0
    9.4478  -10.5271    1.6137 C   0  0  0  0  0  0  0  0  0  0  0  0
    9.6042  -11.7424    1.6029 O   0  0  0  0  0  0  0  0  0  0  0  0
    9.9063   -9.7199    2.6483 N   0  0  0  0  0  0  0  0  0  0  0  0
   10.5180  -10.2549    3.8162 C   0  0  0  0  0  0  0  0  0  0  0  0
   10.0959   -9.7681    5.0470 C   0  0  0  0  0  0  0  0  0  0  0  0
   10.6311  -10.2788    6.2357 C   0  0  0  0  0  0  0  0  0  0  0  0
   11.6599  -11.2478    6.2491 C   0  0  0  0  0  0  0  0  0  0  0  0
   12.1529  -11.7162    7.6168 C   0  0  0  0  0  0  0  0  0  0  0  0
   13.1910  -10.9674    8.3353 N   0  0  0  0  0  0  0  0  0  0  0  0
   12.9844   -9.5355    8.5296 C   0  0  0  0  0  0  0  0  0  0  0  0
   13.4557   -8.6555    7.3530 C   0  0  0  0  0  0  0  0  0  0  0  0
   14.8047   -8.9162    6.8282 N   0  0  0  0  0  0  0  0  0  0  0  0
   15.8534   -8.0598    7.3802 C   0  0  0  0  0  0  0  0  0  0  0  0
   15.6425   -6.5831    7.0393 C   0  0  0  0  0  0  0  0  0  0  0  0
   15.1574  -10.3502    6.8402 C   0  0  0  0  0  0  0  0  0  0  0  0
   14.5866  -11.2202    7.9831 C   0  0  0  0  0  0  0  0  0  0  0  0
   12.0919  -11.7567    5.0006 C   0  0  0  0  0  0  0  0  0  0  0  0
   13.1245  -12.8554    4.8310 C   0  0  0  0  0  0  0  0  0  0  0  0
   13.6664  -13.3378    5.9812 F   0  0  0  0  0  0  0  0  0  0  0  0
   12.6156  -13.9490    4.1949 F   0  0  0  0  0  0  0  0  0  0  0  0
   14.1906  -12.4571    4.0791 F   0  0  0  0  0  0  0  0  0  0  0  0
   11.5038  -11.2499    3.7992 C   0  0  0  0  0  0  0  0  0  0  0  0
    7.4657   -9.4948   -1.4092 C   0  0  0  0  0  0  0  0  0  0  0  0
    7.6385   -8.1677   -1.2941 F   0  0  0  0  0  0  0  0  0  0  0  0
    6.7513   -9.9809   -2.5153 C   0  0  0  0  0  0  0  0  0  0  0  0
    4.5659  -12.1511   -3.8348 C   0  0  0  0  0  0  0  0  0  0  0  0
    3.9550  -12.7805   -4.8938 N   0  0  0  0  0  0  0  0  0  0  0  0
    4.6158  -13.2757   -5.9987 C   0  0  0  0  0  0  0  0  0  0  0  0
    4.0043  -13.8496   -6.8951 O   0  0  0  0  0  0  0  0  0  0  0  0
    9.9070  -14.0027   -8.3029 H   0  0  0  0  0  0  0  0  0  0  0  0
    8.4351  -13.6298   -9.2303 H   0  0  0  0  0  0  0  0  0  0  0  0
    8.5623  -15.1653   -8.3723 H   0  0  0  0  0  0  0  0  0  0  0  0
    8.4898  -12.4015   -7.0708 H   0  0  0  0  0  0  0  0  0  0  0  0
    8.6167  -13.9663   -6.1988 H   0  0  0  0  0  0  0  0  0  0  0  0
    7.7269  -12.2447   -4.9218 H   0  0  0  0  0  0  0  0  0  0  0  0
    6.9418  -13.2946   -1.7807 H   0  0  0  0  0  0  0  0  0  0  0  0
    8.1376  -12.4460    0.1318 H   0  0  0  0  0  0  0  0  0  0  0  0
    8.8688   -8.7973    0.6343 H   0  0  0  0  0  0  0  0  0  0  0  0
    9.3684   -8.8765    2.7849 H   0  0  0  0  0  0  0  0  0  0  0  0
    9.2983   -9.0330    5.1084 H   0  0  0  0  0  0  0  0  0  0  0  0
   10.2262   -9.9089    7.1768 H   0  0  0  0  0  0  0  0  0  0  0  0
   12.3997  -12.7822    7.5963 H   0  0  0  0  0  0  0  0  0  0  0  0
   11.2713  -11.7111    8.2754 H   0  0  0  0  0  0  0  0  0  0  0  0
   13.5531   -9.2362    9.4220 H   0  0  0  0  0  0  0  0  0  0  0  0
   11.9397   -9.3189    8.7794 H   0  0  0  0  0  0  0  0  0  0  0  0
   13.3242   -7.6113    7.6510 H   0  0  0  0  0  0  0  0  0  0  0  0
   12.7724   -8.7766    6.5110 H   0  0  0  0  0  0  0  0  0  0  0  0
   16.8133   -8.3377    6.9260 H   0  0  0  0  0  0  0  0  0  0  0  0
   15.9555   -8.1904    8.4628 H   0  0  0  0  0  0  0  0  0  0  0  0
   15.4403   -6.4477    5.9705 H   0  0  0  0  0  0  0  0  0  0  0  0
   16.5410   -6.0077    7.2833 H   0  0  0  0  0  0  0  0  0  0  0  0
   14.8154   -6.1415    7.6027 H   0  0  0  0  0  0  0  0  0  0  0  0
   16.2479  -10.4814    6.8272 H   0  0  0  0  0  0  0  0  0  0  0  0
   14.8122  -10.7691    5.8911 H   0  0  0  0  0  0  0  0  0  0  0  0
   15.1850  -11.0130    8.8825 H   0  0  0  0  0  0  0  0  0  0  0  0
   14.7596  -12.2829    7.7807 H   0  0  0  0  0  0  0  0  0  0  0  0
   11.8433  -11.6492    2.8411 H   0  0  0  0  0  0  0  0  0  0  0  0
    6.3748   -9.2824   -3.2580 H   0  0  0  0  0  0  0  0  0  0  0  0
    3.9221  -11.8575   -3.0112 H   0  0  0  0  0  0  0  0  0  0  0  0
    2.9539  -12.9526   -4.8709 H   0  0  0  0  0  0  0  0  0  0  0  0
  1  2  1  0  0  0  0
  1 41  1  0  0  0  0
  1 42  1  0  0  0  0
  1 43  1  0  0  0  0
  2  3  1  0  0  0  0
  2 44  1  0  0  0  0
  2 45  1  0  0  0  0
  3  4  1  0  0  0  0
  4  5  2  0  0  0  0
  4 39  1  0  0  0  0
  5  6  1  0  0  0  0
  5 46  1  0  0  0  0
  6  7  1  0  0  0  0
  6 37  2  0  0  0  0
  7  8  1  0  0  0  0
  7 36  2  0  0  0  0
  8  9  2  0  0  0  0
  8 47  1  0  0  0  0
  9 10  1  0  0  0  0
  9 48  1  0  0  0  0
 10 11  1  0  0  0  0
 10 34  2  0  0  0  0
 11 12  1  0  0  0  0
 11 49  1  0  0  0  0
 12 13  2  0  0  0  0
 12 14  1  0  0  0  0
 14 15  1  0  0  0  0
 14 50  1  0  0  0  0
 15 16  1  0  0  0  0
 15 33  2  0  0  0  0
 16 17  2  0  0  0  0
 16 51  1  0  0  0  0
 17 18  1  0  0  0  0
 17 52  1  0  0  0  0
 18 19  1  0  0  0  0
 18 28  2  0  0  0  0
 19 20  1  0  0  0  0
 19 53  1  0  0  0  0
 19 54  1  0  0  0  0
 20 21  1  0  0  0  0
 20 27  1  0  0  0  0
 21 22  1  0  0  0  0
 21 55  1  0  0  0  0
 21 56  1  0  0  0  0
 22 23  1  0  0  0  0
 22 57  1  0  0  0  0
 22 58  1  0  0  0  0
 23 24  1  0  0  0  0
 23 26  1  0  0  0  0
 24 25  1  0  0  0  0
 24 59  1  0  0  0  0
 24 60  1  0  0  0  0
 25 61  1  0  0  0  0
 25 62  1  0  0  0  0
 25 63  1  0  0  0  0
 26 27  1  0  0  0  0
 26 64  1  0  0  0  0
 26 65  1  0  0  0  0
 27 66  1  0  0  0  0
 27 67  1  0  0  0  0
 28 29  1  0  0  0  0
 28 33  1  0  0  0  0
 29 30  1  0  0  0  0
 29 31  1  0  0  0  0
 29 32  1  0  0  0  0
 33 68  1  0  0  0  0
 34 35  1  0  0  0  0
 34 36  1  0  0  0  0
 36 69  1  0  0  0  0
 37 38  1  0  0  0  0
 37 70  1  0  0  0  0
 38 39  1  0  0  0  0
 38 71  1  0  0  0  0
 39 40  2  0  0  0  0
M  END
$$$$
