CHEMBL1823219
 OpenBabel04072215363D

 61 66  0  0  0  0  0  0  0  0999 V2000
    0.8934   -0.1909   -0.1711 C   0  0  0  0  0  0  0  0  0  0  0  0
    2.3905   -0.0427   -0.0710 C   0  0  0  0  0  0  0  0  0  0  0  0
    3.1155   -1.2489   -0.0381 C   0  0  0  0  0  0  0  0  0  0  0  0
    4.5129   -1.2704   -0.0370 C   0  0  0  0  0  0  0  0  0  0  0  0
    5.2398   -0.0689   -0.0429 C   0  0  0  0  0  0  0  0  0  0  0  0
    4.4957    1.1281   -0.0292 C   0  0  0  0  0  0  0  0  0  0  0  0
    3.0820    1.1894   -0.0473 C   0  0  0  0  0  0  0  0  0  0  0  0
    2.4871    2.4423    0.0128 N   0  0  0  0  0  0  0  0  0  0  0  0
    2.9912    3.5699   -0.7961 C   0  0  0  0  0  0  0  0  0  0  0  0
    2.8337    4.9014   -0.0251 C   0  0  0  0  0  0  0  0  0  0  0  0
    1.4835    5.1834    0.5116 N   0  0  0  0  0  0  0  0  0  0  0  0
    0.4867    5.3940   -0.5599 C   0  0  0  0  0  0  0  0  0  0  0  0
    0.6951    6.7014   -1.3399 C   0  0  0  0  0  0  0  0  0  0  0  0
   -0.6720    7.1162   -1.0569 O   0  0  0  0  0  0  0  0  0  0  0  0
   -0.7277    6.1466    0.0244 C   0  0  0  0  0  0  0  0  0  0  0  0
    1.0738    4.0163    1.3273 C   0  0  0  0  0  0  0  0  0  0  0  0
    1.1752    2.6419    0.6322 C   0  0  0  0  0  0  0  0  0  0  0  0
    6.7834   -0.0206   -0.0752 C   0  0  0  0  0  0  0  0  0  0  0  0
    7.2355    0.6819   -1.3749 C   0  0  0  0  0  0  0  0  0  0  0  0
    7.3173    0.7510    1.1518 C   0  0  0  0  0  0  0  0  0  0  0  0
    7.3435   -1.4217   -0.0615 C   0  0  0  0  0  0  0  0  0  0  0  0
    8.6726   -1.7573   -0.0659 N   0  0  0  0  0  0  0  0  0  0  0  0
    8.8101   -3.1305   -0.0673 C   0  0  0  0  0  0  0  0  0  0  0  0
    9.9602   -3.9252   -0.0739 C   0  0  0  0  0  0  0  0  0  0  0  0
    9.7830   -5.3171   -0.0763 C   0  0  0  0  0  0  0  0  0  0  0  0
   10.9366   -6.1692   -0.0777 C   0  0  0  0  0  0  0  0  0  0  0  0
   11.8730   -6.8500   -0.0779 N   0  0  0  0  0  0  0  0  0  0  0  0
    8.5094   -5.8873   -0.0764 C   0  0  0  0  0  0  0  0  0  0  0  0
    7.3746   -5.0766   -0.0695 C   0  0  0  0  0  0  0  0  0  0  0  0
    7.5266   -3.6776   -0.0629 C   0  0  0  0  0  0  0  0  0  0  0  0
    6.6136   -2.5932   -0.0537 C   0  0  0  0  0  0  0  0  0  0  0  0
    5.1702   -2.6072   -0.0429 C   0  0  0  0  0  0  0  0  0  0  0  0
    4.5109   -3.6409   -0.0420 O   0  0  0  0  0  0  0  0  0  0  0  0
    0.6021   -1.2268   -0.3801 H   0  0  0  0  0  0  0  0  0  0  0  0
    0.5036    0.4116   -0.9962 H   0  0  0  0  0  0  0  0  0  0  0  0
    0.4018    0.0709    0.7687 H   0  0  0  0  0  0  0  0  0  0  0  0
    2.5767   -2.1969   -0.0331 H   0  0  0  0  0  0  0  0  0  0  0  0
    5.0489    2.0606    0.0382 H   0  0  0  0  0  0  0  0  0  0  0  0
    2.4481    3.6142   -1.7474 H   0  0  0  0  0  0  0  0  0  0  0  0
    4.0498    3.4713   -1.0585 H   0  0  0  0  0  0  0  0  0  0  0  0
    3.1886    5.7360   -0.6395 H   0  0  0  0  0  0  0  0  0  0  0  0
    3.5193    4.8678    0.8348 H   0  0  0  0  0  0  0  0  0  0  0  0
    0.2315    4.5388   -1.1934 H   0  0  0  0  0  0  0  0  0  0  0  0
    0.8491    6.5674   -2.4150 H   0  0  0  0  0  0  0  0  0  0  0  0
    1.4107    7.4313   -0.9503 H   0  0  0  0  0  0  0  0  0  0  0  0
   -1.6648    5.5831    0.0257 H   0  0  0  0  0  0  0  0  0  0  0  0
   -0.5983    6.6443    0.9927 H   0  0  0  0  0  0  0  0  0  0  0  0
    0.0525    4.1471    1.7044 H   0  0  0  0  0  0  0  0  0  0  0  0
    1.7136    3.9907    2.2193 H   0  0  0  0  0  0  0  0  0  0  0  0
    0.3858    2.5396   -0.1214 H   0  0  0  0  0  0  0  0  0  0  0  0
    1.0078    1.9080    1.4245 H   0  0  0  0  0  0  0  0  0  0  0  0
    6.8557    1.7073   -1.4454 H   0  0  0  0  0  0  0  0  0  0  0  0
    6.8809    0.1408   -2.2614 H   0  0  0  0  0  0  0  0  0  0  0  0
    8.3283    0.7395   -1.4429 H   0  0  0  0  0  0  0  0  0  0  0  0
    6.9503    1.7826    1.1880 H   0  0  0  0  0  0  0  0  0  0  0  0
    8.4124    0.8075    1.1462 H   0  0  0  0  0  0  0  0  0  0  0  0
    7.0185    0.2645    2.0885 H   0  0  0  0  0  0  0  0  0  0  0  0
    9.4467   -1.1065   -0.0715 H   0  0  0  0  0  0  0  0  0  0  0  0
   10.9518   -3.4818   -0.0748 H   0  0  0  0  0  0  0  0  0  0  0  0
    8.3823   -6.9685   -0.0796 H   0  0  0  0  0  0  0  0  0  0  0  0
    6.3800   -5.5189   -0.0684 H   0  0  0  0  0  0  0  0  0  0  0  0
  1  2  1  0  0  0  0
  1 34  1  0  0  0  0
  1 35  1  0  0  0  0
  1 36  1  0  0  0  0
  2  3  1  0  0  0  0
  2  7  2  0  0  0  0
  3  4  2  0  0  0  0
  3 37  1  0  0  0  0
  4  5  1  0  0  0  0
  4 32  1  0  0  0  0
  5  6  2  0  0  0  0
  5 18  1  0  0  0  0
  6  7  1  0  0  0  0
  6 38  1  0  0  0  0
  7  8  1  0  0  0  0
  8  9  1  0  0  0  0
  8 17  1  0  0  0  0
  9 10  1  0  0  0  0
  9 39  1  0  0  0  0
  9 40  1  0  0  0  0
 10 11  1  0  0  0  0
 10 41  1  0  0  0  0
 10 42  1  0  0  0  0
 11 12  1  0  0  0  0
 11 16  1  0  0  0  0
 12 13  1  0  0  0  0
 12 15  1  0  0  0  0
 12 43  1  0  0  0  0
 13 14  1  0  0  0  0
 13 44  1  0  0  0  0
 13 45  1  0  0  0  0
 14 15  1  0  0  0  0
 15 46  1  0  0  0  0
 15 47  1  0  0  0  0
 16 17  1  0  0  0  0
 16 48  1  0  0  0  0
 16 49  1  0  0  0  0
 17 50  1  0  0  0  0
 17 51  1  0  0  0  0
 18 19  1  0  0  0  0
 18 20  1  0  0  0  0
 18 21  1  0  0  0  0
 19 52  1  0  0  0  0
 19 53  1  0  0  0  0
 19 54  1  0  0  0  0
 20 55  1  0  0  0  0
 20 56  1  0  0  0  0
 20 57  1  0  0  0  0
 21 22  1  0  0  0  0
 21 31  2  0  0  0  0
 22 23  1  0  0  0  0
 22 58  1  0  0  0  0
 23 24  1  0  0  0  0
 23 30  2  0  0  0  0
 24 25  2  0  0  0  0
 24 59  1  0  0  0  0
 25 26  1  0  0  0  0
 25 28  1  0  0  0  0
 26 27  3  0  0  0  0
 28 29  2  0  0  0  0
 28 60  1  0  0  0  0
 29 30  1  0  0  0  0
 29 61  1  0  0  0  0
 30 31  1  0  0  0  0
 31 32  1  0  0  0  0
 32 33  2  0  0  0  0
M  END
$$$$
