CHEMBL3909831
 OpenBabel04072215373D

 55 58  0  0  0  0  0  0  0  0999 V2000
    7.3616   -4.2890    9.3981 C   0  0  0  0  0  0  0  0  0  0  0  0
    5.9474   -4.1980    8.8448 C   0  0  0  0  0  0  0  0  0  0  0  0
    5.3714   -5.4303    8.9474 F   0  0  0  0  0  0  0  0  0  0  0  0
    5.2310   -3.4225    9.7193 F   0  0  0  0  0  0  0  0  0  0  0  0
    5.9117   -3.6294    7.4425 C   0  0  0  0  0  0  0  0  0  0  0  0
    5.7720   -2.2327    7.2949 C   0  0  0  0  0  0  0  0  0  0  0  0
    5.7055   -1.6174    6.0379 C   0  0  0  0  0  0  0  0  0  0  0  0
    5.6027   -0.2161    5.8907 N   0  0  0  0  0  0  0  0  0  0  0  0
    6.0742    0.6946    6.8249 C   0  0  0  0  0  0  0  0  0  0  0  0
    6.7691    0.3979    7.7910 O   0  0  0  0  0  0  0  0  0  0  0  0
    5.6520    1.9850    6.5471 N   0  0  0  0  0  0  0  0  0  0  0  0
    6.0322    3.0866    7.3557 C   0  0  0  0  0  0  0  0  0  0  0  0
    7.3168    3.2190    7.8898 C   0  0  0  0  0  0  0  0  0  0  0  0
    7.6263    4.3058    8.7230 C   0  0  0  0  0  0  0  0  0  0  0  0
    6.6547    5.2622    9.0377 C   0  0  0  0  0  0  0  0  0  0  0  0
    7.0502    6.2967    9.8650 O   0  0  0  0  0  0  0  0  0  0  0  0
    6.1564    6.8379   10.7666 C   0  0  0  0  0  0  0  0  0  0  0  0
    5.1581    6.0981   11.3892 C   0  0  0  0  0  0  0  0  0  0  0  0
    4.2975    6.7659   12.2293 C   0  0  0  0  0  0  0  0  0  0  0  0
    4.4127    8.0745   12.5232 N   0  0  0  0  0  0  0  0  0  0  0  0
    5.4243    8.7776   11.9840 C   0  0  0  0  0  0  0  0  0  0  0  0
    5.5669   10.1402   12.3212 N   0  0  0  0  0  0  0  0  0  0  0  0
    4.7080   10.8194   13.1646 C   0  0  0  0  0  0  0  0  0  0  0  0
    3.7269   10.3665   13.7424 O   0  0  0  0  0  0  0  0  0  0  0  0
    4.9826   12.2687   13.3982 C   0  0  0  0  0  0  0  0  0  0  0  0
    4.9225   13.2210   12.2278 C   0  0  0  0  0  0  0  0  0  0  0  0
    6.2022   13.0476   12.9942 C   0  0  0  0  0  0  0  0  0  0  0  0
    6.3220    8.1899   11.0974 C   0  0  0  0  0  0  0  0  0  0  0  0
    5.3871    5.1620    8.4580 C   0  0  0  0  0  0  0  0  0  0  0  0
    5.0876    4.0781    7.6319 C   0  0  0  0  0  0  0  0  0  0  0  0
    3.8439    3.9603    7.1399 F   0  0  0  0  0  0  0  0  0  0  0  0
    5.7267   -2.4210    4.8986 C   0  0  0  0  0  0  0  0  0  0  0  0
    5.8965   -3.8050    5.0221 C   0  0  0  0  0  0  0  0  0  0  0  0
    6.0101   -4.4053    6.2833 C   0  0  0  0  0  0  0  0  0  0  0  0
    6.2991   -6.1064    6.3238 Cl  0  0  0  0  0  0  0  0  0  0  0  0
    7.3347   -4.6988   10.4138 H   0  0  0  0  0  0  0  0  0  0  0  0
    7.8308   -3.3012    9.4572 H   0  0  0  0  0  0  0  0  0  0  0  0
    7.9954   -4.9452    8.7942 H   0  0  0  0  0  0  0  0  0  0  0  0
    5.6943   -1.6293    8.1989 H   0  0  0  0  0  0  0  0  0  0  0  0
    5.4758    0.1466    4.9558 H   0  0  0  0  0  0  0  0  0  0  0  0
    4.7300    2.0507    6.1308 H   0  0  0  0  0  0  0  0  0  0  0  0
    8.0915    2.4908    7.6655 H   0  0  0  0  0  0  0  0  0  0  0  0
    8.6299    4.3916    9.1338 H   0  0  0  0  0  0  0  0  0  0  0  0
    5.0263    5.0400   11.2237 H   0  0  0  0  0  0  0  0  0  0  0  0
    3.4599    6.2644   12.7045 H   0  0  0  0  0  0  0  0  0  0  0  0
    6.3350   10.6425   11.9059 H   0  0  0  0  0  0  0  0  0  0  0  0
    4.5060   12.6108   14.3160 H   0  0  0  0  0  0  0  0  0  0  0  0
    4.3466   14.1295   12.3669 H   0  0  0  0  0  0  0  0  0  0  0  0
    4.8636   12.8134   11.2256 H   0  0  0  0  0  0  0  0  0  0  0  0
    6.5034   13.8610   13.6483 H   0  0  0  0  0  0  0  0  0  0  0  0
    7.0355   12.5573   12.5133 H   0  0  0  0  0  0  0  0  0  0  0  0
    7.1357    8.7565   10.6601 H   0  0  0  0  0  0  0  0  0  0  0  0
    4.6125    5.8962    8.6518 H   0  0  0  0  0  0  0  0  0  0  0  0
    5.6500   -1.9903    3.9045 H   0  0  0  0  0  0  0  0  0  0  0  0
    5.9530   -4.4164    4.1221 H   0  0  0  0  0  0  0  0  0  0  0  0
  1  2  1  0  0  0  0
  1 36  1  0  0  0  0
  1 37  1  0  0  0  0
  1 38  1  0  0  0  0
  2  3  1  0  0  0  0
  2  4  1  0  0  0  0
  2  5  1  0  0  0  0
  5  6  1  0  0  0  0
  5 34  2  0  0  0  0
  6  7  2  0  0  0  0
  6 39  1  0  0  0  0
  7  8  1  0  0  0  0
  7 32  1  0  0  0  0
  8  9  1  0  0  0  0
  8 40  1  0  0  0  0
  9 10  2  0  0  0  0
  9 11  1  0  0  0  0
 11 12  1  0  0  0  0
 11 41  1  0  0  0  0
 12 13  1  0  0  0  0
 12 30  2  0  0  0  0
 13 14  2  0  0  0  0
 13 42  1  0  0  0  0
 14 15  1  0  0  0  0
 14 43  1  0  0  0  0
 15 16  1  0  0  0  0
 15 29  2  0  0  0  0
 16 17  1  0  0  0  0
 17 18  1  0  0  0  0
 17 28  2  0  0  0  0
 18 19  2  0  0  0  0
 18 44  1  0  0  0  0
 19 20  1  0  0  0  0
 19 45  1  0  0  0  0
 20 21  2  0  0  0  0
 21 22  1  0  0  0  0
 21 28  1  0  0  0  0
 22 23  1  0  0  0  0
 22 46  1  0  0  0  0
 23 24  2  0  0  0  0
 23 25  1  0  0  0  0
 25 26  1  0  0  0  0
 25 27  1  0  0  0  0
 25 47  1  0  0  0  0
 26 27  1  0  0  0  0
 26 48  1  0  0  0  0
 26 49  1  0  0  0  0
 27 50  1  0  0  0  0
 27 51  1  0  0  0  0
 28 52  1  0  0  0  0
 29 30  1  0  0  0  0
 29 53  1  0  0  0  0
 30 31  1  0  0  0  0
 32 33  2  0  0  0  0
 32 54  1  0  0  0  0
 33 34  1  0  0  0  0
 33 55  1  0  0  0  0
 34 35  1  0  0  0  0
M  END
$$$$
