CHEMBL2407749
 OpenBabel04072215363D

 44 48  0  0  0  0  0  0  0  0999 V2000
   -2.8654    0.7200   -0.1100 O   0  0  0  0  0  0  0  0  0  0  0  0
   -1.7985    0.3918   -0.5911 C   0  0  0  0  0  0  0  0  0  0  0  0
   -0.8637    1.2097   -1.2041 N   0  0  0  0  0  0  0  0  0  0  0  0
    0.2427    0.4815   -1.6366 C   0  0  0  0  0  0  0  0  0  0  0  0
    1.3498    0.9813   -2.2951 C   0  0  0  0  0  0  0  0  0  0  0  0
    2.3436    0.0731   -2.6656 C   0  0  0  0  0  0  0  0  0  0  0  0
    2.2006   -1.2968   -2.3869 C   0  0  0  0  0  0  0  0  0  0  0  0
    1.0656   -1.7804   -1.7229 C   0  0  0  0  0  0  0  0  0  0  0  0
    0.0949   -0.8760   -1.3288 C   0  0  0  0  0  0  0  0  0  0  0  0
   -1.1911   -0.9874   -0.6261 C   0  0  0  0  0  0  0  0  0  0  0  0
   -1.8084   -2.0061   -0.0119 C   0  0  0  0  0  0  0  0  0  0  0  0
   -1.2287   -3.3362    0.1675 C   0  0  0  0  0  0  0  0  0  0  0  0
   -0.4590   -3.5731    1.3094 C   0  0  0  0  0  0  0  0  0  0  0  0
    0.2203   -4.7862    1.4830 C   0  0  0  0  0  0  0  0  0  0  0  0
    0.1094   -5.7964    0.5068 C   0  0  0  0  0  0  0  0  0  0  0  0
    0.6360   -7.1162    0.2827 C   0  0  0  0  0  0  0  0  0  0  0  0
    1.5516   -7.8244    1.1341 C   0  0  0  0  0  0  0  0  0  0  0  0
    2.0317   -9.0727    0.8904 C   0  0  0  0  0  0  0  0  0  0  0  0
    2.9518   -9.8306    1.7441 C   0  0  0  0  0  0  0  0  0  0  0  0
    3.0058   -9.6698    3.1279 C   0  0  0  0  0  0  0  0  0  0  0  0
    3.8411  -10.5017    3.8494 C   0  0  0  0  0  0  0  0  0  0  0  0
    4.6128  -11.4647    3.2993 N   0  0  0  0  0  0  0  0  0  0  0  0
    4.5369  -11.6097    1.9597 C   0  0  0  0  0  0  0  0  0  0  0  0
    3.7306  -10.8303    1.1507 C   0  0  0  0  0  0  0  0  0  0  0  0
    0.1626   -7.6323   -0.8603 N   0  0  0  0  0  0  0  0  0  0  0  0
   -0.6372   -6.6793   -1.3564 N   0  0  0  0  0  0  0  0  0  0  0  0
   -0.7040   -5.5426   -0.6018 C   0  0  0  0  0  0  0  0  0  0  0  0
   -1.3844   -4.3324   -0.8031 C   0  0  0  0  0  0  0  0  0  0  0  0
   -0.9979    2.2023   -1.3166 H   0  0  0  0  0  0  0  0  0  0  0  0
    1.4511    2.0364   -2.5212 H   0  0  0  0  0  0  0  0  0  0  0  0
    3.2343    0.4242   -3.1826 H   0  0  0  0  0  0  0  0  0  0  0  0
    2.9806   -1.9922   -2.6916 H   0  0  0  0  0  0  0  0  0  0  0  0
    0.9705   -2.8443   -1.5400 H   0  0  0  0  0  0  0  0  0  0  0  0
   -2.7720   -1.8556    0.4722 H   0  0  0  0  0  0  0  0  0  0  0  0
   -0.3538   -2.8047    2.0748 H   0  0  0  0  0  0  0  0  0  0  0  0
    0.8415   -4.9016    2.3683 H   0  0  0  0  0  0  0  0  0  0  0  0
    1.8788   -7.3039    2.0216 H   0  0  0  0  0  0  0  0  0  0  0  0
    1.7300   -9.6094   -0.0026 H   0  0  0  0  0  0  0  0  0  0  0  0
    2.3897   -8.9409    3.6390 H   0  0  0  0  0  0  0  0  0  0  0  0
    3.9047  -10.4221    4.9307 H   0  0  0  0  0  0  0  0  0  0  0  0
    5.1537  -12.3990    1.5395 H   0  0  0  0  0  0  0  0  0  0  0  0
    3.7024  -11.0122    0.0814 H   0  0  0  0  0  0  0  0  0  0  0  0
   -1.1056   -6.8655   -2.2340 H   0  0  0  0  0  0  0  0  0  0  0  0
   -1.9878   -4.1627   -1.6905 H   0  0  0  0  0  0  0  0  0  0  0  0
  1  2  2  0  0  0  0
  2  3  1  0  0  0  0
  2 10  1  0  0  0  0
  3  4  1  0  0  0  0
  3 29  1  0  0  0  0
  4  5  1  0  0  0  0
  4  9  2  0  0  0  0
  5  6  2  0  0  0  0
  5 30  1  0  0  0  0
  6  7  1  0  0  0  0
  6 31  1  0  0  0  0
  7  8  2  0  0  0  0
  7 32  1  0  0  0  0
  8  9  1  0  0  0  0
  8 33  1  0  0  0  0
  9 10  1  0  0  0  0
 10 11  2  0  0  0  0
 11 12  1  0  0  0  0
 11 34  1  0  0  0  0
 12 13  1  0  0  0  0
 12 28  2  0  0  0  0
 13 14  2  0  0  0  0
 13 35  1  0  0  0  0
 14 15  1  0  0  0  0
 14 36  1  0  0  0  0
 15 16  1  0  0  0  0
 15 27  2  0  0  0  0
 16 17  1  0  0  0  0
 16 25  2  0  0  0  0
 17 18  2  0  0  0  0
 17 37  1  0  0  0  0
 18 19  1  0  0  0  0
 18 38  1  0  0  0  0
 19 20  1  0  0  0  0
 19 24  2  0  0  0  0
 20 21  2  0  0  0  0
 20 39  1  0  0  0  0
 21 22  1  0  0  0  0
 21 40  1  0  0  0  0
 22 23  2  0  0  0  0
 23 24  1  0  0  0  0
 23 41  1  0  0  0  0
 24 42  1  0  0  0  0
 25 26  1  0  0  0  0
 26 27  1  0  0  0  0
 26 43  1  0  0  0  0
 27 28  1  0  0  0  0
 28 44  1  0  0  0  0
M  END
$$$$
