CHEMBL4160549
 OpenBabel04072215383D

 48 52  0  0  0  0  0  0  0  0999 V2000
    2.5207   -4.5915   -0.0823 C   0  0  0  0  0  0  0  0  0  0  0  0
    1.1473   -4.4560    0.5044 C   0  0  0  0  0  0  0  0  0  0  0  0
    0.7500   -5.2464    1.5840 C   0  0  0  0  0  0  0  0  0  0  0  0
   -0.5397   -5.1305    2.0948 C   0  0  0  0  0  0  0  0  0  0  0  0
   -1.4447   -4.2324    1.5241 C   0  0  0  0  0  0  0  0  0  0  0  0
   -1.0827   -3.4283    0.4390 C   0  0  0  0  0  0  0  0  0  0  0  0
   -1.9715   -2.5519   -0.2237 N   0  0  0  0  0  0  0  0  0  0  0  0
   -3.3229   -2.5177   -0.1136 C   0  0  0  0  0  0  0  0  0  0  0  0
   -4.1009   -3.0477    0.8064 N   0  0  0  0  0  0  0  0  0  0  0  0
   -5.3906   -2.7811    0.4335 C   0  0  0  0  0  0  0  0  0  0  0  0
   -6.5927   -3.1578    1.0507 C   0  0  0  0  0  0  0  0  0  0  0  0
   -7.8030   -2.7785    0.4570 C   0  0  0  0  0  0  0  0  0  0  0  0
   -8.9476   -3.1630    1.1224 O   0  0  0  0  0  0  0  0  0  0  0  0
  -10.0933   -3.4158    0.3804 C   0  0  0  0  0  0  0  0  0  0  0  0
  -10.0051   -3.8854   -0.8895 N   0  0  0  0  0  0  0  0  0  0  0  0
  -11.1480   -4.0784   -1.5737 C   0  0  0  0  0  0  0  0  0  0  0  0
  -12.4091   -3.8798   -1.1510 N   0  0  0  0  0  0  0  0  0  0  0  0
  -12.4387   -3.4595    0.1249 C   0  0  0  0  0  0  0  0  0  0  0  0
  -11.3506   -3.2197    0.9446 C   0  0  0  0  0  0  0  0  0  0  0  0
  -11.9078   -2.8045    2.1679 C   0  0  0  0  0  0  0  0  0  0  0  0
  -13.2470   -2.7708    2.1410 N   0  0  0  0  0  0  0  0  0  0  0  0
  -13.5419   -3.1716    0.8826 N   0  0  0  0  0  0  0  0  0  0  0  0
  -14.9118   -3.2545    0.4423 C   0  0  0  0  0  0  0  0  0  0  0  0
   -7.8030   -1.9856   -0.6973 C   0  0  0  0  0  0  0  0  0  0  0  0
   -6.6132   -1.6149   -1.3324 C   0  0  0  0  0  0  0  0  0  0  0  0
   -5.4194   -2.0368   -0.7388 C   0  0  0  0  0  0  0  0  0  0  0  0
   -4.0935   -1.8890   -1.0748 N   0  0  0  0  0  0  0  0  0  0  0  0
   -3.6026   -1.2610   -2.2774 C   0  0  0  0  0  0  0  0  0  0  0  0
    0.2320   -3.5454   -0.0494 C   0  0  0  0  0  0  0  0  0  0  0  0
    3.1143   -5.3374    0.4565 H   0  0  0  0  0  0  0  0  0  0  0  0
    3.0523   -3.6365   -0.0313 H   0  0  0  0  0  0  0  0  0  0  0  0
    2.4512   -4.9117   -1.1272 H   0  0  0  0  0  0  0  0  0  0  0  0
    1.4351   -5.9617    2.0313 H   0  0  0  0  0  0  0  0  0  0  0  0
   -0.8543   -5.7468    2.9326 H   0  0  0  0  0  0  0  0  0  0  0  0
   -2.4425   -4.1812    1.9489 H   0  0  0  0  0  0  0  0  0  0  0  0
   -1.5135   -2.0273   -0.9559 H   0  0  0  0  0  0  0  0  0  0  0  0
   -6.5710   -3.7431    1.9626 H   0  0  0  0  0  0  0  0  0  0  0  0
  -11.0350   -4.4286   -2.5961 H   0  0  0  0  0  0  0  0  0  0  0  0
  -11.3949   -2.5220    3.0790 H   0  0  0  0  0  0  0  0  0  0  0  0
  -15.5783   -2.9851    1.2657 H   0  0  0  0  0  0  0  0  0  0  0  0
  -15.1116   -4.2801    0.1225 H   0  0  0  0  0  0  0  0  0  0  0  0
  -15.0489   -2.5593   -0.3898 H   0  0  0  0  0  0  0  0  0  0  0  0
   -8.7402   -1.6522   -1.1381 H   0  0  0  0  0  0  0  0  0  0  0  0
   -6.6340   -1.0326   -2.2457 H   0  0  0  0  0  0  0  0  0  0  0  0
   -4.4281   -1.0481   -2.9593 H   0  0  0  0  0  0  0  0  0  0  0  0
   -2.9077   -1.9439   -2.7739 H   0  0  0  0  0  0  0  0  0  0  0  0
   -3.1007   -0.3310   -2.0003 H   0  0  0  0  0  0  0  0  0  0  0  0
    0.5506   -2.9381   -0.8935 H   0  0  0  0  0  0  0  0  0  0  0  0
  1  2  1  0  0  0  0
  1 30  1  0  0  0  0
  1 31  1  0  0  0  0
  1 32  1  0  0  0  0
  2  3  1  0  0  0  0
  2 29  2  0  0  0  0
  3  4  2  0  0  0  0
  3 33  1  0  0  0  0
  4  5  1  0  0  0  0
  4 34  1  0  0  0  0
  5  6  2  0  0  0  0
  5 35  1  0  0  0  0
  6  7  1  0  0  0  0
  6 29  1  0  0  0  0
  7  8  1  0  0  0  0
  7 36  1  0  0  0  0
  8  9  2  0  0  0  0
  8 27  1  0  0  0  0
  9 10  1  0  0  0  0
 10 11  1  0  0  0  0
 10 26  2  0  0  0  0
 11 12  2  0  0  0  0
 11 37  1  0  0  0  0
 12 13  1  0  0  0  0
 12 24  1  0  0  0  0
 13 14  1  0  0  0  0
 14 15  1  0  0  0  0
 14 19  2  0  0  0  0
 15 16  2  0  0  0  0
 16 17  1  0  0  0  0
 16 38  1  0  0  0  0
 17 18  2  0  0  0  0
 18 19  1  0  0  0  0
 18 22  1  0  0  0  0
 19 20  1  0  0  0  0
 20 21  2  0  0  0  0
 20 39  1  0  0  0  0
 21 22  1  0  0  0  0
 22 23  1  0  0  0  0
 23 40  1  0  0  0  0
 23 41  1  0  0  0  0
 23 42  1  0  0  0  0
 24 25  2  0  0  0  0
 24 43  1  0  0  0  0
 25 26  1  0  0  0  0
 25 44  1  0  0  0  0
 26 27  1  0  0  0  0
 27 28  1  0  0  0  0
 28 45  1  0  0  0  0
 28 46  1  0  0  0  0
 28 47  1  0  0  0  0
 29 48  1  0  0  0  0
M  END
$$$$
