CHEMBL3940940
 OpenBabel04072215373D

 58 62  0  0  0  0  0  0  0  0999 V2000
    1.5483   -0.5724   -0.3944 C   0  0  0  0  0  0  0  0  0  0  0  0
    2.3925   -0.0984    0.6490 O   0  0  0  0  0  0  0  0  0  0  0  0
    3.1587   -1.0413    1.2758 C   0  0  0  0  0  0  0  0  0  0  0  0
    2.8073   -2.3621    1.4819 C   0  0  0  0  0  0  0  0  0  0  0  0
    3.6879   -3.2037    2.1684 C   0  0  0  0  0  0  0  0  0  0  0  0
    3.4196   -4.5088    2.4926 O   0  0  0  0  0  0  0  0  0  0  0  0
    2.0490   -4.8905    2.4476 C   0  0  0  0  0  0  0  0  0  0  0  0
    4.9680   -2.7493    2.5429 C   0  0  0  0  0  0  0  0  0  0  0  0
    5.3890   -1.4478    2.2632 C   0  0  0  0  0  0  0  0  0  0  0  0
    6.7151   -1.0034    2.5109 N   0  0  0  0  0  0  0  0  0  0  0  0
    7.0618    0.3702    1.9839 C   0  0  0  0  0  0  0  0  0  0  0  0
    7.2064    0.3977    0.4682 C   0  0  0  0  0  0  0  0  0  0  0  0
    8.3645   -0.0904   -0.1326 C   0  0  0  0  0  0  0  0  0  0  0  0
    8.4029   -0.2034   -1.5175 C   0  0  0  0  0  0  0  0  0  0  0  0
    7.2934    0.1773   -2.2636 C   0  0  0  0  0  0  0  0  0  0  0  0
    6.2027    0.7054   -1.5947 C   0  0  0  0  0  0  0  0  0  0  0  0
    4.6853    1.2554   -2.5896 Br  0  0  0  0  0  0  0  0  0  0  0  0
    6.1513    0.8461   -0.2561 N   0  0  0  0  0  0  0  0  0  0  0  0
    7.9092   -1.7046    2.8867 C   0  0  0  0  0  0  0  0  0  0  0  0
    8.7145   -1.0465    3.8153 C   0  0  0  0  0  0  0  0  0  0  0  0
   10.0630   -1.2868    3.8493 C   0  0  0  0  0  0  0  0  0  0  0  0
   10.6409   -2.2721    3.0985 C   0  0  0  0  0  0  0  0  0  0  0  0
   11.9751   -2.2554    3.0908 N   0  0  0  0  0  0  0  0  0  0  0  0
   12.5849   -3.2756    2.4793 C   0  0  0  0  0  0  0  0  0  0  0  0
   11.8839   -4.3394    1.9497 C   0  0  0  0  0  0  0  0  0  0  0  0
   12.6638   -5.5331    1.6574 C   0  0  0  0  0  0  0  0  0  0  0  0
   12.9305   -6.6518    2.4914 C   0  0  0  0  0  0  0  0  0  0  0  0
   13.8932   -7.4447    2.0055 N   0  0  0  0  0  0  0  0  0  0  0  0
   14.2493   -6.8359    0.8622 N   0  0  0  0  0  0  0  0  0  0  0  0
   15.0715   -7.5221   -0.1060 C   0  0  0  0  0  0  0  0  0  0  0  0
   13.6653   -5.6086    0.7043 C   0  0  0  0  0  0  0  0  0  0  0  0
   10.5123   -4.3102    1.8419 N   0  0  0  0  0  0  0  0  0  0  0  0
    9.8495   -3.2087    2.3783 C   0  0  0  0  0  0  0  0  0  0  0  0
    8.4577   -2.8594    2.2586 C   0  0  0  0  0  0  0  0  0  0  0  0
    4.3938   -0.5883    1.7425 C   0  0  0  0  0  0  0  0  0  0  0  0
    1.4666    0.2175   -1.1488 H   0  0  0  0  0  0  0  0  0  0  0  0
    0.5492   -0.7646    0.0064 H   0  0  0  0  0  0  0  0  0  0  0  0
    1.9401   -1.4623   -0.8994 H   0  0  0  0  0  0  0  0  0  0  0  0
    1.8519   -2.7171    1.1215 H   0  0  0  0  0  0  0  0  0  0  0  0
    1.9736   -5.9141    2.8239 H   0  0  0  0  0  0  0  0  0  0  0  0
    1.6708   -4.8905    1.4193 H   0  0  0  0  0  0  0  0  0  0  0  0
    1.4369   -4.2483    3.0913 H   0  0  0  0  0  0  0  0  0  0  0  0
    5.6274   -3.4343    3.0671 H   0  0  0  0  0  0  0  0  0  0  0  0
    8.0007    0.7652    2.3920 H   0  0  0  0  0  0  0  0  0  0  0  0
    6.3320    1.1151    2.3242 H   0  0  0  0  0  0  0  0  0  0  0  0
    9.2135   -0.4046    0.4654 H   0  0  0  0  0  0  0  0  0  0  0  0
    9.2824   -0.6097   -2.0080 H   0  0  0  0  0  0  0  0  0  0  0  0
    7.2879    0.0595   -3.3411 H   0  0  0  0  0  0  0  0  0  0  0  0
    8.3158   -0.2265    4.4070 H   0  0  0  0  0  0  0  0  0  0  0  0
   10.7066   -0.6508    4.4590 H   0  0  0  0  0  0  0  0  0  0  0  0
   13.6675   -3.2382    2.4831 H   0  0  0  0  0  0  0  0  0  0  0  0
   12.4949   -6.9016    3.4517 H   0  0  0  0  0  0  0  0  0  0  0  0
   15.2664   -8.5436    0.2315 H   0  0  0  0  0  0  0  0  0  0  0  0
   16.0096   -6.9791   -0.2388 H   0  0  0  0  0  0  0  0  0  0  0  0
   14.5097   -7.5509   -1.0436 H   0  0  0  0  0  0  0  0  0  0  0  0
   13.9884   -4.9286   -0.0710 H   0  0  0  0  0  0  0  0  0  0  0  0
    7.8367   -3.4527    1.5835 H   0  0  0  0  0  0  0  0  0  0  0  0
    4.5601    0.4771    1.6147 H   0  0  0  0  0  0  0  0  0  0  0  0
  1  2  1  0  0  0  0
  1 36  1  0  0  0  0
  1 37  1  0  0  0  0
  1 38  1  0  0  0  0
  2  3  1  0  0  0  0
  3  4  1  0  0  0  0
  3 35  2  0  0  0  0
  4  5  2  0  0  0  0
  4 39  1  0  0  0  0
  5  6  1  0  0  0  0
  5  8  1  0  0  0  0
  6  7  1  0  0  0  0
  7 40  1  0  0  0  0
  7 41  1  0  0  0  0
  7 42  1  0  0  0  0
  8  9  2  0  0  0  0
  8 43  1  0  0  0  0
  9 10  1  0  0  0  0
  9 35  1  0  0  0  0
 10 11  1  0  0  0  0
 10 19  1  0  0  0  0
 11 12  1  0  0  0  0
 11 44  1  0  0  0  0
 11 45  1  0  0  0  0
 12 13  1  0  0  0  0
 12 18  2  0  0  0  0
 13 14  2  0  0  0  0
 13 46  1  0  0  0  0
 14 15  1  0  0  0  0
 14 47  1  0  0  0  0
 15 16  2  0  0  0  0
 15 48  1  0  0  0  0
 16 17  1  0  0  0  0
 16 18  1  0  0  0  0
 19 20  1  0  0  0  0
 19 34  2  0  0  0  0
 20 21  2  0  0  0  0
 20 49  1  0  0  0  0
 21 22  1  0  0  0  0
 21 50  1  0  0  0  0
 22 23  1  0  0  0  0
 22 33  2  0  0  0  0
 23 24  2  0  0  0  0
 24 25  1  0  0  0  0
 24 51  1  0  0  0  0
 25 26  1  0  0  0  0
 25 32  2  0  0  0  0
 26 27  1  0  0  0  0
 26 31  2  0  0  0  0
 27 28  2  0  0  0  0
 27 52  1  0  0  0  0
 28 29  1  0  0  0  0
 29 30  1  0  0  0  0
 29 31  1  0  0  0  0
 30 53  1  0  0  0  0
 30 54  1  0  0  0  0
 30 55  1  0  0  0  0
 31 56  1  0  0  0  0
 32 33  1  0  0  0  0
 33 34  1  0  0  0  0
 34 57  1  0  0  0  0
 35 58  1  0  0  0  0
M  END
$$$$
