CHEMBL3963816
 OpenBabel04072215373D

 56 60  0  0  0  0  0  0  0  0999 V2000
    1.6175    0.2521   -0.8800 C   0  0  0  0  0  0  0  0  0  0  0  0
    2.4486   -0.4662    0.0223 O   0  0  0  0  0  0  0  0  0  0  0  0
    3.0873   -1.5802   -0.4470 C   0  0  0  0  0  0  0  0  0  0  0  0
    2.6928   -2.3674   -1.5183 C   0  0  0  0  0  0  0  0  0  0  0  0
    3.4503   -3.4948   -1.8523 C   0  0  0  0  0  0  0  0  0  0  0  0
    3.1412   -4.3732   -2.8600 O   0  0  0  0  0  0  0  0  0  0  0  0
    1.8125   -4.3200   -3.3663 C   0  0  0  0  0  0  0  0  0  0  0  0
    4.6473   -3.7782   -1.1643 C   0  0  0  0  0  0  0  0  0  0  0  0
    5.1162   -2.9532   -0.1344 C   0  0  0  0  0  0  0  0  0  0  0  0
    6.3752   -3.1645    0.5055 N   0  0  0  0  0  0  0  0  0  0  0  0
    6.9264   -1.9447    1.1969 C   0  0  0  0  0  0  0  0  0  0  0  0
    6.4879   -1.6188    2.6136 C   0  0  0  0  0  0  0  0  0  0  0  0
    6.9803   -2.4307    3.7931 C   0  0  0  0  0  0  0  0  0  0  0  0
    5.5105   -2.3529    3.5039 C   0  0  0  0  0  0  0  0  0  0  0  0
    7.5214   -3.9013    0.0075 C   0  0  0  0  0  0  0  0  0  0  0  0
    8.2930   -4.5276    0.9930 C   0  0  0  0  0  0  0  0  0  0  0  0
    9.6273   -4.7758    0.7648 C   0  0  0  0  0  0  0  0  0  0  0  0
   10.2058   -4.5294   -0.4519 C   0  0  0  0  0  0  0  0  0  0  0  0
   11.5387   -4.6612   -0.4726 N   0  0  0  0  0  0  0  0  0  0  0  0
   12.1427   -4.5674   -1.6696 C   0  0  0  0  0  0  0  0  0  0  0  0
   11.4396   -4.4343   -2.8349 C   0  0  0  0  0  0  0  0  0  0  0  0
   12.1653   -4.7339   -4.0706 C   0  0  0  0  0  0  0  0  0  0  0  0
   12.2465   -5.9558   -4.7899 C   0  0  0  0  0  0  0  0  0  0  0  0
   13.1947   -5.9413   -5.7329 N   0  0  0  0  0  0  0  0  0  0  0  0
   13.7284   -4.7133   -5.6218 N   0  0  0  0  0  0  0  0  0  0  0  0
   14.6245   -4.2141   -6.6397 C   0  0  0  0  0  0  0  0  0  0  0  0
   13.2529   -4.0198   -4.5426 C   0  0  0  0  0  0  0  0  0  0  0  0
   10.0774   -4.2245   -2.8273 N   0  0  0  0  0  0  0  0  0  0  0  0
    9.4351   -4.2015   -1.5942 C   0  0  0  0  0  0  0  0  0  0  0  0
    8.0748   -3.8309   -1.3063 C   0  0  0  0  0  0  0  0  0  0  0  0
    4.2453   -1.9174    0.2611 C   0  0  0  0  0  0  0  0  0  0  0  0
    1.7315    1.3182   -0.6560 H   0  0  0  0  0  0  0  0  0  0  0  0
    0.5728   -0.0209   -0.7075 H   0  0  0  0  0  0  0  0  0  0  0  0
    1.8840    0.1171   -1.9329 H   0  0  0  0  0  0  0  0  0  0  0  0
    1.8006   -2.1124   -2.0742 H   0  0  0  0  0  0  0  0  0  0  0  0
    1.6815   -5.1563   -4.0587 H   0  0  0  0  0  0  0  0  0  0  0  0
    1.6376   -3.3958   -3.9273 H   0  0  0  0  0  0  0  0  0  0  0  0
    1.0751   -4.4368   -2.5617 H   0  0  0  0  0  0  0  0  0  0  0  0
    5.2075   -4.6641   -1.4516 H   0  0  0  0  0  0  0  0  0  0  0  0
    6.7278   -1.0664    0.5654 H   0  0  0  0  0  0  0  0  0  0  0  0
    8.0250   -1.9661    1.2420 H   0  0  0  0  0  0  0  0  0  0  0  0
    6.5347   -0.5392    2.7478 H   0  0  0  0  0  0  0  0  0  0  0  0
    7.3729   -1.8862    4.6466 H   0  0  0  0  0  0  0  0  0  0  0  0
    7.4462   -3.3951    3.6502 H   0  0  0  0  0  0  0  0  0  0  0  0
    4.9133   -1.7540    4.1958 H   0  0  0  0  0  0  0  0  0  0  0  0
    5.0109   -3.2437    3.1578 H   0  0  0  0  0  0  0  0  0  0  0  0
    7.8739   -4.6992    1.9726 H   0  0  0  0  0  0  0  0  0  0  0  0
   10.2496   -5.1166    1.5867 H   0  0  0  0  0  0  0  0  0  0  0  0
   13.2278   -4.6492   -1.6447 H   0  0  0  0  0  0  0  0  0  0  0  0
   11.6818   -6.8676   -4.6421 H   0  0  0  0  0  0  0  0  0  0  0  0
   14.7478   -4.9637   -7.4262 H   0  0  0  0  0  0  0  0  0  0  0  0
   15.5910   -3.9754   -6.1904 H   0  0  0  0  0  0  0  0  0  0  0  0
   14.1669   -3.3158   -7.0633 H   0  0  0  0  0  0  0  0  0  0  0  0
   13.7038   -3.0869   -4.2340 H   0  0  0  0  0  0  0  0  0  0  0  0
    7.4881   -3.4101   -2.1180 H   0  0  0  0  0  0  0  0  0  0  0  0
    4.4580   -1.3046    1.1304 H   0  0  0  0  0  0  0  0  0  0  0  0
  1  2  1  0  0  0  0
  1 32  1  0  0  0  0
  1 33  1  0  0  0  0
  1 34  1  0  0  0  0
  2  3  1  0  0  0  0
  3  4  1  0  0  0  0
  3 31  2  0  0  0  0
  4  5  2  0  0  0  0
  4 35  1  0  0  0  0
  5  6  1  0  0  0  0
  5  8  1  0  0  0  0
  6  7  1  0  0  0  0
  7 36  1  0  0  0  0
  7 37  1  0  0  0  0
  7 38  1  0  0  0  0
  8  9  2  0  0  0  0
  8 39  1  0  0  0  0
  9 10  1  0  0  0  0
  9 31  1  0  0  0  0
 10 11  1  0  0  0  0
 10 15  1  0  0  0  0
 11 12  1  0  0  0  0
 11 40  1  0  0  0  0
 11 41  1  0  0  0  0
 12 13  1  0  0  0  0
 12 14  1  0  0  0  0
 12 42  1  0  0  0  0
 13 14  1  0  0  0  0
 13 43  1  0  0  0  0
 13 44  1  0  0  0  0
 14 45  1  0  0  0  0
 14 46  1  0  0  0  0
 15 16  1  0  0  0  0
 15 30  2  0  0  0  0
 16 17  2  0  0  0  0
 16 47  1  0  0  0  0
 17 18  1  0  0  0  0
 17 48  1  0  0  0  0
 18 19  1  0  0  0  0
 18 29  2  0  0  0  0
 19 20  2  0  0  0  0
 20 21  1  0  0  0  0
 20 49  1  0  0  0  0
 21 22  1  0  0  0  0
 21 28  2  0  0  0  0
 22 23  1  0  0  0  0
 22 27  2  0  0  0  0
 23 24  2  0  0  0  0
 23 50  1  0  0  0  0
 24 25  1  0  0  0  0
 25 26  1  0  0  0  0
 25 27  1  0  0  0  0
 26 51  1  0  0  0  0
 26 52  1  0  0  0  0
 26 53  1  0  0  0  0
 27 54  1  0  0  0  0
 28 29  1  0  0  0  0
 29 30  1  0  0  0  0
 30 55  1  0  0  0  0
 31 56  1  0  0  0  0
M  END
$$$$
