CHEMBL3949535
 OpenBabel04072215373D

 51 54  0  0  0  0  0  0  0  0999 V2000
    2.4761    1.1668    0.4742 C   0  0  0  0  0  0  0  0  0  0  0  0
    2.3040    0.0037   -0.3319 O   0  0  0  0  0  0  0  0  0  0  0  0
    3.0587   -1.1028   -0.0531 C   0  0  0  0  0  0  0  0  0  0  0  0
    4.2008   -1.0486    0.7460 C   0  0  0  0  0  0  0  0  0  0  0  0
    4.8755   -2.2218    1.1530 C   0  0  0  0  0  0  0  0  0  0  0  0
    5.9791   -2.2196    2.0203 C   0  0  0  0  0  0  0  0  0  0  0  0
    6.3966   -0.9993    2.6173 N   0  0  0  0  0  0  0  0  0  0  0  0
    7.6519   -0.7958    3.2298 C   0  0  0  0  0  0  0  0  0  0  0  0
    8.8261   -1.2099    2.5896 C   0  0  0  0  0  0  0  0  0  0  0  0
   10.0689   -1.0640    3.2050 C   0  0  0  0  0  0  0  0  0  0  0  0
   10.1545   -0.4918    4.4734 C   0  0  0  0  0  0  0  0  0  0  0  0
   11.7163   -0.3945    5.2055 Cl  0  0  0  0  0  0  0  0  0  0  0  0
    8.9935   -0.0336    5.1063 C   0  0  0  0  0  0  0  0  0  0  0  0
    9.0260    0.6978    6.6739 Cl  0  0  0  0  0  0  0  0  0  0  0  0
    7.7484   -0.1723    4.4792 C   0  0  0  0  0  0  0  0  0  0  0  0
    6.6306   -3.3581    2.3388 N   0  0  0  0  0  0  0  0  0  0  0  0
    6.1470   -4.4901    1.8186 C   0  0  0  0  0  0  0  0  0  0  0  0
    5.0810   -4.5983    1.0153 N   0  0  0  0  0  0  0  0  0  0  0  0
    4.4543   -3.4646    0.6817 C   0  0  0  0  0  0  0  0  0  0  0  0
    3.3582   -3.5033   -0.1771 C   0  0  0  0  0  0  0  0  0  0  0  0
    2.6720   -2.3453   -0.5779 C   0  0  0  0  0  0  0  0  0  0  0  0
    1.6475   -2.5920   -1.4656 O   0  0  0  0  0  0  0  0  0  0  0  0
    1.3153   -1.5240   -2.3621 C   0  0  0  0  0  0  0  0  0  0  0  0
    0.7514   -2.0653   -3.6737 C   0  0  0  0  0  0  0  0  0  0  0  0
   -0.5775   -2.8026   -3.5356 C   0  0  0  0  0  0  0  0  0  0  0  0
   -1.5292   -1.9465   -2.9081 O   0  0  0  0  0  0  0  0  0  0  0  0
   -2.7758   -2.6148   -2.7464 C   0  0  0  0  0  0  0  0  0  0  0  0
   -3.3128   -3.0497   -4.0982 C   0  0  0  0  0  0  0  0  0  0  0  0
   -2.2501   -3.8452   -4.8380 C   0  0  0  0  0  0  0  0  0  0  0  0
   -1.0118   -3.1422   -4.8573 O   0  0  0  0  0  0  0  0  0  0  0  0
    3.1158    1.8800   -0.0566 H   0  0  0  0  0  0  0  0  0  0  0  0
    2.8735    0.9738    1.4747 H   0  0  0  0  0  0  0  0  0  0  0  0
    1.4935    1.6230    0.6176 H   0  0  0  0  0  0  0  0  0  0  0  0
    4.6041   -0.0912    1.0621 H   0  0  0  0  0  0  0  0  0  0  0  0
    5.6267   -0.6301    3.1671 H   0  0  0  0  0  0  0  0  0  0  0  0
    8.7721   -1.6641    1.6022 H   0  0  0  0  0  0  0  0  0  0  0  0
   10.9591   -1.4163    2.6913 H   0  0  0  0  0  0  0  0  0  0  0  0
    6.8556    0.1769    4.9889 H   0  0  0  0  0  0  0  0  0  0  0  0
    6.6639   -5.4030    2.0791 H   0  0  0  0  0  0  0  0  0  0  0  0
    3.0307   -4.4710   -0.5555 H   0  0  0  0  0  0  0  0  0  0  0  0
    2.2116   -0.9479   -2.6237 H   0  0  0  0  0  0  0  0  0  0  0  0
    0.5845   -0.8665   -1.8806 H   0  0  0  0  0  0  0  0  0  0  0  0
    1.4790   -2.7374   -4.1459 H   0  0  0  0  0  0  0  0  0  0  0  0
    0.6184   -1.2189   -4.3602 H   0  0  0  0  0  0  0  0  0  0  0  0
   -0.4351   -3.7165   -2.9446 H   0  0  0  0  0  0  0  0  0  0  0  0
   -3.4735   -1.9211   -2.2673 H   0  0  0  0  0  0  0  0  0  0  0  0
   -2.6455   -3.4713   -2.0744 H   0  0  0  0  0  0  0  0  0  0  0  0
   -3.5477   -2.1529   -4.6840 H   0  0  0  0  0  0  0  0  0  0  0  0
   -4.2327   -3.6327   -3.9874 H   0  0  0  0  0  0  0  0  0  0  0  0
   -2.5622   -4.0095   -5.8749 H   0  0  0  0  0  0  0  0  0  0  0  0
   -2.0983   -4.8286   -4.3800 H   0  0  0  0  0  0  0  0  0  0  0  0
  1  2  1  0  0  0  0
  1 31  1  0  0  0  0
  1 32  1  0  0  0  0
  1 33  1  0  0  0  0
  2  3  1  0  0  0  0
  3  4  1  0  0  0  0
  3 21  2  0  0  0  0
  4  5  2  0  0  0  0
  4 34  1  0  0  0  0
  5  6  1  0  0  0  0
  5 19  1  0  0  0  0
  6  7  1  0  0  0  0
  6 16  2  0  0  0  0
  7  8  1  0  0  0  0
  7 35  1  0  0  0  0
  8  9  1  0  0  0  0
  8 15  2  0  0  0  0
  9 10  2  0  0  0  0
  9 36  1  0  0  0  0
 10 11  1  0  0  0  0
 10 37  1  0  0  0  0
 11 12  1  0  0  0  0
 11 13  2  0  0  0  0
 13 14  1  0  0  0  0
 13 15  1  0  0  0  0
 15 38  1  0  0  0  0
 16 17  1  0  0  0  0
 17 18  2  0  0  0  0
 17 39  1  0  0  0  0
 18 19  1  0  0  0  0
 19 20  2  0  0  0  0
 20 21  1  0  0  0  0
 20 40  1  0  0  0  0
 21 22  1  0  0  0  0
 22 23  1  0  0  0  0
 23 24  1  0  0  0  0
 23 41  1  0  0  0  0
 23 42  1  0  0  0  0
 24 25  1  0  0  0  0
 24 43  1  0  0  0  0
 24 44  1  0  0  0  0
 25 26  1  0  0  0  0
 25 30  1  0  0  0  0
 25 45  1  0  0  0  0
 26 27  1  0  0  0  0
 27 28  1  0  0  0  0
 27 46  1  0  0  0  0
 27 47  1  0  0  0  0
 28 29  1  0  0  0  0
 28 48  1  0  0  0  0
 28 49  1  0  0  0  0
 29 30  1  0  0  0  0
 29 50  1  0  0  0  0
 29 51  1  0  0  0  0
M  END
$$$$
