CHEMBL3694678
 OpenBabel04072215373D

 50 53  0  0  0  0  0  0  0  0999 V2000
    1.2391    4.0568   -0.6240 C   0  0  0  0  0  0  0  0  0  0  0  0
    2.6000    3.5511   -0.1767 C   0  0  0  0  0  0  0  0  0  0  0  0
    3.2635    2.8677   -1.2770 N   0  0  0  0  0  0  0  0  0  0  0  0
    4.4776    2.3193   -1.0157 C   0  0  0  0  0  0  0  0  0  0  0  0
    4.9104    1.9012    0.1524 N   0  0  0  0  0  0  0  0  0  0  0  0
    6.2209    1.4757    0.1193 N   0  0  0  0  0  0  0  0  0  0  0  0
    6.7664    1.5585   -1.0843 C   0  0  0  0  0  0  0  0  0  0  0  0
    8.1213    1.2291   -1.4446 C   0  0  0  0  0  0  0  0  0  0  0  0
    8.5353    0.7690   -2.7750 C   0  0  0  0  0  0  0  0  0  0  0  0
    9.8185    0.4543   -3.0171 C   0  0  0  0  0  0  0  0  0  0  0  0
   10.7809    0.6095   -2.0196 N   0  0  0  0  0  0  0  0  0  0  0  0
   12.1678    0.4265   -2.0320 C   0  0  0  0  0  0  0  0  0  0  0  0
   13.0102    0.0898   -3.1978 C   0  0  0  0  0  0  0  0  0  0  0  0
   12.6628    0.5562   -4.4712 C   0  0  0  0  0  0  0  0  0  0  0  0
   13.4196    0.2256   -5.5868 C   0  0  0  0  0  0  0  0  0  0  0  0
   14.5883   -0.5020   -5.4395 C   0  0  0  0  0  0  0  0  0  0  0  0
   15.0332   -0.9114   -4.1797 C   0  0  0  0  0  0  0  0  0  0  0  0
   16.2771   -1.5706   -3.9957 N   0  0  0  0  0  0  0  0  0  0  0  0
   17.2096   -1.8261   -4.9867 C   0  0  0  0  0  0  0  0  0  0  0  0
   17.1224   -1.5332   -6.1756 O   0  0  0  0  0  0  0  0  0  0  0  0
   18.3017   -2.5295   -4.5360 N   0  0  0  0  0  0  0  0  0  0  0  0
   19.3549   -2.8577   -5.5162 C   0  0  0  0  0  0  0  0  0  0  0  0
   20.3743   -1.7504   -5.8293 C   0  0  0  0  0  0  0  0  0  0  0  0
   20.2078   -0.6624   -5.0438 F   0  0  0  0  0  0  0  0  0  0  0  0
   21.6324   -2.2078   -5.6018 F   0  0  0  0  0  0  0  0  0  0  0  0
   20.3243   -1.3523   -7.1180 F   0  0  0  0  0  0  0  0  0  0  0  0
   14.2128   -0.6399   -3.0615 C   0  0  0  0  0  0  0  0  0  0  0  0
   12.5435    0.6964   -0.7244 C   0  0  0  0  0  0  0  0  0  0  0  0
   11.4821    1.0658    0.0590 N   0  0  0  0  0  0  0  0  0  0  0  0
   10.4357    1.0270   -0.7338 C   0  0  0  0  0  0  0  0  0  0  0  0
    9.0651    1.3343   -0.4713 C   0  0  0  0  0  0  0  0  0  0  0  0
    5.6429    2.1568   -2.2656 S   0  0  0  0  0  0  0  0  0  0  0  0
    0.7366    4.5720    0.2007 H   0  0  0  0  0  0  0  0  0  0  0  0
    0.6009    3.2306   -0.9537 H   0  0  0  0  0  0  0  0  0  0  0  0
    1.3350    4.7608   -1.4575 H   0  0  0  0  0  0  0  0  0  0  0  0
    2.4684    2.8760    0.6768 H   0  0  0  0  0  0  0  0  0  0  0  0
    3.2085    4.4026    0.1511 H   0  0  0  0  0  0  0  0  0  0  0  0
    3.1842    3.3383   -2.1724 H   0  0  0  0  0  0  0  0  0  0  0  0
    7.7919    0.6621   -3.5583 H   0  0  0  0  0  0  0  0  0  0  0  0
   10.1235    0.0748   -3.9834 H   0  0  0  0  0  0  0  0  0  0  0  0
   11.8080    1.2051   -4.6280 H   0  0  0  0  0  0  0  0  0  0  0  0
   13.1127    0.5595   -6.5766 H   0  0  0  0  0  0  0  0  0  0  0  0
   15.1419   -0.7159   -6.3476 H   0  0  0  0  0  0  0  0  0  0  0  0
   16.5106   -1.8564   -3.0588 H   0  0  0  0  0  0  0  0  0  0  0  0
   18.5888   -2.3825   -3.5803 H   0  0  0  0  0  0  0  0  0  0  0  0
   18.8749   -3.1638   -6.4536 H   0  0  0  0  0  0  0  0  0  0  0  0
   19.8741   -3.7390   -5.1264 H   0  0  0  0  0  0  0  0  0  0  0  0
   14.5199   -0.9840   -2.0783 H   0  0  0  0  0  0  0  0  0  0  0  0
   13.5427    0.6761   -0.3119 H   0  0  0  0  0  0  0  0  0  0  0  0
    8.8207    1.6596    0.5332 H   0  0  0  0  0  0  0  0  0  0  0  0
  1  2  1  0  0  0  0
  1 33  1  0  0  0  0
  1 34  1  0  0  0  0
  1 35  1  0  0  0  0
  2  3  1  0  0  0  0
  2 36  1  0  0  0  0
  2 37  1  0  0  0  0
  3  4  1  0  0  0  0
  3 38  1  0  0  0  0
  4  5  2  0  0  0  0
  4 32  1  0  0  0  0
  5  6  1  0  0  0  0
  6  7  2  0  0  0  0
  7  8  1  0  0  0  0
  7 32  1  0  0  0  0
  8  9  1  0  0  0  0
  8 31  2  0  0  0  0
  9 10  2  0  0  0  0
  9 39  1  0  0  0  0
 10 11  1  0  0  0  0
 10 40  1  0  0  0  0
 11 12  1  0  0  0  0
 11 30  1  0  0  0  0
 12 13  1  0  0  0  0
 12 28  2  0  0  0  0
 13 14  1  0  0  0  0
 13 27  2  0  0  0  0
 14 15  2  0  0  0  0
 14 41  1  0  0  0  0
 15 16  1  0  0  0  0
 15 42  1  0  0  0  0
 16 17  2  0  0  0  0
 16 43  1  0  0  0  0
 17 18  1  0  0  0  0
 17 27  1  0  0  0  0
 18 19  1  0  0  0  0
 18 44  1  0  0  0  0
 19 20  2  0  0  0  0
 19 21  1  0  0  0  0
 21 22  1  0  0  0  0
 21 45  1  0  0  0  0
 22 23  1  0  0  0  0
 22 46  1  0  0  0  0
 22 47  1  0  0  0  0
 23 24  1  0  0  0  0
 23 25  1  0  0  0  0
 23 26  1  0  0  0  0
 27 48  1  0  0  0  0
 28 29  1  0  0  0  0
 28 49  1  0  0  0  0
 29 30  2  0  0  0  0
 30 31  1  0  0  0  0
 31 50  1  0  0  0  0
M  END
$$$$
