CHEMBL453737
 OpenBabel04072215383D

 79 84  0  0  0  0  0  0  0  0999 V2000
    2.3078   -0.3253   -1.1991 C   0  0  0  0  0  0  0  0  0  0  0  0
    2.4022   -0.2474    0.2245 O   0  0  0  0  0  0  0  0  0  0  0  0
    3.0793    0.8021    0.7730 C   0  0  0  0  0  0  0  0  0  0  0  0
    4.1774    1.3786    0.1475 C   0  0  0  0  0  0  0  0  0  0  0  0
    4.7482    2.5856    0.6021 C   0  0  0  0  0  0  0  0  0  0  0  0
    5.6944    3.3290   -0.1360 C   0  0  0  0  0  0  0  0  0  0  0  0
    6.1460    2.9948   -1.3993 O   0  0  0  0  0  0  0  0  0  0  0  0
    5.2534    2.7371   -2.4221 C   0  0  0  0  0  0  0  0  0  0  0  0
    3.9025    3.0991   -2.4337 C   0  0  0  0  0  0  0  0  0  0  0  0
    3.0697    2.6778   -3.4783 C   0  0  0  0  0  0  0  0  0  0  0  0
    3.5877    1.9461   -4.5553 C   0  0  0  0  0  0  0  0  0  0  0  0
    2.7232    1.5864   -5.6811 C   0  0  0  0  0  0  0  0  0  0  0  0
    2.4761    2.4803   -6.6395 C   0  0  0  0  0  0  0  0  0  0  0  0
    1.6625    2.2812   -7.7114 N   0  0  0  0  0  0  0  0  0  0  0  0
    1.1570    1.0994   -7.9231 C   0  0  0  0  0  0  0  0  0  0  0  0
    0.3410    0.8968   -9.0231 N   0  0  0  0  0  0  0  0  0  0  0  0
   -0.2654    1.9224   -9.7832 C   0  0  0  0  0  0  0  0  0  0  0  0
   -0.3689    1.7945  -11.1772 C   0  0  0  0  0  0  0  0  0  0  0  0
   -0.8653    2.8469  -11.9565 C   0  0  0  0  0  0  0  0  0  0  0  0
   -1.2645    4.0302  -11.3465 C   0  0  0  0  0  0  0  0  0  0  0  0
   -1.7177    5.0435  -12.0958 F   0  0  0  0  0  0  0  0  0  0  0  0
   -1.1891    4.1777   -9.9710 C   0  0  0  0  0  0  0  0  0  0  0  0
   -0.6898    3.1275   -9.1980 C   0  0  0  0  0  0  0  0  0  0  0  0
    1.4418    0.0385   -7.0575 N   0  0  0  0  0  0  0  0  0  0  0  0
    0.9412   -1.3116   -7.2600 C   0  0  0  0  0  0  0  0  0  0  0  0
    2.0669    0.2667   -5.8318 C   0  0  0  0  0  0  0  0  0  0  0  0
    2.0813   -0.5424   -4.9040 O   0  0  0  0  0  0  0  0  0  0  0  0
    4.9510    1.6403   -4.5774 C   0  0  0  0  0  0  0  0  0  0  0  0
    5.7656    2.0312   -3.5150 C   0  0  0  0  0  0  0  0  0  0  0  0
    7.0655    1.7026   -3.5516 F   0  0  0  0  0  0  0  0  0  0  0  0
    6.2779    4.4625    0.4197 C   0  0  0  0  0  0  0  0  0  0  0  0
    5.8449    4.8591    1.6685 C   0  0  0  0  0  0  0  0  0  0  0  0
    4.8833    4.2183    2.3647 N   0  0  0  0  0  0  0  0  0  0  0  0
    4.3342    3.1106    1.8397 C   0  0  0  0  0  0  0  0  0  0  0  0
    3.3343    2.4406    2.5365 C   0  0  0  0  0  0  0  0  0  0  0  0
    2.7088    1.2910    2.0289 C   0  0  0  0  0  0  0  0  0  0  0  0
    1.7742    0.7485    2.8747 O   0  0  0  0  0  0  0  0  0  0  0  0
    1.6151   -0.6777    2.8765 C   0  0  0  0  0  0  0  0  0  0  0  0
    2.9103   -1.4609    3.1317 C   0  0  0  0  0  0  0  0  0  0  0  0
    3.5216   -1.1079    4.4916 C   0  0  0  0  0  0  0  0  0  0  0  0
    4.7977   -1.7960    4.7644 N   0  0  0  0  0  0  0  0  0  0  0  0
    5.2648   -1.4884    6.1396 C   0  0  0  0  0  0  0  0  0  0  0  0
    5.8080   -0.0563    6.3132 C   0  0  0  0  0  0  0  0  0  0  0  0
    6.8520    0.2306    5.3741 O   0  0  0  0  0  0  0  0  0  0  0  0
    6.3976    0.0244    4.0302 C   0  0  0  0  0  0  0  0  0  0  0  0
    5.8906   -1.4139    3.8375 C   0  0  0  0  0  0  0  0  0  0  0  0
    2.5667   -1.3443   -1.4980 H   0  0  0  0  0  0  0  0  0  0  0  0
    2.9470    0.3596   -1.7557 H   0  0  0  0  0  0  0  0  0  0  0  0
    1.2744   -0.1255   -1.4975 H   0  0  0  0  0  0  0  0  0  0  0  0
    4.6000    0.9000   -0.7289 H   0  0  0  0  0  0  0  0  0  0  0  0
    3.4577    3.6636   -1.6186 H   0  0  0  0  0  0  0  0  0  0  0  0
    2.0071    2.9147   -3.4366 H   0  0  0  0  0  0  0  0  0  0  0  0
    2.9270    3.4694   -6.5973 H   0  0  0  0  0  0  0  0  0  0  0  0
    0.2973   -0.0155   -9.4452 H   0  0  0  0  0  0  0  0  0  0  0  0
   -0.0313    0.8909  -11.6777 H   0  0  0  0  0  0  0  0  0  0  0  0
   -0.9241    2.7603  -13.0368 H   0  0  0  0  0  0  0  0  0  0  0  0
   -1.5003    5.1068   -9.5051 H   0  0  0  0  0  0  0  0  0  0  0  0
   -0.6291    3.2643   -8.1201 H   0  0  0  0  0  0  0  0  0  0  0  0
    0.8218   -1.5480   -8.3188 H   0  0  0  0  0  0  0  0  0  0  0  0
   -0.0218   -1.4134   -6.7510 H   0  0  0  0  0  0  0  0  0  0  0  0
    1.6426   -2.0380   -6.8342 H   0  0  0  0  0  0  0  0  0  0  0  0
    5.3948    1.1001   -5.4095 H   0  0  0  0  0  0  0  0  0  0  0  0
    7.0398    5.0222   -0.1137 H   0  0  0  0  0  0  0  0  0  0  0  0
    6.2654    5.7335    2.1504 H   0  0  0  0  0  0  0  0  0  0  0  0
    3.0312    2.8263    3.5099 H   0  0  0  0  0  0  0  0  0  0  0  0
    1.1054   -1.0078    1.9674 H   0  0  0  0  0  0  0  0  0  0  0  0
    0.9140   -0.8997    3.6906 H   0  0  0  0  0  0  0  0  0  0  0  0
    3.6258   -1.2495    2.3354 H   0  0  0  0  0  0  0  0  0  0  0  0
    2.6988   -2.5349    3.0831 H   0  0  0  0  0  0  0  0  0  0  0  0
    2.7966   -1.4183    5.2557 H   0  0  0  0  0  0  0  0  0  0  0  0
    3.6242   -0.0228    4.5863 H   0  0  0  0  0  0  0  0  0  0  0  0
    6.0707   -2.1951    6.3766 H   0  0  0  0  0  0  0  0  0  0  0  0
    4.4682   -1.6811    6.8678 H   0  0  0  0  0  0  0  0  0  0  0  0
    6.2317    0.0545    7.3163 H   0  0  0  0  0  0  0  0  0  0  0  0
    5.0166    0.6948    6.2109 H   0  0  0  0  0  0  0  0  0  0  0  0
    7.2468    0.2073    3.3640 H   0  0  0  0  0  0  0  0  0  0  0  0
    5.6288    0.7652    3.7884 H   0  0  0  0  0  0  0  0  0  0  0  0
    6.7276   -2.0995    4.0272 H   0  0  0  0  0  0  0  0  0  0  0  0
    5.6157   -1.5835    2.7926 H   0  0  0  0  0  0  0  0  0  0  0  0
  1  2  1  0  0  0  0
  1 47  1  0  0  0  0
  1 48  1  0  0  0  0
  1 49  1  0  0  0  0
  2  3  1  0  0  0  0
  3  4  1  0  0  0  0
  3 36  2  0  0  0  0
  4  5  2  0  0  0  0
  4 50  1  0  0  0  0
  5  6  1  0  0  0  0
  5 34  1  0  0  0  0
  6  7  1  0  0  0  0
  6 31  2  0  0  0  0
  7  8  1  0  0  0  0
  8  9  1  0  0  0  0
  8 29  2  0  0  0  0
  9 10  2  0  0  0  0
  9 51  1  0  0  0  0
 10 11  1  0  0  0  0
 10 52  1  0  0  0  0
 11 12  1  0  0  0  0
 11 28  2  0  0  0  0
 12 13  2  0  0  0  0
 12 26  1  0  0  0  0
 13 14  1  0  0  0  0
 13 53  1  0  0  0  0
 14 15  2  0  0  0  0
 15 16  1  0  0  0  0
 15 24  1  0  0  0  0
 16 17  1  0  0  0  0
 16 54  1  0  0  0  0
 17 18  1  0  0  0  0
 17 23  2  0  0  0  0
 18 19  2  0  0  0  0
 18 55  1  0  0  0  0
 19 20  1  0  0  0  0
 19 56  1  0  0  0  0
 20 21  1  0  0  0  0
 20 22  2  0  0  0  0
 22 23  1  0  0  0  0
 22 57  1  0  0  0  0
 23 58  1  0  0  0  0
 24 25  1  0  0  0  0
 24 26  1  0  0  0  0
 25 59  1  0  0  0  0
 25 60  1  0  0  0  0
 25 61  1  0  0  0  0
 26 27  2  0  0  0  0
 28 29  1  0  0  0  0
 28 62  1  0  0  0  0
 29 30  1  0  0  0  0
 31 32  1  0  0  0  0
 31 63  1  0  0  0  0
 32 33  2  0  0  0  0
 32 64  1  0  0  0  0
 33 34  1  0  0  0  0
 34 35  2  0  0  0  0
 35 36  1  0  0  0  0
 35 65  1  0  0  0  0
 36 37  1  0  0  0  0
 37 38  1  0  0  0  0
 38 39  1  0  0  0  0
 38 66  1  0  0  0  0
 38 67  1  0  0  0  0
 39 40  1  0  0  0  0
 39 68  1  0  0  0  0
 39 69  1  0  0  0  0
 40 41  1  0  0  0  0
 40 70  1  0  0  0  0
 40 71  1  0  0  0  0
 41 42  1  0  0  0  0
 41 46  1  0  0  0  0
 42 43  1  0  0  0  0
 42 72  1  0  0  0  0
 42 73  1  0  0  0  0
 43 44  1  0  0  0  0
 43 74  1  0  0  0  0
 43 75  1  0  0  0  0
 44 45  1  0  0  0  0
 45 46  1  0  0  0  0
 45 76  1  0  0  0  0
 45 77  1  0  0  0  0
 46 78  1  0  0  0  0
 46 79  1  0  0  0  0
M  END
$$$$
