CHEMBL221544
 OpenBabel04072215363D

 61 64  0  0  1  0  0  0  0  0999 V2000
    1.5216   -1.7697    1.2163 C   0  0  0  0  0  0  0  0  0  0  0  0
    2.7880   -1.1560    1.6024 N   0  0  0  0  0  0  0  0  0  0  0  0
    3.2513   -1.7354    2.8631 C   0  0  0  0  0  0  0  0  0  0  0  0
    3.8517   -1.1394    0.5699 C   0  0  2  0  0  0  0  0  0  0  0  0
    3.4605   -0.3471   -0.6848 C   0  0  0  0  0  0  0  0  0  0  0  0
    2.9667   -1.4032   -1.6590 C   0  0  0  0  0  0  0  0  0  0  0  0
    3.8057   -2.5540   -1.3885 N   0  0  0  0  0  0  0  0  0  0  0  0
    4.0339   -3.6100   -2.2473 C   0  0  0  0  0  0  0  0  0  0  0  0
    5.3317   -4.1611   -2.3235 C   0  0  0  0  0  0  0  0  0  0  0  0
    5.6453   -5.2404   -3.1592 C   0  0  0  0  0  0  0  0  0  0  0  0
    4.6550   -5.8475   -3.9318 C   0  0  0  0  0  0  0  0  0  0  0  0
    4.9763   -6.9873   -4.8646 C   0  0  0  0  0  0  0  0  0  0  0  0
    6.3000   -7.3171   -4.8816 F   0  0  0  0  0  0  0  0  0  0  0  0
    4.3138   -8.1335   -4.5506 F   0  0  0  0  0  0  0  0  0  0  0  0
    4.6535   -6.7091   -6.1594 F   0  0  0  0  0  0  0  0  0  0  0  0
    3.3469   -5.3525   -3.8448 C   0  0  0  0  0  0  0  0  0  0  0  0
    3.0384   -4.2376   -3.0439 C   0  0  0  0  0  0  0  0  0  0  0  0
    1.7235   -3.7246   -3.0925 N   0  0  0  0  0  0  0  0  0  0  0  0
    0.5598   -4.4644   -3.0145 C   0  0  0  0  0  0  0  0  0  0  0  0
    0.5158   -5.6837   -2.8847 O   0  0  0  0  0  0  0  0  0  0  0  0
   -0.7242   -3.6910   -3.0303 C   0  0  0  0  0  0  0  0  0  0  0  0
   -1.9325   -4.3748   -2.7821 C   0  0  0  0  0  0  0  0  0  0  0  0
   -3.1547   -3.6967   -2.8200 C   0  0  0  0  0  0  0  0  0  0  0  0
   -4.3845   -4.3929   -2.5866 C   0  0  0  0  0  0  0  0  0  0  0  0
   -5.4325   -4.9548   -2.4019 C   0  0  0  0  0  0  0  0  0  0  0  0
   -6.6712   -5.6293   -2.1727 C   0  0  0  0  0  0  0  0  0  0  0  0
   -7.8832   -4.9828   -2.1400 C   0  0  0  0  0  0  0  0  0  0  0  0
   -9.0630   -5.6003   -1.8949 N   0  0  0  0  0  0  0  0  0  0  0  0
   -9.0099   -6.9191   -1.6632 C   0  0  0  0  0  0  0  0  0  0  0  0
  -10.1871   -7.5744   -1.3782 N   0  0  0  0  0  0  0  0  0  0  0  0
   -7.8931   -7.6521   -1.7114 N   0  0  0  0  0  0  0  0  0  0  0  0
   -6.7421   -6.9868   -1.9607 C   0  0  0  0  0  0  0  0  0  0  0  0
   -3.1873   -2.3264   -3.0917 C   0  0  0  0  0  0  0  0  0  0  0  0
   -1.9995   -1.6381   -3.3286 C   0  0  0  0  0  0  0  0  0  0  0  0
   -0.7834   -2.3200   -3.2977 C   0  0  0  0  0  0  0  0  0  0  0  0
    0.3335   -1.6102   -3.5253 F   0  0  0  0  0  0  0  0  0  0  0  0
    4.3808   -2.4777   -0.0351 C   0  0  0  0  0  0  0  0  0  0  0  0
    0.7948   -1.6852    2.0336 H   0  0  0  0  0  0  0  0  0  0  0  0
    1.6241   -2.8294    0.9616 H   0  0  0  0  0  0  0  0  0  0  0  0
    1.0561   -1.2378    0.3831 H   0  0  0  0  0  0  0  0  0  0  0  0
    2.5182   -1.5407    3.6553 H   0  0  0  0  0  0  0  0  0  0  0  0
    4.1872   -1.2720    3.1923 H   0  0  0  0  0  0  0  0  0  0  0  0
    3.4007   -2.8182    2.7966 H   0  0  0  0  0  0  0  0  0  0  0  0
    4.7018   -0.6142    1.0264 H   0  0  0  0  0  0  0  0  0  0  0  0
    4.3523    0.1389   -1.1003 H   0  0  0  0  0  0  0  0  0  0  0  0
    2.7161    0.4342   -0.5038 H   0  0  0  0  0  0  0  0  0  0  0  0
    3.0495   -1.0537   -2.6925 H   0  0  0  0  0  0  0  0  0  0  0  0
    1.9241   -1.6429   -1.4459 H   0  0  0  0  0  0  0  0  0  0  0  0
    6.1453   -3.7185   -1.7547 H   0  0  0  0  0  0  0  0  0  0  0  0
    6.6751   -5.5932   -3.2057 H   0  0  0  0  0  0  0  0  0  0  0  0
    2.5686   -5.8099   -4.4549 H   0  0  0  0  0  0  0  0  0  0  0  0
    1.6436   -2.7276   -2.9953 H   0  0  0  0  0  0  0  0  0  0  0  0
   -1.9071   -5.4410   -2.5566 H   0  0  0  0  0  0  0  0  0  0  0  0
   -7.9674   -3.9121   -2.3051 H   0  0  0  0  0  0  0  0  0  0  0  0
  -10.9776   -7.0670   -1.7478 H   0  0  0  0  0  0  0  0  0  0  0  0
  -10.1070   -8.5547   -1.6066 H   0  0  0  0  0  0  0  0  0  0  0  0
   -5.8521   -7.6090   -1.9738 H   0  0  0  0  0  0  0  0  0  0  0  0
   -4.1355   -1.7920   -3.1276 H   0  0  0  0  0  0  0  0  0  0  0  0
   -2.0141   -0.5734   -3.5452 H   0  0  0  0  0  0  0  0  0  0  0  0
    5.4756   -2.4288   -0.0779 H   0  0  0  0  0  0  0  0  0  0  0  0
    4.1013   -3.3475    0.5684 H   0  0  0  0  0  0  0  0  0  0  0  0
  1  2  1  0  0  0  0
  1 38  1  0  0  0  0
  1 39  1  0  0  0  0
  1 40  1  0  0  0  0
  2  3  1  0  0  0  0
  2  4  1  0  0  0  0
  3 41  1  0  0  0  0
  3 42  1  0  0  0  0
  3 43  1  0  0  0  0
  4  5  1  0  0  0  0
  4 37  1  0  0  0  0
  4 44  1  1  0  0  0
  5  6  1  0  0  0  0
  5 45  1  0  0  0  0
  5 46  1  0  0  0  0
  6  7  1  0  0  0  0
  6 47  1  0  0  0  0
  6 48  1  0  0  0  0
  7  8  1  0  0  0  0
  7 37  1  0  0  0  0
  8  9  1  0  0  0  0
  8 17  2  0  0  0  0
  9 10  2  0  0  0  0
  9 49  1  0  0  0  0
 10 11  1  0  0  0  0
 10 50  1  0  0  0  0
 11 12  1  0  0  0  0
 11 16  2  0  0  0  0
 12 13  1  0  0  0  0
 12 14  1  0  0  0  0
 12 15  1  0  0  0  0
 16 17  1  0  0  0  0
 16 51  1  0  0  0  0
 17 18  1  0  0  0  0
 18 19  1  0  0  0  0
 18 52  1  0  0  0  0
 19 20  2  0  0  0  0
 19 21  1  0  0  0  0
 21 22  1  0  0  0  0
 21 35  2  0  0  0  0
 22 23  2  0  0  0  0
 22 53  1  0  0  0  0
 23 24  1  0  0  0  0
 23 33  1  0  0  0  0
 24 25  3  0  0  0  0
 25 26  1  0  0  0  0
 26 27  1  0  0  0  0
 26 32  2  0  0  0  0
 27 28  2  0  0  0  0
 27 54  1  0  0  0  0
 28 29  1  0  0  0  0
 29 30  1  0  0  0  0
 29 31  2  0  0  0  0
 30 55  1  0  0  0  0
 30 56  1  0  0  0  0
 31 32  1  0  0  0  0
 32 57  1  0  0  0  0
 33 34  2  0  0  0  0
 33 58  1  0  0  0  0
 34 35  1  0  0  0  0
 34 59  1  0  0  0  0
 35 36  1  0  0  0  0
 37 60  1  0  0  0  0
 37 61  1  0  0  0  0
M  END
$$$$
