CHEMBL249304
 OpenBabel04072215363D

 59 65  0  0  0  0  0  0  0  0999 V2000
    1.9981   -1.2656   -1.1712 C   0  0  0  0  0  0  0  0  0  0  0  0
    0.8694   -0.4120   -0.8111 N   0  0  0  0  0  0  0  0  0  0  0  0
   -0.3441   -0.8062   -1.5671 C   0  0  0  0  0  0  0  0  0  0  0  0
   -1.5967    0.0208   -1.1748 C   0  0  0  0  0  0  0  0  0  0  0  0
   -1.8137   -0.1058    0.2730 N   0  0  0  0  0  0  0  0  0  0  0  0
   -3.0784   -0.0422    0.8377 C   0  0  0  0  0  0  0  0  0  0  0  0
   -3.2979   -0.6493    2.0901 C   0  0  0  0  0  0  0  0  0  0  0  0
   -4.5506   -0.6911    2.7184 C   0  0  0  0  0  0  0  0  0  0  0  0
   -5.5991   -0.0882    2.0366 C   0  0  0  0  0  0  0  0  0  0  0  0
   -6.9237    0.0647    2.3386 N   0  0  0  0  0  0  0  0  0  0  0  0
   -7.5245    0.7451    1.3129 C   0  0  0  0  0  0  0  0  0  0  0  0
   -8.9791    1.0753    1.3225 C   0  0  0  0  0  0  0  0  0  0  0  0
   -9.7703    0.7338    2.3563 N   0  0  0  0  0  0  0  0  0  0  0  0
  -10.9935    1.1499    1.9548 N   0  0  0  0  0  0  0  0  0  0  0  0
  -11.0098    1.6968    0.7053 C   0  0  0  0  0  0  0  0  0  0  0  0
  -12.0892    2.1316    0.0323 N   0  0  0  0  0  0  0  0  0  0  0  0
  -11.7740    2.5665   -1.2217 C   0  0  0  0  0  0  0  0  0  0  0  0
  -10.4971    2.6448   -1.8071 C   0  0  0  0  0  0  0  0  0  0  0  0
  -10.2859    3.1223   -3.2019 C   0  0  0  0  0  0  0  0  0  0  0  0
  -11.0731    4.1745   -3.6941 C   0  0  0  0  0  0  0  0  0  0  0  0
  -10.9654    4.7401   -4.9160 N   0  0  0  0  0  0  0  0  0  0  0  0
   -9.9840    4.2644   -5.7053 C   0  0  0  0  0  0  0  0  0  0  0  0
   -9.1159    3.2338   -5.3571 C   0  0  0  0  0  0  0  0  0  0  0  0
   -8.0998    2.8264   -6.2402 C   0  0  0  0  0  0  0  0  0  0  0  0
   -7.2335    1.7909   -5.9059 C   0  0  0  0  0  0  0  0  0  0  0  0
   -7.4139    1.1136   -4.7118 C   0  0  0  0  0  0  0  0  0  0  0  0
   -8.4410    1.4947   -3.8411 C   0  0  0  0  0  0  0  0  0  0  0  0
   -9.2905    2.6067   -4.1003 C   0  0  0  0  0  0  0  0  0  0  0  0
   -9.4270    2.2615   -0.9814 C   0  0  0  0  0  0  0  0  0  0  0  0
   -9.6958    1.7080    0.2795 C   0  0  0  0  0  0  0  0  0  0  0  0
   -6.6600    1.0226    0.3551 N   0  0  0  0  0  0  0  0  0  0  0  0
   -5.4540    0.5195    0.7957 C   0  0  0  0  0  0  0  0  0  0  0  0
   -4.1831    0.5386    0.1874 C   0  0  0  0  0  0  0  0  0  0  0  0
   -0.6454    0.3208    1.0668 C   0  0  0  0  0  0  0  0  0  0  0  0
    0.5919   -0.5059    0.6420 C   0  0  0  0  0  0  0  0  0  0  0  0
    2.2210   -1.1760   -2.2400 H   0  0  0  0  0  0  0  0  0  0  0  0
    1.8125   -2.3225   -0.9460 H   0  0  0  0  0  0  0  0  0  0  0  0
    2.9010   -0.9539   -0.6339 H   0  0  0  0  0  0  0  0  0  0  0  0
   -0.5640   -1.8689   -1.3918 H   0  0  0  0  0  0  0  0  0  0  0  0
   -0.1663   -0.6801   -2.6410 H   0  0  0  0  0  0  0  0  0  0  0  0
   -2.4474   -0.3707   -1.7442 H   0  0  0  0  0  0  0  0  0  0  0  0
   -1.4567    1.0745   -1.4487 H   0  0  0  0  0  0  0  0  0  0  0  0
   -2.4749   -1.1552    2.5884 H   0  0  0  0  0  0  0  0  0  0  0  0
   -4.6837   -1.1837    3.6745 H   0  0  0  0  0  0  0  0  0  0  0  0
   -7.4090   -0.2603    3.1617 H   0  0  0  0  0  0  0  0  0  0  0  0
  -11.7892    1.0184    2.5666 H   0  0  0  0  0  0  0  0  0  0  0  0
  -12.6574    2.8688   -1.7837 H   0  0  0  0  0  0  0  0  0  0  0  0
  -11.8476    4.6364   -3.0848 H   0  0  0  0  0  0  0  0  0  0  0  0
   -9.9101    4.7595   -6.6713 H   0  0  0  0  0  0  0  0  0  0  0  0
   -7.9656    3.3310   -7.1961 H   0  0  0  0  0  0  0  0  0  0  0  0
   -6.4325    1.5032   -6.5829 H   0  0  0  0  0  0  0  0  0  0  0  0
   -6.7573    0.2894   -4.4424 H   0  0  0  0  0  0  0  0  0  0  0  0
   -8.5571    0.8931   -2.9456 H   0  0  0  0  0  0  0  0  0  0  0  0
   -8.3927    2.3419   -1.3027 H   0  0  0  0  0  0  0  0  0  0  0  0
   -4.0847    1.0246   -0.7785 H   0  0  0  0  0  0  0  0  0  0  0  0
   -0.7911    0.1941    2.1452 H   0  0  0  0  0  0  0  0  0  0  0  0
   -0.4559    1.3886    0.8963 H   0  0  0  0  0  0  0  0  0  0  0  0
    0.4256   -1.5540    0.9282 H   0  0  0  0  0  0  0  0  0  0  0  0
    1.4608   -0.1454    1.2053 H   0  0  0  0  0  0  0  0  0  0  0  0
  1  2  1  0  0  0  0
  1 36  1  0  0  0  0
  1 37  1  0  0  0  0
  1 38  1  0  0  0  0
  2  3  1  0  0  0  0
  2 35  1  0  0  0  0
  3  4  1  0  0  0  0
  3 39  1  0  0  0  0
  3 40  1  0  0  0  0
  4  5  1  0  0  0  0
  4 41  1  0  0  0  0
  4 42  1  0  0  0  0
  5  6  1  0  0  0  0
  5 34  1  0  0  0  0
  6  7  1  0  0  0  0
  6 33  2  0  0  0  0
  7  8  2  0  0  0  0
  7 43  1  0  0  0  0
  8  9  1  0  0  0  0
  8 44  1  0  0  0  0
  9 10  1  0  0  0  0
  9 32  2  0  0  0  0
 10 11  1  0  0  0  0
 10 45  1  0  0  0  0
 11 12  1  0  0  0  0
 11 31  2  0  0  0  0
 12 13  2  0  0  0  0
 12 30  1  0  0  0  0
 13 14  1  0  0  0  0
 14 15  1  0  0  0  0
 14 46  1  0  0  0  0
 15 16  1  0  0  0  0
 15 30  2  0  0  0  0
 16 17  2  0  0  0  0
 17 18  1  0  0  0  0
 17 47  1  0  0  0  0
 18 19  1  0  0  0  0
 18 29  2  0  0  0  0
 19 20  1  0  0  0  0
 19 28  2  0  0  0  0
 20 21  2  0  0  0  0
 20 48  1  0  0  0  0
 21 22  1  0  0  0  0
 22 23  2  0  0  0  0
 22 49  1  0  0  0  0
 23 24  1  0  0  0  0
 23 28  1  0  0  0  0
 24 25  2  0  0  0  0
 24 50  1  0  0  0  0
 25 26  1  0  0  0  0
 25 51  1  0  0  0  0
 26 27  2  0  0  0  0
 26 52  1  0  0  0  0
 27 28  1  0  0  0  0
 27 53  1  0  0  0  0
 29 30  1  0  0  0  0
 29 54  1  0  0  0  0
 31 32  1  0  0  0  0
 32 33  1  0  0  0  0
 33 55  1  0  0  0  0
 34 35  1  0  0  0  0
 34 56  1  0  0  0  0
 34 57  1  0  0  0  0
 35 58  1  0  0  0  0
 35 59  1  0  0  0  0
M  END
$$$$
