CHEMBL4468880
 OpenBabel04072215383D

 62 66  0  0  0  0  0  0  0  0999 V2000
    3.1440    6.2307   12.6463 C   0  0  0  0  0  0  0  0  0  0  0  0
    2.0132    6.6947   11.7293 C   0  0  0  0  0  0  0  0  0  0  0  0
    1.4547    8.0313   12.2230 C   0  0  0  0  0  0  0  0  0  0  0  0
    2.5031    6.8304   10.2826 C   0  0  0  0  0  0  0  0  0  0  0  0
    2.4504    7.9070    9.6971 O   0  0  0  0  0  0  0  0  0  0  0  0
    2.9280    5.6294    9.7426 N   0  0  0  0  0  0  0  0  0  0  0  0
    3.4924    5.4886    8.4617 C   0  0  0  0  0  0  0  0  0  0  0  0
    3.5723    4.2163    7.9195 C   0  0  0  0  0  0  0  0  0  0  0  0
    3.9907    4.0754    6.5949 C   0  0  0  0  0  0  0  0  0  0  0  0
    3.9928    2.8842    5.9311 O   0  0  0  0  0  0  0  0  0  0  0  0
    2.9897    1.9735    6.1856 C   0  0  0  0  0  0  0  0  0  0  0  0
    1.6772    2.3258    6.5053 C   0  0  0  0  0  0  0  0  0  0  0  0
    0.7375    1.3279    6.7648 C   0  0  0  0  0  0  0  0  0  0  0  0
    1.0647   -0.0338    6.6227 C   0  0  0  0  0  0  0  0  0  0  0  0
    0.0059   -0.9621    6.6665 N   0  0  0  0  0  0  0  0  0  0  0  0
    0.0624   -2.3722    6.7644 C   0  0  0  0  0  0  0  0  0  0  0  0
   -0.1810   -2.7763    8.0547 N   0  0  0  0  0  0  0  0  0  0  0  0
   -0.9874   -3.8366    8.2826 C   0  0  0  0  0  0  0  0  0  0  0  0
   -1.7040   -4.4281    7.2881 C   0  0  0  0  0  0  0  0  0  0  0  0
   -1.4148   -4.0208    5.9994 C   0  0  0  0  0  0  0  0  0  0  0  0
   -2.1675   -4.5956    4.9607 N   0  0  0  0  0  0  0  0  0  0  0  0
   -1.3377   -5.1581    4.0364 C   0  0  0  0  0  0  0  0  0  0  0  0
   -0.2532   -4.5729    3.4949 C   0  0  0  0  0  0  0  0  0  0  0  0
    0.0361   -5.1465    2.1402 C   0  0  0  0  0  0  0  0  0  0  0  0
    0.3078   -4.3387    1.0337 C   0  0  0  0  0  0  0  0  0  0  0  0
    0.0118   -4.7990   -0.2659 C   0  0  0  0  0  0  0  0  0  0  0  0
   -0.5656   -6.0518   -0.4647 C   0  0  0  0  0  0  0  0  0  0  0  0
   -0.9785   -6.4206   -1.6843 F   0  0  0  0  0  0  0  0  0  0  0  0
   -0.7331   -6.9173    0.5948 C   0  0  0  0  0  0  0  0  0  0  0  0
   -0.3499   -6.4955    1.8678 C   0  0  0  0  0  0  0  0  0  0  0  0
    0.1588   -3.2529    4.2230 C   0  0  0  0  0  0  0  0  0  0  0  0
    0.9037   -2.4166    3.7169 O   0  0  0  0  0  0  0  0  0  0  0  0
   -0.3769   -3.1381    5.6823 C   0  0  0  0  0  0  0  0  0  0  0  0
    2.3638   -0.3763    6.2608 C   0  0  0  0  0  0  0  0  0  0  0  0
    3.3134    0.6232    6.0534 C   0  0  0  0  0  0  0  0  0  0  0  0
    4.5545    0.2653    5.6921 F   0  0  0  0  0  0  0  0  0  0  0  0
    4.4451    5.1924    5.9049 C   0  0  0  0  0  0  0  0  0  0  0  0
    4.3993    6.4121    6.5448 C   0  0  0  0  0  0  0  0  0  0  0  0
    3.9120    6.5821    7.7901 N   0  0  0  0  0  0  0  0  0  0  0  0
    2.8215    6.1966   13.6934 H   0  0  0  0  0  0  0  0  0  0  0  0
    4.0035    6.9062   12.5729 H   0  0  0  0  0  0  0  0  0  0  0  0
    3.4906    5.2274   12.3776 H   0  0  0  0  0  0  0  0  0  0  0  0
    1.2018    5.9559   11.7422 H   0  0  0  0  0  0  0  0  0  0  0  0
    2.2021    8.8296   12.1429 H   0  0  0  0  0  0  0  0  0  0  0  0
    1.1366    7.9672   13.2679 H   0  0  0  0  0  0  0  0  0  0  0  0
    0.5868    8.3313   11.6249 H   0  0  0  0  0  0  0  0  0  0  0  0
    2.7007    4.7808   10.2391 H   0  0  0  0  0  0  0  0  0  0  0  0
    3.2651    3.3577    8.5071 H   0  0  0  0  0  0  0  0  0  0  0  0
    1.3629    3.3655    6.5488 H   0  0  0  0  0  0  0  0  0  0  0  0
   -0.2729    1.6262    7.0403 H   0  0  0  0  0  0  0  0  0  0  0  0
   -0.6155   -0.6890    7.4318 H   0  0  0  0  0  0  0  0  0  0  0  0
   -1.0887   -4.1755    9.3080 H   0  0  0  0  0  0  0  0  0  0  0  0
   -2.4237   -5.2218    7.4611 H   0  0  0  0  0  0  0  0  0  0  0  0
   -2.5724   -3.7822    4.4649 H   0  0  0  0  0  0  0  0  0  0  0  0
   -1.7905   -6.0922    3.7372 H   0  0  0  0  0  0  0  0  0  0  0  0
    0.6657   -3.3197    1.1603 H   0  0  0  0  0  0  0  0  0  0  0  0
    0.1653   -4.1590   -1.1290 H   0  0  0  0  0  0  0  0  0  0  0  0
   -1.2058   -7.8849    0.4483 H   0  0  0  0  0  0  0  0  0  0  0  0
   -0.5068   -7.2128    2.6740 H   0  0  0  0  0  0  0  0  0  0  0  0
    2.6521   -1.4127    6.1231 H   0  0  0  0  0  0  0  0  0  0  0  0
    4.8142    5.1081    4.8899 H   0  0  0  0  0  0  0  0  0  0  0  0
    4.7466    7.3217    6.0604 H   0  0  0  0  0  0  0  0  0  0  0  0
  1  2  1  0  0  0  0
  1 40  1  0  0  0  0
  1 41  1  0  0  0  0
  1 42  1  0  0  0  0
  2  3  1  0  0  0  0
  2  4  1  0  0  0  0
  2 43  1  0  0  0  0
  3 44  1  0  0  0  0
  3 45  1  0  0  0  0
  3 46  1  0  0  0  0
  4  5  2  0  0  0  0
  4  6  1  0  0  0  0
  6  7  1  0  0  0  0
  6 47  1  0  0  0  0
  7  8  1  0  0  0  0
  7 39  2  0  0  0  0
  8  9  2  0  0  0  0
  8 48  1  0  0  0  0
  9 10  1  0  0  0  0
  9 37  1  0  0  0  0
 10 11  1  0  0  0  0
 11 12  1  0  0  0  0
 11 35  2  0  0  0  0
 12 13  2  0  0  0  0
 12 49  1  0  0  0  0
 13 14  1  0  0  0  0
 13 50  1  0  0  0  0
 14 15  1  0  0  0  0
 14 34  2  0  0  0  0
 15 16  1  0  0  0  0
 15 51  1  0  0  0  0
 16 17  1  0  0  0  0
 16 33  2  0  0  0  0
 17 18  2  0  0  0  0
 18 19  1  0  0  0  0
 18 52  1  0  0  0  0
 19 20  2  0  0  0  0
 19 53  1  0  0  0  0
 20 21  1  0  0  0  0
 20 33  1  0  0  0  0
 21 22  1  0  0  0  0
 21 54  1  0  0  0  0
 22 23  2  0  0  0  0
 22 55  1  0  0  0  0
 23 24  1  0  0  0  0
 23 31  1  0  0  0  0
 24 25  1  0  0  0  0
 24 30  2  0  0  0  0
 25 26  2  0  0  0  0
 25 56  1  0  0  0  0
 26 27  1  0  0  0  0
 26 57  1  0  0  0  0
 27 28  1  0  0  0  0
 27 29  2  0  0  0  0
 29 30  1  0  0  0  0
 29 58  1  0  0  0  0
 30 59  1  0  0  0  0
 31 32  2  0  0  0  0
 31 33  1  0  0  0  0
 34 35  1  0  0  0  0
 34 60  1  0  0  0  0
 35 36  1  0  0  0  0
 37 38  2  0  0  0  0
 37 61  1  0  0  0  0
 38 39  1  0  0  0  0
 38 62  1  0  0  0  0
M  END
$$$$
