CHEMBL1271641
 OpenBabel04072215363D

 56 60  0  0  0  0  0  0  0  0999 V2000
    0.4053    4.0203   -3.1216 O   0  0  0  0  0  0  0  0  0  0  0  0
   -0.4264    3.3272   -2.2889 C   0  0  0  0  0  0  0  0  0  0  0  0
    0.0741    2.3234   -1.4641 C   0  0  0  0  0  0  0  0  0  0  0  0
   -0.7961    1.6205   -0.6227 C   0  0  0  0  0  0  0  0  0  0  0  0
   -2.1696    1.9139   -0.6011 C   0  0  0  0  0  0  0  0  0  0  0  0
   -3.0668    1.1463    0.2500 C   0  0  0  0  0  0  0  0  0  0  0  0
   -2.9758   -0.1971    0.6753 C   0  0  0  0  0  0  0  0  0  0  0  0
   -3.9872   -0.5769    1.4542 N   0  0  0  0  0  0  0  0  0  0  0  0
   -4.7661    0.5259    1.5480 N   0  0  0  0  0  0  0  0  0  0  0  0
   -5.9540    0.6521    2.2569 C   0  0  0  0  0  0  0  0  0  0  0  0
   -6.6225    1.8153    2.2614 C   0  0  0  0  0  0  0  0  0  0  0  0
   -7.8653    2.0028    2.9993 C   0  0  0  0  0  0  0  0  0  0  0  0
   -7.8304    2.4072    4.3374 C   0  0  0  0  0  0  0  0  0  0  0  0
   -9.0179    2.5594    5.0578 C   0  0  0  0  0  0  0  0  0  0  0  0
  -10.2490    2.3288    4.4396 C   0  0  0  0  0  0  0  0  0  0  0  0
  -11.4699    2.4771    5.0433 O   0  0  0  0  0  0  0  0  0  0  0  0
  -11.4949    3.4186    6.1236 C   0  0  0  0  0  0  0  0  0  0  0  0
  -12.9176    3.9833    6.2667 C   0  0  0  0  0  0  0  0  0  0  0  0
  -13.0742    4.9823    7.3437 N   0  0  0  0  0  0  0  0  0  0  0  0
  -14.4680    5.4878    7.3965 C   0  0  0  0  0  0  0  0  0  0  0  0
  -14.8272    6.4583    6.2532 C   0  0  0  0  0  0  0  0  0  0  0  0
  -13.9063    7.5552    6.1766 O   0  0  0  0  0  0  0  0  0  0  0  0
  -12.5605    7.0844    6.0411 C   0  0  0  0  0  0  0  0  0  0  0  0
  -12.1866    6.1604    7.2100 C   0  0  0  0  0  0  0  0  0  0  0  0
  -10.2827    1.9043    3.1109 C   0  0  0  0  0  0  0  0  0  0  0  0
   -9.0970    1.7463    2.3888 C   0  0  0  0  0  0  0  0  0  0  0  0
   -5.9905    2.9067    1.4632 C   0  0  0  0  0  0  0  0  0  0  0  0
   -4.8800    2.8215    0.7888 N   0  0  0  0  0  0  0  0  0  0  0  0
   -4.2417    1.6062    0.8234 C   0  0  0  0  0  0  0  0  0  0  0  0
   -2.6539    2.9309   -1.4361 C   0  0  0  0  0  0  0  0  0  0  0  0
   -1.7851    3.6324   -2.2713 C   0  0  0  0  0  0  0  0  0  0  0  0
   -2.2649    4.6212   -3.0851 O   0  0  0  0  0  0  0  0  0  0  0  0
    1.3095    3.6895   -3.0142 H   0  0  0  0  0  0  0  0  0  0  0  0
    1.1303    2.0739   -1.4615 H   0  0  0  0  0  0  0  0  0  0  0  0
   -0.3823    0.8473    0.0206 H   0  0  0  0  0  0  0  0  0  0  0  0
   -2.2093   -0.9236    0.4367 H   0  0  0  0  0  0  0  0  0  0  0  0
   -6.2798   -0.2327    2.7872 H   0  0  0  0  0  0  0  0  0  0  0  0
   -6.8812    2.5997    4.8340 H   0  0  0  0  0  0  0  0  0  0  0  0
   -8.9529    2.8518    6.1016 H   0  0  0  0  0  0  0  0  0  0  0  0
  -10.8108    4.2437    5.9029 H   0  0  0  0  0  0  0  0  0  0  0  0
  -11.1899    2.9163    7.0488 H   0  0  0  0  0  0  0  0  0  0  0  0
  -13.5884    3.1369    6.4683 H   0  0  0  0  0  0  0  0  0  0  0  0
  -13.2316    4.3746    5.2915 H   0  0  0  0  0  0  0  0  0  0  0  0
  -14.5836    6.0211    8.3496 H   0  0  0  0  0  0  0  0  0  0  0  0
  -15.1804    4.6552    7.4256 H   0  0  0  0  0  0  0  0  0  0  0  0
  -15.8217    6.8804    6.4298 H   0  0  0  0  0  0  0  0  0  0  0  0
  -14.8561    5.9502    5.2836 H   0  0  0  0  0  0  0  0  0  0  0  0
  -11.9029    7.9596    6.0396 H   0  0  0  0  0  0  0  0  0  0  0  0
  -12.4441    6.5858    5.0718 H   0  0  0  0  0  0  0  0  0  0  0  0
  -12.2689    6.7349    8.1424 H   0  0  0  0  0  0  0  0  0  0  0  0
  -11.1339    5.8697    7.1497 H   0  0  0  0  0  0  0  0  0  0  0  0
  -11.2379    1.7059    2.6312 H   0  0  0  0  0  0  0  0  0  0  0  0
   -9.1466    1.4196    1.3524 H   0  0  0  0  0  0  0  0  0  0  0  0
   -6.5333    3.8668    1.4568 H   0  0  0  0  0  0  0  0  0  0  0  0
   -3.7132    3.1681   -1.4432 H   0  0  0  0  0  0  0  0  0  0  0  0
   -3.2124    4.7334   -2.9099 H   0  0  0  0  0  0  0  0  0  0  0  0
  1  2  1  0  0  0  0
  1 33  1  0  0  0  0
  2  3  1  0  0  0  0
  2 31  2  0  0  0  0
  3  4  2  0  0  0  0
  3 34  1  0  0  0  0
  4  5  1  0  0  0  0
  4 35  1  0  0  0  0
  5  6  1  0  0  0  0
  5 30  2  0  0  0  0
  6  7  1  0  0  0  0
  6 29  2  0  0  0  0
  7  8  2  0  0  0  0
  7 36  1  0  0  0  0
  8  9  1  0  0  0  0
  9 10  1  0  0  0  0
  9 29  1  0  0  0  0
 10 11  2  0  0  0  0
 10 37  1  0  0  0  0
 11 12  1  0  0  0  0
 11 27  1  0  0  0  0
 12 13  1  0  0  0  0
 12 26  2  0  0  0  0
 13 14  2  0  0  0  0
 13 38  1  0  0  0  0
 14 15  1  0  0  0  0
 14 39  1  0  0  0  0
 15 16  1  0  0  0  0
 15 25  2  0  0  0  0
 16 17  1  0  0  0  0
 17 18  1  0  0  0  0
 17 40  1  0  0  0  0
 17 41  1  0  0  0  0
 18 19  1  0  0  0  0
 18 42  1  0  0  0  0
 18 43  1  0  0  0  0
 19 20  1  0  0  0  0
 19 24  1  0  0  0  0
 20 21  1  0  0  0  0
 20 44  1  0  0  0  0
 20 45  1  0  0  0  0
 21 22  1  0  0  0  0
 21 46  1  0  0  0  0
 21 47  1  0  0  0  0
 22 23  1  0  0  0  0
 23 24  1  0  0  0  0
 23 48  1  0  0  0  0
 23 49  1  0  0  0  0
 24 50  1  0  0  0  0
 24 51  1  0  0  0  0
 25 26  1  0  0  0  0
 25 52  1  0  0  0  0
 26 53  1  0  0  0  0
 27 28  2  0  0  0  0
 27 54  1  0  0  0  0
 28 29  1  0  0  0  0
 30 31  1  0  0  0  0
 30 55  1  0  0  0  0
 31 32  1  0  0  0  0
 32 56  1  0  0  0  0
M  END
$$$$
