CHEMBL234489
 OpenBabel04072215363D

 42 45  0  0  0  0  0  0  0  0999 V2000
   -3.2515    0.2524    0.7363 N   0  0  0  0  0  0  0  0  0  0  0  0
   -2.1354    0.0038    0.5549 C   0  0  0  0  0  0  0  0  0  0  0  0
   -0.7336   -0.1821    0.3614 C   0  0  0  0  0  0  0  0  0  0  0  0
    0.0878    0.9221    0.2814 C   0  0  0  0  0  0  0  0  0  0  0  0
    1.4262    0.8686    0.1029 N   0  0  0  0  0  0  0  0  0  0  0  0
    1.9886   -0.3439    0.0361 C   0  0  0  0  0  0  0  0  0  0  0  0
    3.3649   -0.3575   -0.1721 N   0  0  0  0  0  0  0  0  0  0  0  0
    4.3223   -1.3780   -0.1145 C   0  0  0  0  0  0  0  0  0  0  0  0
    5.5252   -1.2377   -0.8250 C   0  0  0  0  0  0  0  0  0  0  0  0
    6.4643   -2.2793   -0.8874 C   0  0  0  0  0  0  0  0  0  0  0  0
    6.2162   -3.4934   -0.2409 C   0  0  0  0  0  0  0  0  0  0  0  0
    7.1575   -4.6694   -0.3697 C   0  0  0  0  0  0  0  0  0  0  0  0
    8.2687   -4.7153    0.6775 C   0  0  0  0  0  0  0  0  0  0  0  0
    7.7486   -4.8438    1.9958 O   0  0  0  0  0  0  0  0  0  0  0  0
    5.0382   -3.6236    0.5025 C   0  0  0  0  0  0  0  0  0  0  0  0
    4.1019   -2.5852    0.5513 C   0  0  0  0  0  0  0  0  0  0  0  0
    1.2662   -1.4717    0.0860 N   0  0  0  0  0  0  0  0  0  0  0  0
   -0.0913   -1.3930    0.2113 C   0  0  0  0  0  0  0  0  0  0  0  0
   -0.8077   -2.6881    0.0670 C   0  0  0  0  0  0  0  0  0  0  0  0
   -2.0961   -2.9002    0.2758 N   0  0  0  0  0  0  0  0  0  0  0  0
   -2.4520   -4.1936   -0.1030 C   0  0  0  0  0  0  0  0  0  0  0  0
   -3.7407   -4.7732   -0.0554 C   0  0  0  0  0  0  0  0  0  0  0  0
   -3.9388   -6.0856   -0.5117 C   0  0  0  0  0  0  0  0  0  0  0  0
   -2.8781   -6.8257   -1.0218 C   0  0  0  0  0  0  0  0  0  0  0  0
   -1.5937   -6.2798   -1.0718 C   0  0  0  0  0  0  0  0  0  0  0  0
   -1.4045   -4.9709   -0.5985 C   0  0  0  0  0  0  0  0  0  0  0  0
    0.0504   -4.0688   -0.5203 S   0  0  0  0  0  0  0  0  0  0  0  0
   -0.3151    1.9325    0.3395 H   0  0  0  0  0  0  0  0  0  0  0  0
    3.7017    0.5770   -0.3492 H   0  0  0  0  0  0  0  0  0  0  0  0
    5.7302   -0.3208   -1.3735 H   0  0  0  0  0  0  0  0  0  0  0  0
    7.3691   -2.1420   -1.4758 H   0  0  0  0  0  0  0  0  0  0  0  0
    7.6049   -4.6608   -1.3714 H   0  0  0  0  0  0  0  0  0  0  0  0
    6.5657   -5.5922   -0.3101 H   0  0  0  0  0  0  0  0  0  0  0  0
    8.9104   -3.8299    0.6359 H   0  0  0  0  0  0  0  0  0  0  0  0
    8.8965   -5.5942    0.4941 H   0  0  0  0  0  0  0  0  0  0  0  0
    7.3080   -4.0009    2.2066 H   0  0  0  0  0  0  0  0  0  0  0  0
    4.8228   -4.5501    1.0312 H   0  0  0  0  0  0  0  0  0  0  0  0
    3.1949   -2.7382    1.1294 H   0  0  0  0  0  0  0  0  0  0  0  0
   -4.5794   -4.1984    0.3274 H   0  0  0  0  0  0  0  0  0  0  0  0
   -4.9321   -6.5284   -0.4728 H   0  0  0  0  0  0  0  0  0  0  0  0
   -3.0440   -7.8384   -1.3850 H   0  0  0  0  0  0  0  0  0  0  0  0
   -0.7624   -6.8508   -1.4733 H   0  0  0  0  0  0  0  0  0  0  0  0
  1  2  3  0  0  0  0
  2  3  1  0  0  0  0
  3  4  1  0  0  0  0
  3 18  2  0  0  0  0
  4  5  2  0  0  0  0
  4 28  1  0  0  0  0
  5  6  1  0  0  0  0
  6  7  1  0  0  0  0
  6 17  2  0  0  0  0
  7  8  1  0  0  0  0
  7 29  1  0  0  0  0
  8  9  1  0  0  0  0
  8 16  2  0  0  0  0
  9 10  2  0  0  0  0
  9 30  1  0  0  0  0
 10 11  1  0  0  0  0
 10 31  1  0  0  0  0
 11 12  1  0  0  0  0
 11 15  2  0  0  0  0
 12 13  1  0  0  0  0
 12 32  1  0  0  0  0
 12 33  1  0  0  0  0
 13 14  1  0  0  0  0
 13 34  1  0  0  0  0
 13 35  1  0  0  0  0
 14 36  1  0  0  0  0
 15 16  1  0  0  0  0
 15 37  1  0  0  0  0
 16 38  1  0  0  0  0
 17 18  1  0  0  0  0
 18 19  1  0  0  0  0
 19 20  2  0  0  0  0
 19 27  1  0  0  0  0
 20 21  1  0  0  0  0
 21 22  1  0  0  0  0
 21 26  2  0  0  0  0
 22 23  2  0  0  0  0
 22 39  1  0  0  0  0
 23 24  1  0  0  0  0
 23 40  1  0  0  0  0
 24 25  2  0  0  0  0
 24 41  1  0  0  0  0
 25 26  1  0  0  0  0
 25 42  1  0  0  0  0
 26 27  1  0  0  0  0
M  END
$$$$
