CHEMBL4448494
 OpenBabel04072215383D

 69 73  0  0  0  0  0  0  0  0999 V2000
    1.3280   -1.2055    0.5869 C   0  0  0  0  0  0  0  0  0  0  0  0
    2.6686   -0.6752    0.2375 C   0  0  0  0  0  0  0  0  0  0  0  0
    3.1116   -0.6281   -0.9990 N   0  0  0  0  0  0  0  0  0  0  0  0
    4.3650   -0.0654   -0.9448 C   0  0  0  0  0  0  0  0  0  0  0  0
    5.2644    0.2232   -1.9585 C   0  0  0  0  0  0  0  0  0  0  0  0
    4.9871   -0.0348   -3.2438 F   0  0  0  0  0  0  0  0  0  0  0  0
    6.4924    0.7933   -1.6405 C   0  0  0  0  0  0  0  0  0  0  0  0
    6.8565    1.0759   -0.3084 C   0  0  0  0  0  0  0  0  0  0  0  0
    8.2054    1.5858   -0.0352 C   0  0  0  0  0  0  0  0  0  0  0  0
    9.1137    1.1316   -0.9320 N   0  0  0  0  0  0  0  0  0  0  0  0
   10.3840    1.4869   -0.7843 C   0  0  0  0  0  0  0  0  0  0  0  0
   11.3536    0.9917   -1.6412 N   0  0  0  0  0  0  0  0  0  0  0  0
   11.3434    0.8378   -3.0171 C   0  0  0  0  0  0  0  0  0  0  0  0
   10.4565    0.1659   -3.8462 C   0  0  0  0  0  0  0  0  0  0  0  0
   10.7484    0.0357   -5.2503 C   0  0  0  0  0  0  0  0  0  0  0  0
   11.9137    0.6079   -5.7971 C   0  0  0  0  0  0  0  0  0  0  0  0
   12.6260    1.3560   -4.8789 C   0  0  0  0  0  0  0  0  0  0  0  0
   12.4058    1.4299   -3.5470 N   0  0  0  0  0  0  0  0  0  0  0  0
   13.7175    2.2660   -5.2664 C   0  0  0  0  0  0  0  0  0  0  0  0
   14.2769    2.1136   -6.6451 C   0  0  0  0  0  0  0  0  0  0  0  0
   13.9155    0.8665   -7.3171 N   0  0  0  0  0  0  0  0  0  0  0  0
   14.7120    0.7335   -8.5697 C   0  0  0  0  0  0  0  0  0  0  0  0
   16.2262    0.3896   -8.2041 C   0  0  0  0  0  0  0  0  0  0  0  0
   17.3102    0.5327   -9.2171 N   0  0  0  0  0  0  0  0  0  0  0  0
   17.8309    1.9107   -9.2939 C   0  0  0  0  0  0  0  0  0  0  0  0
   18.4488   -0.3222   -8.8159 C   0  0  0  0  0  0  0  0  0  0  0  0
   12.4481    0.5626   -7.2570 C   0  0  0  0  0  0  0  0  0  0  0  0
   10.8093    2.2898    0.2172 N   0  0  0  0  0  0  0  0  0  0  0  0
    9.8877    2.7469    1.0918 C   0  0  0  0  0  0  0  0  0  0  0  0
    8.5606    2.4134    1.0136 C   0  0  0  0  0  0  0  0  0  0  0  0
    7.6789    2.8820    1.9050 F   0  0  0  0  0  0  0  0  0  0  0  0
    5.9423    0.7941    0.7236 C   0  0  0  0  0  0  0  0  0  0  0  0
    4.7105    0.2178    0.3748 C   0  0  0  0  0  0  0  0  0  0  0  0
    3.6038   -0.1661    1.1236 N   0  0  0  0  0  0  0  0  0  0  0  0
    3.5045    0.0333    2.5670 C   0  0  0  0  0  0  0  0  0  0  0  0
    2.9478    1.4208    2.8864 C   0  0  0  0  0  0  0  0  0  0  0  0
    2.7682   -1.0494    3.3565 C   0  0  0  0  0  0  0  0  0  0  0  0
    0.7861   -1.4783   -0.3269 H   0  0  0  0  0  0  0  0  0  0  0  0
    0.7313   -0.4561    1.1131 H   0  0  0  0  0  0  0  0  0  0  0  0
    1.4061   -2.1135    1.1917 H   0  0  0  0  0  0  0  0  0  0  0  0
    7.1851    0.9984   -2.4564 H   0  0  0  0  0  0  0  0  0  0  0  0
   12.2000    1.5203   -1.4358 H   0  0  0  0  0  0  0  0  0  0  0  0
    9.5601   -0.2850   -3.4241 H   0  0  0  0  0  0  0  0  0  0  0  0
   10.0353   -0.5119   -5.8678 H   0  0  0  0  0  0  0  0  0  0  0  0
   13.3327    3.2775   -5.1304 H   0  0  0  0  0  0  0  0  0  0  0  0
   14.5262    2.0987   -4.5414 H   0  0  0  0  0  0  0  0  0  0  0  0
   15.3571    2.1406   -6.4819 H   0  0  0  0  0  0  0  0  0  0  0  0
   14.0668    3.0095   -7.2448 H   0  0  0  0  0  0  0  0  0  0  0  0
   14.6638    1.6445   -9.1833 H   0  0  0  0  0  0  0  0  0  0  0  0
   14.3219   -0.0865   -9.1834 H   0  0  0  0  0  0  0  0  0  0  0  0
   16.1866   -0.6614   -7.8910 H   0  0  0  0  0  0  0  0  0  0  0  0
   16.5612    0.9276   -7.3126 H   0  0  0  0  0  0  0  0  0  0  0  0
   17.0843    2.6065   -9.6837 H   0  0  0  0  0  0  0  0  0  0  0  0
   18.6866    1.9550   -9.9844 H   0  0  0  0  0  0  0  0  0  0  0  0
   18.1924    2.2843   -8.3258 H   0  0  0  0  0  0  0  0  0  0  0  0
   18.1540   -1.3759   -8.7917 H   0  0  0  0  0  0  0  0  0  0  0  0
   18.8472   -0.0510   -7.8285 H   0  0  0  0  0  0  0  0  0  0  0  0
   19.2703   -0.2457   -9.5391 H   0  0  0  0  0  0  0  0  0  0  0  0
   12.2948   -0.4556   -7.6417 H   0  0  0  0  0  0  0  0  0  0  0  0
   11.8468    1.2470   -7.8750 H   0  0  0  0  0  0  0  0  0  0  0  0
   10.2512    3.4109    1.8703 H   0  0  0  0  0  0  0  0  0  0  0  0
    6.1918    0.9806    1.7627 H   0  0  0  0  0  0  0  0  0  0  0  0
    4.5359   -0.0010    2.9409 H   0  0  0  0  0  0  0  0  0  0  0  0
    1.9388    1.5515    2.4821 H   0  0  0  0  0  0  0  0  0  0  0  0
    3.5814    2.2069    2.4594 H   0  0  0  0  0  0  0  0  0  0  0  0
    2.9071    1.5835    3.9686 H   0  0  0  0  0  0  0  0  0  0  0  0
    1.6900   -1.0225    3.1854 H   0  0  0  0  0  0  0  0  0  0  0  0
    2.9167   -0.8946    4.4324 H   0  0  0  0  0  0  0  0  0  0  0  0
    3.1425   -2.0465    3.1064 H   0  0  0  0  0  0  0  0  0  0  0  0
  1  2  1  0  0  0  0
  1 38  1  0  0  0  0
  1 39  1  0  0  0  0
  1 40  1  0  0  0  0
  2  3  2  0  0  0  0
  2 34  1  0  0  0  0
  3  4  1  0  0  0  0
  4  5  1  0  0  0  0
  4 33  2  0  0  0  0
  5  6  1  0  0  0  0
  5  7  2  0  0  0  0
  7  8  1  0  0  0  0
  7 41  1  0  0  0  0
  8  9  1  0  0  0  0
  8 32  2  0  0  0  0
  9 10  1  0  0  0  0
  9 30  2  0  0  0  0
 10 11  2  0  0  0  0
 11 12  1  0  0  0  0
 11 28  1  0  0  0  0
 12 13  1  0  0  0  0
 12 42  1  0  0  0  0
 13 14  1  0  0  0  0
 13 18  2  0  0  0  0
 14 15  2  0  0  0  0
 14 43  1  0  0  0  0
 15 16  1  0  0  0  0
 15 44  1  0  0  0  0
 16 17  2  0  0  0  0
 16 27  1  0  0  0  0
 17 18  1  0  0  0  0
 17 19  1  0  0  0  0
 19 20  1  0  0  0  0
 19 45  1  0  0  0  0
 19 46  1  0  0  0  0
 20 21  1  0  0  0  0
 20 47  1  0  0  0  0
 20 48  1  0  0  0  0
 21 22  1  0  0  0  0
 21 27  1  0  0  0  0
 22 23  1  0  0  0  0
 22 49  1  0  0  0  0
 22 50  1  0  0  0  0
 23 24  1  0  0  0  0
 23 51  1  0  0  0  0
 23 52  1  0  0  0  0
 24 25  1  0  0  0  0
 24 26  1  0  0  0  0
 25 53  1  0  0  0  0
 25 54  1  0  0  0  0
 25 55  1  0  0  0  0
 26 56  1  0  0  0  0
 26 57  1  0  0  0  0
 26 58  1  0  0  0  0
 27 59  1  0  0  0  0
 27 60  1  0  0  0  0
 28 29  2  0  0  0  0
 29 30  1  0  0  0  0
 29 61  1  0  0  0  0
 30 31  1  0  0  0  0
 32 33  1  0  0  0  0
 32 62  1  0  0  0  0
 33 34  1  0  0  0  0
 34 35  1  0  0  0  0
 35 36  1  0  0  0  0
 35 37  1  0  0  0  0
 35 63  1  0  0  0  0
 36 64  1  0  0  0  0
 36 65  1  0  0  0  0
 36 66  1  0  0  0  0
 37 67  1  0  0  0  0
 37 68  1  0  0  0  0
 37 69  1  0  0  0  0
M  END
$$$$
