CHEMBL469023
 OpenBabel04072215383D

 47 51  0  0  0  0  0  0  0  0999 V2000
    2.9393   -0.6972    0.8146 O   0  0  0  0  0  0  0  0  0  0  0  0
    2.3214    0.0235    0.0381 C   0  0  0  0  0  0  0  0  0  0  0  0
    3.0265    0.6362   -1.1383 C   0  0  0  0  0  0  0  0  0  0  0  0
    2.7426    1.9847   -1.4341 C   0  0  0  0  0  0  0  0  0  0  0  0
    3.4132    2.6441   -2.4572 C   0  0  0  0  0  0  0  0  0  0  0  0
    4.4186    1.9833   -3.1455 C   0  0  0  0  0  0  0  0  0  0  0  0
    4.7197    0.6513   -2.8444 C   0  0  0  0  0  0  0  0  0  0  0  0
    3.9989   -0.0796   -1.8853 C   0  0  0  0  0  0  0  0  0  0  0  0
    4.2495   -1.4235   -1.6680 N   0  0  0  0  0  0  0  0  0  0  0  0
    5.4074   -2.1852   -2.1032 C   0  0  0  0  0  0  0  0  0  0  0  0
    6.5233   -2.2111   -1.0770 C   0  0  0  0  0  0  0  0  0  0  0  0
    7.8512   -2.3219   -1.5071 C   0  0  0  0  0  0  0  0  0  0  0  0
    8.8954   -2.4415   -0.5812 C   0  0  0  0  0  0  0  0  0  0  0  0
    8.6631   -2.4515    0.7860 C   0  0  0  0  0  0  0  0  0  0  0  0
    9.7051   -2.5717    1.6304 N   0  0  0  0  0  0  0  0  0  0  0  0
    9.4489   -2.5552    2.9565 C   0  0  0  0  0  0  0  0  0  0  0  0
    8.1854   -2.4241    3.4962 C   0  0  0  0  0  0  0  0  0  0  0  0
    7.1088   -2.3158    2.6177 C   0  0  0  0  0  0  0  0  0  0  0  0
    7.3325   -2.3317    1.2339 C   0  0  0  0  0  0  0  0  0  0  0  0
    6.2772   -2.2284    0.3052 C   0  0  0  0  0  0  0  0  0  0  0  0
    0.9094    0.3423    0.2504 C   0  0  0  0  0  0  0  0  0  0  0  0
    0.3287    0.5241    1.4992 C   0  0  0  0  0  0  0  0  0  0  0  0
   -1.0094    0.7791    1.3271 N   0  0  0  0  0  0  0  0  0  0  0  0
   -1.3173    0.7259   -0.0021 C   0  0  0  0  0  0  0  0  0  0  0  0
   -2.5592    0.8776   -0.4968 N   0  0  0  0  0  0  0  0  0  0  0  0
   -2.6080    0.7528   -1.8425 C   0  0  0  0  0  0  0  0  0  0  0  0
   -1.5218    0.5253   -2.6755 C   0  0  0  0  0  0  0  0  0  0  0  0
   -0.2552    0.3868   -2.1100 C   0  0  0  0  0  0  0  0  0  0  0  0
   -0.1444    0.4773   -0.7107 C   0  0  0  0  0  0  0  0  0  0  0  0
    2.0001    2.5391   -0.8635 H   0  0  0  0  0  0  0  0  0  0  0  0
    3.1690    3.6748   -2.6990 H   0  0  0  0  0  0  0  0  0  0  0  0
    4.9748    2.4967   -3.9257 H   0  0  0  0  0  0  0  0  0  0  0  0
    5.5200    0.1899   -3.4135 H   0  0  0  0  0  0  0  0  0  0  0  0
    3.5037   -1.9680   -1.2448 H   0  0  0  0  0  0  0  0  0  0  0  0
    5.7846   -1.8334   -3.0687 H   0  0  0  0  0  0  0  0  0  0  0  0
    5.0930   -3.2222   -2.2715 H   0  0  0  0  0  0  0  0  0  0  0  0
    8.0946   -2.3217   -2.5673 H   0  0  0  0  0  0  0  0  0  0  0  0
    9.9180   -2.5300   -0.9365 H   0  0  0  0  0  0  0  0  0  0  0  0
   10.3228   -2.6511    3.5948 H   0  0  0  0  0  0  0  0  0  0  0  0
    8.0372   -2.3999    4.5687 H   0  0  0  0  0  0  0  0  0  0  0  0
    6.1022   -2.2082    3.0143 H   0  0  0  0  0  0  0  0  0  0  0  0
    5.2517   -2.1538    0.6651 H   0  0  0  0  0  0  0  0  0  0  0  0
    0.7612    0.4950    2.4918 H   0  0  0  0  0  0  0  0  0  0  0  0
   -1.6883    0.9509    2.0551 H   0  0  0  0  0  0  0  0  0  0  0  0
   -3.6061    0.8386   -2.2653 H   0  0  0  0  0  0  0  0  0  0  0  0
   -1.6571    0.4440   -3.7484 H   0  0  0  0  0  0  0  0  0  0  0  0
    0.6090    0.1969   -2.7384 H   0  0  0  0  0  0  0  0  0  0  0  0
  1  2  2  0  0  0  0
  2  3  1  0  0  0  0
  2 21  1  0  0  0  0
  3  4  1  0  0  0  0
  3  8  2  0  0  0  0
  4  5  2  0  0  0  0
  4 30  1  0  0  0  0
  5  6  1  0  0  0  0
  5 31  1  0  0  0  0
  6  7  2  0  0  0  0
  6 32  1  0  0  0  0
  7  8  1  0  0  0  0
  7 33  1  0  0  0  0
  8  9  1  0  0  0  0
  9 10  1  0  0  0  0
  9 34  1  0  0  0  0
 10 11  1  0  0  0  0
 10 35  1  0  0  0  0
 10 36  1  0  0  0  0
 11 12  1  0  0  0  0
 11 20  2  0  0  0  0
 12 13  2  0  0  0  0
 12 37  1  0  0  0  0
 13 14  1  0  0  0  0
 13 38  1  0  0  0  0
 14 15  1  0  0  0  0
 14 19  2  0  0  0  0
 15 16  2  0  0  0  0
 16 17  1  0  0  0  0
 16 39  1  0  0  0  0
 17 18  2  0  0  0  0
 17 40  1  0  0  0  0
 18 19  1  0  0  0  0
 18 41  1  0  0  0  0
 19 20  1  0  0  0  0
 20 42  1  0  0  0  0
 21 22  2  0  0  0  0
 21 29  1  0  0  0  0
 22 23  1  0  0  0  0
 22 43  1  0  0  0  0
 23 24  1  0  0  0  0
 23 44  1  0  0  0  0
 24 25  1  0  0  0  0
 24 29  2  0  0  0  0
 25 26  2  0  0  0  0
 26 27  1  0  0  0  0
 26 45  1  0  0  0  0
 27 28  2  0  0  0  0
 27 46  1  0  0  0  0
 28 29  1  0  0  0  0
 28 47  1  0  0  0  0
M  END
$$$$
