CHEMBL1277072
 OpenBabel04072215363D

 63 67  0  0  1  0  0  0  0  0999 V2000
    4.2032    1.9536    2.6581 C   0  0  0  0  0  0  0  0  0  0  0  0
    4.8722    1.2768    1.5141 C   0  0  0  0  0  0  0  0  0  0  0  0
    5.2741   -0.0440    1.3794 C   0  0  0  0  0  0  0  0  0  0  0  0
    4.9634   -1.1318    2.2330 C   0  0  0  0  0  0  0  0  0  0  0  0
    5.1439   -2.4478    2.0810 C   0  0  0  0  0  0  0  0  0  0  0  0
    5.8168   -3.2524    1.0058 C   0  0  0  0  0  0  0  0  0  0  0  0
    6.4878   -2.8393    0.0767 O   0  0  0  0  0  0  0  0  0  0  0  0
    5.5315   -4.5774    1.3155 N   0  0  0  0  0  0  0  0  0  0  0  0
    4.7875   -4.6803    2.4895 C   0  0  0  0  0  0  0  0  0  0  0  0
    4.3338   -5.8331    3.1027 C   0  0  0  0  0  0  0  0  0  0  0  0
    3.6260   -5.6894    4.3013 C   0  0  0  0  0  0  0  0  0  0  0  0
    3.3902   -4.4158    4.8369 C   0  0  0  0  0  0  0  0  0  0  0  0
    2.7205   -4.3049    5.9915 F   0  0  0  0  0  0  0  0  0  0  0  0
    3.8370   -3.2624    4.2020 C   0  0  0  0  0  0  0  0  0  0  0  0
    4.5428   -3.4109    3.0187 C   0  0  0  0  0  0  0  0  0  0  0  0
    5.9902   -0.1382    0.1984 N   0  0  0  0  0  0  0  0  0  0  0  0
    5.9551    1.0819   -0.4576 C   0  0  0  0  0  0  0  0  0  0  0  0
    5.1205    1.8974    0.2720 C   0  0  0  0  0  0  0  0  0  0  0  0
    4.6001    3.1707   -0.1568 C   0  0  0  0  0  0  0  0  0  0  0  0
    3.3852    3.3352   -0.2709 O   0  0  0  0  0  0  0  0  0  0  0  0
    5.5260    4.1752   -0.3868 N   0  0  0  0  0  0  0  0  0  0  0  0
    5.0148    5.5131   -0.7385 C   0  0  0  0  0  0  0  0  0  0  0  0
    4.1250    6.2322    0.3432 C   0  0  2  0  0  0  0  0  0  0  0  0
    2.8881    5.5865    0.6493 O   0  0  0  0  0  0  0  0  0  0  0  0
    3.7624    7.6557   -0.1724 C   0  0  0  0  0  0  0  0  0  0  0  0
    2.8909    8.4848    0.6956 N   0  0  0  0  0  0  0  0  0  0  0  0
    2.5584    9.7748    0.0524 C   0  0  0  0  0  0  0  0  0  0  0  0
    3.7464   10.7529   -0.0000 C   0  0  0  0  0  0  0  0  0  0  0  0
    4.3300   10.9658    1.2935 O   0  0  0  0  0  0  0  0  0  0  0  0
    4.6832    9.7260    1.9236 C   0  0  0  0  0  0  0  0  0  0  0  0
    3.4732    8.7852    2.0168 C   0  0  0  0  0  0  0  0  0  0  0  0
    6.9273    3.8123   -0.6603 C   0  0  0  0  0  0  0  0  0  0  0  0
    7.1016    2.8707   -1.8743 C   0  0  0  0  0  0  0  0  0  0  0  0
    6.6196    1.3972   -1.7512 C   0  0  0  0  0  0  0  0  0  0  0  0
    4.4216    1.4570    3.6075 H   0  0  0  0  0  0  0  0  0  0  0  0
    3.1213    1.9936    2.5080 H   0  0  0  0  0  0  0  0  0  0  0  0
    4.5756    2.9822    2.7473 H   0  0  0  0  0  0  0  0  0  0  0  0
    4.3881   -0.8216    3.1034 H   0  0  0  0  0  0  0  0  0  0  0  0
    5.8602   -5.3523    0.7596 H   0  0  0  0  0  0  0  0  0  0  0  0
    4.5146   -6.8161    2.6839 H   0  0  0  0  0  0  0  0  0  0  0  0
    3.2537   -6.5596    4.8348 H   0  0  0  0  0  0  0  0  0  0  0  0
    3.6257   -2.2944    4.6406 H   0  0  0  0  0  0  0  0  0  0  0  0
    6.4271   -0.9885   -0.1519 H   0  0  0  0  0  0  0  0  0  0  0  0
    4.4532    5.4019   -1.6718 H   0  0  0  0  0  0  0  0  0  0  0  0
    5.8812    6.1570   -0.9302 H   0  0  0  0  0  0  0  0  0  0  0  0
    4.6936    6.2901    1.2773 H   0  0  0  0  0  0  0  0  0  0  0  0
    2.8871    4.6840    0.2723 H   0  0  0  0  0  0  0  0  0  0  0  0
    3.2150    7.5160   -1.1145 H   0  0  0  0  0  0  0  0  0  0  0  0
    4.6903    8.1801   -0.4206 H   0  0  0  0  0  0  0  0  0  0  0  0
    1.7506   10.2398    0.6339 H   0  0  0  0  0  0  0  0  0  0  0  0
    2.1503    9.6129   -0.9521 H   0  0  0  0  0  0  0  0  0  0  0  0
    3.4030   11.7253   -0.3674 H   0  0  0  0  0  0  0  0  0  0  0  0
    4.5232   10.4032   -0.6887 H   0  0  0  0  0  0  0  0  0  0  0  0
    5.0487    9.9592    2.9283 H   0  0  0  0  0  0  0  0  0  0  0  0
    5.5127    9.2646    1.3760 H   0  0  0  0  0  0  0  0  0  0  0  0
    2.6972    9.2805    2.6178 H   0  0  0  0  0  0  0  0  0  0  0  0
    3.7259    7.8699    2.5604 H   0  0  0  0  0  0  0  0  0  0  0  0
    7.3555    3.3529    0.2394 H   0  0  0  0  0  0  0  0  0  0  0  0
    7.5001    4.7311   -0.8288 H   0  0  0  0  0  0  0  0  0  0  0  0
    8.1702    2.8428   -2.1260 H   0  0  0  0  0  0  0  0  0  0  0  0
    6.6090    3.3254   -2.7439 H   0  0  0  0  0  0  0  0  0  0  0  0
    7.4702    0.7249   -1.9180 H   0  0  0  0  0  0  0  0  0  0  0  0
    5.9107    1.1972   -2.5660 H   0  0  0  0  0  0  0  0  0  0  0  0
  1  2  1  0  0  0  0
  1 35  1  0  0  0  0
  1 36  1  0  0  0  0
  1 37  1  0  0  0  0
  2  3  2  0  0  0  0
  2 18  1  0  0  0  0
  3  4  1  0  0  0  0
  3 16  1  0  0  0  0
  4  5  2  0  0  0  0
  4 38  1  0  0  0  0
  5  6  1  0  0  0  0
  5 15  1  0  0  0  0
  6  7  2  0  0  0  0
  6  8  1  0  0  0  0
  8  9  1  0  0  0  0
  8 39  1  0  0  0  0
  9 10  1  0  0  0  0
  9 15  2  0  0  0  0
 10 11  2  0  0  0  0
 10 40  1  0  0  0  0
 11 12  1  0  0  0  0
 11 41  1  0  0  0  0
 12 13  1  0  0  0  0
 12 14  2  0  0  0  0
 14 15  1  0  0  0  0
 14 42  1  0  0  0  0
 16 17  1  0  0  0  0
 16 43  1  0  0  0  0
 17 18  2  0  0  0  0
 17 34  1  0  0  0  0
 18 19  1  0  0  0  0
 19 20  2  0  0  0  0
 19 21  1  0  0  0  0
 21 22  1  0  0  0  0
 21 32  1  0  0  0  0
 22 44  1  0  0  0  0
 22 45  1  0  0  0  0
 23 25  1  0  0  0  0
 23 24  1  0  0  0  0
 23 22  1  0  0  0  0
 23 46  1  1  0  0  0
 24 47  1  0  0  0  0
 25 26  1  0  0  0  0
 25 48  1  0  0  0  0
 25 49  1  0  0  0  0
 26 27  1  0  0  0  0
 26 31  1  0  0  0  0
 27 28  1  0  0  0  0
 27 50  1  0  0  0  0
 27 51  1  0  0  0  0
 28 29  1  0  0  0  0
 28 52  1  0  0  0  0
 28 53  1  0  0  0  0
 29 30  1  0  0  0  0
 30 31  1  0  0  0  0
 30 54  1  0  0  0  0
 30 55  1  0  0  0  0
 31 56  1  0  0  0  0
 31 57  1  0  0  0  0
 32 33  1  0  0  0  0
 32 58  1  0  0  0  0
 32 59  1  0  0  0  0
 33 34  1  0  0  0  0
 33 60  1  0  0  0  0
 33 61  1  0  0  0  0
 34 62  1  0  0  0  0
 34 63  1  0  0  0  0
M  END
$$$$
