CHEMBL193912
 OpenBabel04072215363D

 31 33  0  0  0  0  0  0  0  0999 V2000
    2.3878    0.5030   -1.4566 N   0  0  0  0  0  0  0  0  0  0  0  0
    2.0274    1.1359   -0.5542 C   0  0  0  0  0  0  0  0  0  0  0  0
    1.6354    1.9357    0.5759 C   0  0  0  0  0  0  0  0  0  0  0  0
    2.5709    2.1159    1.6118 C   0  0  0  0  0  0  0  0  0  0  0  0
    2.2534    2.8839    2.7318 C   0  0  0  0  0  0  0  0  0  0  0  0
    0.9955    3.4631    2.8334 C   0  0  0  0  0  0  0  0  0  0  0  0
    0.0589    3.2779    1.8151 C   0  0  0  0  0  0  0  0  0  0  0  0
    0.3546    2.5181    0.6682 C   0  0  0  0  0  0  0  0  0  0  0  0
   -0.5974    2.3965   -0.3768 N   0  0  0  0  0  0  0  0  0  0  0  0
   -1.9309    2.4489   -0.1765 C   0  0  0  0  0  0  0  0  0  0  0  0
   -2.6351    2.1146    0.8838 N   0  0  0  0  0  0  0  0  0  0  0  0
   -3.9263    2.3890    0.5276 C   0  0  0  0  0  0  0  0  0  0  0  0
   -3.9739    2.8988   -0.7508 C   0  0  0  0  0  0  0  0  0  0  0  0
   -5.0401    3.3505   -1.6354 C   0  0  0  0  0  0  0  0  0  0  0  0
   -6.3751    3.3203   -1.1975 C   0  0  0  0  0  0  0  0  0  0  0  0
   -7.4191    3.7206   -2.0358 C   0  0  0  0  0  0  0  0  0  0  0  0
   -7.1435    4.1620   -3.3258 C   0  0  0  0  0  0  0  0  0  0  0  0
   -5.8252    4.2079   -3.7746 C   0  0  0  0  0  0  0  0  0  0  0  0
   -4.7804    3.8067   -2.9349 C   0  0  0  0  0  0  0  0  0  0  0  0
   -2.6802    2.9354   -1.2145 O   0  0  0  0  0  0  0  0  0  0  0  0
    3.5580    1.6613    1.5484 H   0  0  0  0  0  0  0  0  0  0  0  0
    2.9847    3.0299    3.5232 H   0  0  0  0  0  0  0  0  0  0  0  0
    0.7352    4.0643    3.7009 H   0  0  0  0  0  0  0  0  0  0  0  0
   -0.9134    3.7515    1.9287 H   0  0  0  0  0  0  0  0  0  0  0  0
   -0.2779    2.8055   -1.2480 H   0  0  0  0  0  0  0  0  0  0  0  0
   -4.7474    2.2025    1.2047 H   0  0  0  0  0  0  0  0  0  0  0  0
   -6.6261    2.9773   -0.1965 H   0  0  0  0  0  0  0  0  0  0  0  0
   -8.4459    3.6812   -1.6806 H   0  0  0  0  0  0  0  0  0  0  0  0
   -7.9549    4.4677   -3.9814 H   0  0  0  0  0  0  0  0  0  0  0  0
   -5.6088    4.5513   -4.7833 H   0  0  0  0  0  0  0  0  0  0  0  0
   -3.7613    3.8479   -3.3131 H   0  0  0  0  0  0  0  0  0  0  0  0
  1  2  3  0  0  0  0
  2  3  1  0  0  0  0
  3  4  1  0  0  0  0
  3  8  2  0  0  0  0
  4  5  2  0  0  0  0
  4 21  1  0  0  0  0
  5  6  1  0  0  0  0
  5 22  1  0  0  0  0
  6  7  2  0  0  0  0
  6 23  1  0  0  0  0
  7  8  1  0  0  0  0
  7 24  1  0  0  0  0
  8  9  1  0  0  0  0
  9 10  1  0  0  0  0
  9 25  1  0  0  0  0
 10 11  2  0  0  0  0
 10 20  1  0  0  0  0
 11 12  1  0  0  0  0
 12 13  2  0  0  0  0
 12 26  1  0  0  0  0
 13 14  1  0  0  0  0
 13 20  1  0  0  0  0
 14 15  1  0  0  0  0
 14 19  2  0  0  0  0
 15 16  2  0  0  0  0
 15 27  1  0  0  0  0
 16 17  1  0  0  0  0
 16 28  1  0  0  0  0
 17 18  2  0  0  0  0
 17 29  1  0  0  0  0
 18 19  1  0  0  0  0
 18 30  1  0  0  0  0
 19 31  1  0  0  0  0
M  END
$$$$
