CHEMBL3706825
 OpenBabel04072215373D

 47 49  0  0  0  0  0  0  0  0999 V2000
    1.1255   -0.7358   -0.3770 C   0  0  0  0  0  0  0  0  0  0  0  0
    2.3800   -0.1981   -0.0064 O   0  0  0  0  0  0  0  0  0  0  0  0
    2.8634   -0.6932    1.2467 C   0  0  0  0  0  0  0  0  0  0  0  0
    4.1788    0.0352    1.4822 C   0  0  0  0  0  0  0  0  0  0  0  0
    4.8391   -0.3450    2.6722 O   0  0  0  0  0  0  0  0  0  0  0  0
    6.1977   -0.1557    2.7364 C   0  0  0  0  0  0  0  0  0  0  0  0
    6.7733   -1.0197    3.6958 C   0  0  0  0  0  0  0  0  0  0  0  0
    8.1427   -1.1147    3.9325 C   0  0  0  0  0  0  0  0  0  0  0  0
    8.5983   -1.9988    4.8274 N   0  0  0  0  0  0  0  0  0  0  0  0
    9.9232   -2.0595    4.9998 C   0  0  0  0  0  0  0  0  0  0  0  0
   10.8313   -1.3072    4.3678 N   0  0  0  0  0  0  0  0  0  0  0  0
   10.3695   -0.4144    3.4733 C   0  0  0  0  0  0  0  0  0  0  0  0
   11.2970    0.3769    2.7435 N   0  0  0  0  0  0  0  0  0  0  0  0
   12.6733    0.2470    2.7473 C   0  0  0  0  0  0  0  0  0  0  0  0
   13.3921   -0.8576    2.9802 C   0  0  0  0  0  0  0  0  0  0  0  0
   14.8638   -0.9113    2.9759 C   0  0  0  0  0  0  0  0  0  0  0  0
   15.4143   -1.9868    3.1912 O   0  0  0  0  0  0  0  0  0  0  0  0
   15.6025    0.3646    2.7032 C   0  0  0  0  0  0  0  0  0  0  0  0
   16.9906    0.4706    2.7108 O   0  0  0  0  0  0  0  0  0  0  0  0
   17.7387   -0.6578    3.1394 C   0  0  0  0  0  0  0  0  0  0  0  0
   14.9020    1.4646    2.4267 C   0  0  0  0  0  0  0  0  0  0  0  0
   13.4293    1.4990    2.4015 C   0  0  0  0  0  0  0  0  0  0  0  0
   12.8293    2.5331    2.1143 O   0  0  0  0  0  0  0  0  0  0  0  0
    8.9934   -0.2870    3.2001 C   0  0  0  0  0  0  0  0  0  0  0  0
    8.4328    0.5887    2.2416 C   0  0  0  0  0  0  0  0  0  0  0  0
    7.0493    0.6772    2.0022 C   0  0  0  0  0  0  0  0  0  0  0  0
    6.8054    1.5046    0.9441 O   0  0  0  0  0  0  0  0  0  0  0  0
    5.7642    2.4651    0.9875 C   0  0  0  0  0  0  0  0  0  0  0  0
    0.8541   -0.3073   -1.3464 H   0  0  0  0  0  0  0  0  0  0  0  0
    0.3603   -0.4587    0.3525 H   0  0  0  0  0  0  0  0  0  0  0  0
    1.1894   -1.8217   -0.4797 H   0  0  0  0  0  0  0  0  0  0  0  0
    3.0097   -1.7774    1.2094 H   0  0  0  0  0  0  0  0  0  0  0  0
    2.1504   -0.4629    2.0477 H   0  0  0  0  0  0  0  0  0  0  0  0
    3.8910    1.0815    1.5809 H   0  0  0  0  0  0  0  0  0  0  0  0
    4.8140   -0.1155    0.6031 H   0  0  0  0  0  0  0  0  0  0  0  0
    6.1190   -1.6890    4.2560 H   0  0  0  0  0  0  0  0  0  0  0  0
   10.2995   -2.7881    5.7069 H   0  0  0  0  0  0  0  0  0  0  0  0
   11.0127    1.3539    2.6758 H   0  0  0  0  0  0  0  0  0  0  0  0
   12.9207   -1.8061    3.1945 H   0  0  0  0  0  0  0  0  0  0  0  0
   18.7965   -0.3754    3.1568 H   0  0  0  0  0  0  0  0  0  0  0  0
   17.6387   -1.4821    2.4259 H   0  0  0  0  0  0  0  0  0  0  0  0
   17.4605   -0.9515    4.1560 H   0  0  0  0  0  0  0  0  0  0  0  0
   15.3951    2.4052    2.2083 H   0  0  0  0  0  0  0  0  0  0  0  0
    9.0888    1.2043    1.6281 H   0  0  0  0  0  0  0  0  0  0  0  0
    6.1573    3.4378    0.6774 H   0  0  0  0  0  0  0  0  0  0  0  0
    5.3015    2.5821    1.9710 H   0  0  0  0  0  0  0  0  0  0  0  0
    5.0307    2.1890    0.2222 H   0  0  0  0  0  0  0  0  0  0  0  0
  1  2  1  0  0  0  0
  1 29  1  0  0  0  0
  1 30  1  0  0  0  0
  1 31  1  0  0  0  0
  2  3  1  0  0  0  0
  3  4  1  0  0  0  0
  3 32  1  0  0  0  0
  3 33  1  0  0  0  0
  4  5  1  0  0  0  0
  4 34  1  0  0  0  0
  4 35  1  0  0  0  0
  5  6  1  0  0  0  0
  6  7  1  0  0  0  0
  6 26  2  0  0  0  0
  7  8  2  0  0  0  0
  7 36  1  0  0  0  0
  8  9  1  0  0  0  0
  8 24  1  0  0  0  0
  9 10  2  0  0  0  0
 10 11  1  0  0  0  0
 10 37  1  0  0  0  0
 11 12  2  0  0  0  0
 12 13  1  0  0  0  0
 12 24  1  0  0  0  0
 13 14  1  0  0  0  0
 13 38  1  0  0  0  0
 14 15  2  0  0  0  0
 14 22  1  0  0  0  0
 15 16  1  0  0  0  0
 15 39  1  0  0  0  0
 16 17  2  0  0  0  0
 16 18  1  0  0  0  0
 18 19  1  0  0  0  0
 18 21  2  0  0  0  0
 19 20  1  0  0  0  0
 20 40  1  0  0  0  0
 20 41  1  0  0  0  0
 20 42  1  0  0  0  0
 21 22  1  0  0  0  0
 21 43  1  0  0  0  0
 22 23  2  0  0  0  0
 24 25  2  0  0  0  0
 25 26  1  0  0  0  0
 25 44  1  0  0  0  0
 26 27  1  0  0  0  0
 27 28  1  0  0  0  0
 28 45  1  0  0  0  0
 28 46  1  0  0  0  0
 28 47  1  0  0  0  0
M  END
$$$$
