CHEMBL390696
 OpenBabel04072215373D

 70 74  0  0  0  0  0  0  0  0999 V2000
    2.1118    1.6875    0.4358 C   0  0  0  0  0  0  0  0  0  0  0  0
    1.0165    0.8852   -0.0946 N   0  0  0  0  0  0  0  0  0  0  0  0
    0.8750   -0.3786    0.6454 C   0  0  0  0  0  0  0  0  0  0  0  0
   -0.2858   -1.2198    0.0726 C   0  0  0  0  0  0  0  0  0  0  0  0
   -1.5997   -0.5414    0.0990 N   0  0  0  0  0  0  0  0  0  0  0  0
   -2.1453   -0.3714    1.4586 C   0  0  0  0  0  0  0  0  0  0  0  0
   -2.4101   -1.7013    2.1907 C   0  0  0  0  0  0  0  0  0  0  0  0
   -3.0107   -1.4685    3.4948 N   0  0  0  0  0  0  0  0  0  0  0  0
   -3.7513   -2.4215    4.0900 C   0  0  0  0  0  0  0  0  0  0  0  0
   -4.7322   -2.2094    4.9288 N   0  0  0  0  0  0  0  0  0  0  0  0
   -5.2172   -3.4524    5.2452 C   0  0  0  0  0  0  0  0  0  0  0  0
   -6.2877   -3.8030    6.0739 C   0  0  0  0  0  0  0  0  0  0  0  0
   -6.5847   -5.1613    6.2391 C   0  0  0  0  0  0  0  0  0  0  0  0
   -5.7944   -6.1486    5.6355 C   0  0  0  0  0  0  0  0  0  0  0  0
   -5.9893   -7.4996    5.8416 O   0  0  0  0  0  0  0  0  0  0  0  0
   -6.3571   -7.9253    7.0991 C   0  0  0  0  0  0  0  0  0  0  0  0
   -7.1818   -9.0457    7.1504 C   0  0  0  0  0  0  0  0  0  0  0  0
   -7.6657   -9.4975    8.3810 C   0  0  0  0  0  0  0  0  0  0  0  0
   -7.3354   -8.8429    9.5733 C   0  0  0  0  0  0  0  0  0  0  0  0
   -7.8682   -9.1956   10.8361 N   0  0  0  0  0  0  0  0  0  0  0  0
   -8.6896  -10.2708   11.0948 C   0  0  0  0  0  0  0  0  0  0  0  0
   -9.0035  -11.1343   10.2760 O   0  0  0  0  0  0  0  0  0  0  0  0
   -9.1723  -10.2727   12.3972 N   0  0  0  0  0  0  0  0  0  0  0  0
  -10.0327  -11.3266   12.8004 C   0  0  0  0  0  0  0  0  0  0  0  0
   -9.6976  -12.6649   12.5579 C   0  0  0  0  0  0  0  0  0  0  0  0
  -10.6004  -13.6974   12.8549 C   0  0  0  0  0  0  0  0  0  0  0  0
  -10.2396  -15.1387   12.5848 C   0  0  0  0  0  0  0  0  0  0  0  0
   -8.9862  -15.3083   12.0807 F   0  0  0  0  0  0  0  0  0  0  0  0
  -10.2883  -15.8983   13.7155 F   0  0  0  0  0  0  0  0  0  0  0  0
  -11.0853  -15.7345   11.7003 F   0  0  0  0  0  0  0  0  0  0  0  0
  -11.8541  -13.3656   13.3958 C   0  0  0  0  0  0  0  0  0  0  0  0
  -12.1815  -12.0329   13.6633 C   0  0  0  0  0  0  0  0  0  0  0  0
  -11.2611  -11.0260   13.3862 C   0  0  0  0  0  0  0  0  0  0  0  0
  -11.5962   -9.7472   13.6155 F   0  0  0  0  0  0  0  0  0  0  0  0
   -6.4508   -7.7617    9.5164 C   0  0  0  0  0  0  0  0  0  0  0  0
   -5.9409   -7.3273    8.2873 C   0  0  0  0  0  0  0  0  0  0  0  0
   -4.7566   -5.8132    4.7575 C   0  0  0  0  0  0  0  0  0  0  0  0
   -4.4928   -4.4507    4.6031 C   0  0  0  0  0  0  0  0  0  0  0  0
   -3.5561   -3.7619    3.8791 N   0  0  0  0  0  0  0  0  0  0  0  0
   -1.4502    0.7707   -0.5746 C   0  0  0  0  0  0  0  0  0  0  0  0
   -0.2567    1.6299   -0.0808 C   0  0  0  0  0  0  0  0  0  0  0  0
    3.0525    1.1274    0.3897 H   0  0  0  0  0  0  0  0  0  0  0  0
    1.9419    1.9904    1.4748 H   0  0  0  0  0  0  0  0  0  0  0  0
    2.2529    2.5887   -0.1707 H   0  0  0  0  0  0  0  0  0  0  0  0
    0.7142   -0.1933    1.7154 H   0  0  0  0  0  0  0  0  0  0  0  0
    1.7977   -0.9646    0.5572 H   0  0  0  0  0  0  0  0  0  0  0  0
   -0.3286   -2.1894    0.5786 H   0  0  0  0  0  0  0  0  0  0  0  0
   -0.0561   -1.4677   -0.9733 H   0  0  0  0  0  0  0  0  0  0  0  0
   -3.1100    0.1485    1.3772 H   0  0  0  0  0  0  0  0  0  0  0  0
   -1.5094    0.2662    2.0841 H   0  0  0  0  0  0  0  0  0  0  0  0
   -1.4734   -2.2442    2.3525 H   0  0  0  0  0  0  0  0  0  0  0  0
   -3.0630   -2.3236    1.5659 H   0  0  0  0  0  0  0  0  0  0  0  0
   -3.3875   -0.5340    3.6399 H   0  0  0  0  0  0  0  0  0  0  0  0
   -6.8603   -3.0334    6.5787 H   0  0  0  0  0  0  0  0  0  0  0  0
   -7.4243   -5.4305    6.8739 H   0  0  0  0  0  0  0  0  0  0  0  0
   -7.4725   -9.5607    6.2384 H   0  0  0  0  0  0  0  0  0  0  0  0
   -8.3202  -10.3625    8.3583 H   0  0  0  0  0  0  0  0  0  0  0  0
   -7.5569   -8.6622   11.6346 H   0  0  0  0  0  0  0  0  0  0  0  0
   -9.4273   -9.3561   12.7439 H   0  0  0  0  0  0  0  0  0  0  0  0
   -8.7328  -12.9066   12.1118 H   0  0  0  0  0  0  0  0  0  0  0  0
  -12.5821  -14.1494   13.6032 H   0  0  0  0  0  0  0  0  0  0  0  0
  -13.1570  -11.7737   14.0631 H   0  0  0  0  0  0  0  0  0  0  0  0
   -6.1520   -7.2306   10.4153 H   0  0  0  0  0  0  0  0  0  0  0  0
   -5.2454   -6.4919    8.2718 H   0  0  0  0  0  0  0  0  0  0  0  0
   -4.1785   -6.5760    4.2483 H   0  0  0  0  0  0  0  0  0  0  0  0
   -2.8466   -4.1619    3.2878 H   0  0  0  0  0  0  0  0  0  0  0  0
   -2.3791    1.3488   -0.4912 H   0  0  0  0  0  0  0  0  0  0  0  0
   -1.3201    0.5808   -1.6484 H   0  0  0  0  0  0  0  0  0  0  0  0
   -0.4725    2.0044    0.9285 H   0  0  0  0  0  0  0  0  0  0  0  0
   -0.1730    2.5039   -0.7378 H   0  0  0  0  0  0  0  0  0  0  0  0
  1  2  1  0  0  0  0
  1 42  1  0  0  0  0
  1 43  1  0  0  0  0
  1 44  1  0  0  0  0
  2  3  1  0  0  0  0
  2 41  1  0  0  0  0
  3  4  1  0  0  0  0
  3 45  1  0  0  0  0
  3 46  1  0  0  0  0
  4  5  1  0  0  0  0
  4 47  1  0  0  0  0
  4 48  1  0  0  0  0
  5  6  1  0  0  0  0
  5 40  1  0  0  0  0
  6  7  1  0  0  0  0
  6 49  1  0  0  0  0
  6 50  1  0  0  0  0
  7  8  1  0  0  0  0
  7 51  1  0  0  0  0
  7 52  1  0  0  0  0
  8  9  1  0  0  0  0
  8 53  1  0  0  0  0
  9 10  2  0  0  0  0
  9 39  1  0  0  0  0
 10 11  1  0  0  0  0
 11 12  1  0  0  0  0
 11 38  2  0  0  0  0
 12 13  2  0  0  0  0
 12 54  1  0  0  0  0
 13 14  1  0  0  0  0
 13 55  1  0  0  0  0
 14 15  1  0  0  0  0
 14 37  2  0  0  0  0
 15 16  1  0  0  0  0
 16 17  1  0  0  0  0
 16 36  2  0  0  0  0
 17 18  2  0  0  0  0
 17 56  1  0  0  0  0
 18 19  1  0  0  0  0
 18 57  1  0  0  0  0
 19 20  1  0  0  0  0
 19 35  2  0  0  0  0
 20 21  1  0  0  0  0
 20 58  1  0  0  0  0
 21 22  2  0  0  0  0
 21 23  1  0  0  0  0
 23 24  1  0  0  0  0
 23 59  1  0  0  0  0
 24 25  1  0  0  0  0
 24 33  2  0  0  0  0
 25 26  2  0  0  0  0
 25 60  1  0  0  0  0
 26 27  1  0  0  0  0
 26 31  1  0  0  0  0
 27 28  1  0  0  0  0
 27 29  1  0  0  0  0
 27 30  1  0  0  0  0
 31 32  2  0  0  0  0
 31 61  1  0  0  0  0
 32 33  1  0  0  0  0
 32 62  1  0  0  0  0
 33 34  1  0  0  0  0
 35 36  1  0  0  0  0
 35 63  1  0  0  0  0
 36 64  1  0  0  0  0
 37 38  1  0  0  0  0
 37 65  1  0  0  0  0
 38 39  1  0  0  0  0
 39 66  1  0  0  0  0
 40 41  1  0  0  0  0
 40 67  1  0  0  0  0
 40 68  1  0  0  0  0
 41 69  1  0  0  0  0
 41 70  1  0  0  0  0
M  END
$$$$
