CHEMBL378895
 OpenBabel04072215373D

 72 77  0  0  0  0  0  0  0  0999 V2000
   -3.3745    4.3673    2.6007 C   0  0  0  0  0  0  0  0  0  0  0  0
   -2.3960    3.3460    2.9629 N   0  0  0  0  0  0  0  0  0  0  0  0
   -3.0609    2.1516    3.5095 C   0  0  0  0  0  0  0  0  0  0  0  0
   -2.0463    1.0321    3.8347 C   0  0  0  0  0  0  0  0  0  0  0  0
   -1.2340    0.5923    2.6799 N   0  0  0  0  0  0  0  0  0  0  0  0
   -2.0076   -0.0964    1.6332 C   0  0  0  0  0  0  0  0  0  0  0  0
   -2.7133   -1.3667    2.0695 C   0  0  0  0  0  0  0  0  0  0  0  0
   -2.0597   -2.6183    1.9549 C   0  0  0  0  0  0  0  0  0  0  0  0
   -2.7244   -3.8121    2.2468 C   0  0  0  0  0  0  0  0  0  0  0  0
   -4.0246   -3.7156    2.6890 C   0  0  0  0  0  0  0  0  0  0  0  0
   -4.6862   -2.4804    2.8836 C   0  0  0  0  0  0  0  0  0  0  0  0
   -4.0388   -1.3052    2.5481 C   0  0  0  0  0  0  0  0  0  0  0  0
   -6.0980   -2.6218    3.4700 C   0  0  0  0  0  0  0  0  0  0  0  0
   -6.1400   -4.1099    3.5182 C   0  0  0  0  0  0  0  0  0  0  0  0
   -4.9625   -4.7161    3.0546 C   0  0  0  0  0  0  0  0  0  0  0  0
   -4.9956   -6.0386    3.0505 N   0  0  0  0  0  0  0  0  0  0  0  0
   -6.2341   -6.2810    3.5456 N   0  0  0  0  0  0  0  0  0  0  0  0
   -6.9515   -5.1487    3.8993 C   0  0  0  0  0  0  0  0  0  0  0  0
   -8.2365   -5.2006    4.5256 C   0  0  0  0  0  0  0  0  0  0  0  0
   -8.9180   -4.1765    5.1540 C   0  0  0  0  0  0  0  0  0  0  0  0
  -10.1856   -4.5944    5.6604 C   0  0  0  0  0  0  0  0  0  0  0  0
  -10.4479   -5.9221    5.3841 C   0  0  0  0  0  0  0  0  0  0  0  0
  -11.7112   -6.6924    5.6109 C   0  0  0  0  0  0  0  0  0  0  0  0
  -11.6899   -7.6120    6.7539 N   0  0  0  0  0  0  0  0  0  0  0  0
  -11.0447   -7.1947    7.9945 C   0  0  0  0  0  0  0  0  0  0  0  0
  -12.7026   -8.5830    6.7006 C   0  0  0  0  0  0  0  0  0  0  0  0
  -13.3389   -8.7786    5.6694 O   0  0  0  0  0  0  0  0  0  0  0  0
  -12.9510   -9.2421    7.8869 N   0  0  0  0  0  0  0  0  0  0  0  0
  -13.9106  -10.2551    8.1006 C   0  0  0  0  0  0  0  0  0  0  0  0
  -14.5586  -10.9477    7.0757 C   0  0  0  0  0  0  0  0  0  0  0  0
  -15.5157  -11.9087    7.3886 C   0  0  0  0  0  0  0  0  0  0  0  0
  -16.1281  -12.5696    6.3968 F   0  0  0  0  0  0  0  0  0  0  0  0
  -15.8526  -12.1949    8.7025 C   0  0  0  0  0  0  0  0  0  0  0  0
  -15.2089  -11.5213    9.7455 C   0  0  0  0  0  0  0  0  0  0  0  0
  -15.5570  -11.7868   11.1871 C   0  0  0  0  0  0  0  0  0  0  0  0
  -16.5904  -12.6554   11.3501 F   0  0  0  0  0  0  0  0  0  0  0  0
  -14.5103  -12.3069   11.8838 F   0  0  0  0  0  0  0  0  0  0  0  0
  -15.9140  -10.6492   11.8455 F   0  0  0  0  0  0  0  0  0  0  0  0
  -14.2237  -10.5666    9.4302 C   0  0  0  0  0  0  0  0  0  0  0  0
   -9.1303   -6.6634    4.5883 S   0  0  0  0  0  0  0  0  0  0  0  0
   -0.5848    1.8028    2.1145 C   0  0  0  0  0  0  0  0  0  0  0  0
   -1.5487    2.9829    1.8106 C   0  0  0  0  0  0  0  0  0  0  0  0
   -3.9894    4.6346    3.4675 H   0  0  0  0  0  0  0  0  0  0  0  0
   -4.0429    4.0370    1.7972 H   0  0  0  0  0  0  0  0  0  0  0  0
   -2.8699    5.2838    2.2769 H   0  0  0  0  0  0  0  0  0  0  0  0
   -3.8177    1.7846    2.8081 H   0  0  0  0  0  0  0  0  0  0  0  0
   -3.5878    2.4164    4.4356 H   0  0  0  0  0  0  0  0  0  0  0  0
   -2.5549    0.1850    4.3062 H   0  0  0  0  0  0  0  0  0  0  0  0
   -1.3598    1.4021    4.6096 H   0  0  0  0  0  0  0  0  0  0  0  0
   -1.3177   -0.3774    0.8248 H   0  0  0  0  0  0  0  0  0  0  0  0
   -2.7482    0.5577    1.1594 H   0  0  0  0  0  0  0  0  0  0  0  0
   -1.0267   -2.6600    1.6138 H   0  0  0  0  0  0  0  0  0  0  0  0
   -2.2411   -4.7764    2.1356 H   0  0  0  0  0  0  0  0  0  0  0  0
   -4.5517   -0.3561    2.6511 H   0  0  0  0  0  0  0  0  0  0  0  0
   -6.8474   -2.2025    2.7938 H   0  0  0  0  0  0  0  0  0  0  0  0
   -6.1488   -2.1761    4.4668 H   0  0  0  0  0  0  0  0  0  0  0  0
   -6.5364   -7.2432    3.6428 H   0  0  0  0  0  0  0  0  0  0  0  0
   -8.5359   -3.1673    5.2463 H   0  0  0  0  0  0  0  0  0  0  0  0
  -10.8849   -3.9399    6.1679 H   0  0  0  0  0  0  0  0  0  0  0  0
  -11.9317   -7.2544    4.6942 H   0  0  0  0  0  0  0  0  0  0  0  0
  -12.5499   -6.0042    5.7630 H   0  0  0  0  0  0  0  0  0  0  0  0
  -10.1468   -6.6025    7.8125 H   0  0  0  0  0  0  0  0  0  0  0  0
  -10.7316   -8.0758    8.5647 H   0  0  0  0  0  0  0  0  0  0  0  0
  -11.7594   -6.6177    8.5885 H   0  0  0  0  0  0  0  0  0  0  0  0
  -12.5497   -8.8474    8.7188 H   0  0  0  0  0  0  0  0  0  0  0  0
  -14.3413  -10.7742    6.0282 H   0  0  0  0  0  0  0  0  0  0  0  0
  -16.6180  -12.9426    8.9001 H   0  0  0  0  0  0  0  0  0  0  0  0
  -13.7220  -10.0474   10.2464 H   0  0  0  0  0  0  0  0  0  0  0  0
   -0.0281    1.5425    1.2054 H   0  0  0  0  0  0  0  0  0  0  0  0
    0.1721    2.1476    2.8317 H   0  0  0  0  0  0  0  0  0  0  0  0
   -2.1706    2.7256    0.9437 H   0  0  0  0  0  0  0  0  0  0  0  0
   -0.9445    3.8516    1.5215 H   0  0  0  0  0  0  0  0  0  0  0  0
  1  2  1  0  0  0  0
  1 43  1  0  0  0  0
  1 44  1  0  0  0  0
  1 45  1  0  0  0  0
  2  3  1  0  0  0  0
  2 42  1  0  0  0  0
  3  4  1  0  0  0  0
  3 46  1  0  0  0  0
  3 47  1  0  0  0  0
  4  5  1  0  0  0  0
  4 48  1  0  0  0  0
  4 49  1  0  0  0  0
  5  6  1  0  0  0  0
  5 41  1  0  0  0  0
  6  7  1  0  0  0  0
  6 50  1  0  0  0  0
  6 51  1  0  0  0  0
  7  8  1  0  0  0  0
  7 12  2  0  0  0  0
  8  9  2  0  0  0  0
  8 52  1  0  0  0  0
  9 10  1  0  0  0  0
  9 53  1  0  0  0  0
 10 11  2  0  0  0  0
 10 15  1  0  0  0  0
 11 12  1  0  0  0  0
 11 13  1  0  0  0  0
 12 54  1  0  0  0  0
 13 14  1  0  0  0  0
 13 55  1  0  0  0  0
 13 56  1  0  0  0  0
 14 15  1  0  0  0  0
 14 18  2  0  0  0  0
 15 16  2  0  0  0  0
 16 17  1  0  0  0  0
 17 18  1  0  0  0  0
 17 57  1  0  0  0  0
 18 19  1  0  0  0  0
 19 20  2  0  0  0  0
 19 40  1  0  0  0  0
 20 21  1  0  0  0  0
 20 58  1  0  0  0  0
 21 22  2  0  0  0  0
 21 59  1  0  0  0  0
 22 23  1  0  0  0  0
 22 40  1  0  0  0  0
 23 24  1  0  0  0  0
 23 60  1  0  0  0  0
 23 61  1  0  0  0  0
 24 25  1  0  0  0  0
 24 26  1  0  0  0  0
 25 62  1  0  0  0  0
 25 63  1  0  0  0  0
 25 64  1  0  0  0  0
 26 27  2  0  0  0  0
 26 28  1  0  0  0  0
 28 29  1  0  0  0  0
 28 65  1  0  0  0  0
 29 30  1  0  0  0  0
 29 39  2  0  0  0  0
 30 31  2  0  0  0  0
 30 66  1  0  0  0  0
 31 32  1  0  0  0  0
 31 33  1  0  0  0  0
 33 34  2  0  0  0  0
 33 67  1  0  0  0  0
 34 35  1  0  0  0  0
 34 39  1  0  0  0  0
 35 36  1  0  0  0  0
 35 37  1  0  0  0  0
 35 38  1  0  0  0  0
 39 68  1  0  0  0  0
 41 42  1  0  0  0  0
 41 69  1  0  0  0  0
 41 70  1  0  0  0  0
 42 71  1  0  0  0  0
 42 72  1  0  0  0  0
M  END
$$$$
