CHEMBL3746122
 OpenBabel04072215373D

 48 53  0  0  0  0  0  0  0  0999 V2000
    2.8586    0.9928   -0.4849 O   0  0  0  0  0  0  0  0  0  0  0  0
    2.2623    0.1517    0.1736 C   0  0  0  0  0  0  0  0  0  0  0  0
    0.9669    0.1478    0.6343 N   0  0  0  0  0  0  0  0  0  0  0  0
    0.1108    1.1756    0.3177 C   0  0  0  0  0  0  0  0  0  0  0  0
   -0.1511    1.7092   -0.9619 C   0  0  0  0  0  0  0  0  0  0  0  0
   -1.0383    2.7295   -0.7270 C   0  0  0  0  0  0  0  0  0  0  0  0
   -1.6249    3.6500   -1.7770 C   0  0  0  0  0  0  0  0  0  0  0  0
   -1.7742    5.1130   -1.4155 C   0  0  0  0  0  0  0  0  0  0  0  0
   -2.9889    4.2576   -1.5259 C   0  0  0  0  0  0  0  0  0  0  0  0
   -1.3067    2.7875    0.6067 O   0  0  0  0  0  0  0  0  0  0  0  0
   -0.6386    1.7601    1.2549 N   0  0  0  0  0  0  0  0  0  0  0  0
    2.9556   -0.9383    0.7062 N   0  0  0  0  0  0  0  0  0  0  0  0
    4.1427   -0.8790    1.4163 C   0  0  0  0  0  0  0  0  0  0  0  0
    4.4394   -2.1398    1.8855 C   0  0  0  0  0  0  0  0  0  0  0  0
    3.4761   -3.0391    1.3513 C   0  0  0  0  0  0  0  0  0  0  0  0
    3.2870   -4.4337    1.4179 C   0  0  0  0  0  0  0  0  0  0  0  0
    2.2430   -5.0168    0.6845 C   0  0  0  0  0  0  0  0  0  0  0  0
    2.0375   -6.3653    0.8418 O   0  0  0  0  0  0  0  0  0  0  0  0
    1.8008   -7.1493   -0.2831 C   0  0  0  0  0  0  0  0  0  0  0  0
    2.0090   -6.6804   -1.5317 N   0  0  0  0  0  0  0  0  0  0  0  0
    1.9933   -7.5939   -2.5247 C   0  0  0  0  0  0  0  0  0  0  0  0
    1.8680   -8.9238   -2.3841 N   0  0  0  0  0  0  0  0  0  0  0  0
    1.6731   -9.3125   -1.1191 C   0  0  0  0  0  0  0  0  0  0  0  0
    1.5617   -8.4650   -0.0439 C   0  0  0  0  0  0  0  0  0  0  0  0
    1.4120   -9.2473    1.2005 C   0  0  0  0  0  0  0  0  0  0  0  0
    2.1222  -10.5125    0.8888 N   0  0  0  0  0  0  0  0  0  0  0  0
    1.8556  -10.7094   -0.5750 C   0  0  0  0  0  0  0  0  0  0  0  0
    1.3809   -4.2349   -0.0820 C   0  0  0  0  0  0  0  0  0  0  0  0
    1.5446   -2.8589   -0.1494 C   0  0  0  0  0  0  0  0  0  0  0  0
    2.5795   -2.2762    0.5972 C   0  0  0  0  0  0  0  0  0  0  0  0
    0.8080   -0.2559    1.5506 H   0  0  0  0  0  0  0  0  0  0  0  0
    0.2432    1.3871   -1.9127 H   0  0  0  0  0  0  0  0  0  0  0  0
   -1.3596    3.4232   -2.8042 H   0  0  0  0  0  0  0  0  0  0  0  0
   -1.5850    5.8421   -2.1952 H   0  0  0  0  0  0  0  0  0  0  0  0
   -1.4678    5.4399   -0.4277 H   0  0  0  0  0  0  0  0  0  0  0  0
   -3.6410    4.4131   -2.3778 H   0  0  0  0  0  0  0  0  0  0  0  0
   -3.5158    4.0042   -0.6123 H   0  0  0  0  0  0  0  0  0  0  0  0
    4.6298    0.0755    1.5731 H   0  0  0  0  0  0  0  0  0  0  0  0
    5.2837   -2.3924    2.5148 H   0  0  0  0  0  0  0  0  0  0  0  0
    3.9512   -5.0518    2.0189 H   0  0  0  0  0  0  0  0  0  0  0  0
    2.1286   -7.2190   -3.5340 H   0  0  0  0  0  0  0  0  0  0  0  0
    0.3524   -9.4708    1.3831 H   0  0  0  0  0  0  0  0  0  0  0  0
    1.8224   -8.7535    2.0845 H   0  0  0  0  0  0  0  0  0  0  0  0
    3.1201  -10.2897    0.9641 H   0  0  0  0  0  0  0  0  0  0  0  0
    0.9497  -11.3071   -0.7062 H   0  0  0  0  0  0  0  0  0  0  0  0
    2.7096  -11.2029   -1.0480 H   0  0  0  0  0  0  0  0  0  0  0  0
    0.5800   -4.6995   -0.6485 H   0  0  0  0  0  0  0  0  0  0  0  0
    0.8895   -2.2684   -0.7814 H   0  0  0  0  0  0  0  0  0  0  0  0
  1  2  2  0  0  0  0
  2  3  1  0  0  0  0
  2 12  1  0  0  0  0
  3  4  1  0  0  0  0
  3 31  1  0  0  0  0
  4  5  1  0  0  0  0
  4 11  2  0  0  0  0
  5  6  2  0  0  0  0
  5 32  1  0  0  0  0
  6  7  1  0  0  0  0
  6 10  1  0  0  0  0
  7  8  1  0  0  0  0
  7  9  1  0  0  0  0
  7 33  1  0  0  0  0
  8  9  1  0  0  0  0
  8 34  1  0  0  0  0
  8 35  1  0  0  0  0
  9 36  1  0  0  0  0
  9 37  1  0  0  0  0
 10 11  1  0  0  0  0
 12 13  1  0  0  0  0
 12 30  1  0  0  0  0
 13 14  2  0  0  0  0
 13 38  1  0  0  0  0
 14 15  1  0  0  0  0
 14 39  1  0  0  0  0
 15 16  1  0  0  0  0
 15 30  2  0  0  0  0
 16 17  2  0  0  0  0
 16 40  1  0  0  0  0
 17 18  1  0  0  0  0
 17 28  1  0  0  0  0
 18 19  1  0  0  0  0
 19 20  1  0  0  0  0
 19 24  2  0  0  0  0
 20 21  2  0  0  0  0
 21 22  1  0  0  0  0
 21 41  1  0  0  0  0
 22 23  2  0  0  0  0
 23 24  1  0  0  0  0
 23 27  1  0  0  0  0
 24 25  1  0  0  0  0
 25 26  1  0  0  0  0
 25 42  1  0  0  0  0
 25 43  1  0  0  0  0
 26 27  1  0  0  0  0
 26 44  1  0  0  0  0
 27 45  1  0  0  0  0
 27 46  1  0  0  0  0
 28 29  2  0  0  0  0
 28 47  1  0  0  0  0
 29 30  1  0  0  0  0
 29 48  1  0  0  0  0
M  END
$$$$
