CHEMBL3891395
 OpenBabel04072215373D

 46 48  0  0  0  0  0  0  0  0999 V2000
    1.1686   -0.3434    0.3275 O   0  0  0  0  0  0  0  0  0  0  0  0
    2.2796    0.0397   -0.0167 C   0  0  0  0  0  0  0  0  0  0  0  0
    2.8753    1.2086    0.4287 N   0  0  0  0  0  0  0  0  0  0  0  0
    2.2810    2.1487    1.3068 C   0  0  0  0  0  0  0  0  0  0  0  0
    1.1243    1.8866    2.0441 C   0  0  0  0  0  0  0  0  0  0  0  0
    0.5332    2.8749    2.8342 C   0  0  0  0  0  0  0  0  0  0  0  0
    1.1406    4.1209    2.9718 C   0  0  0  0  0  0  0  0  0  0  0  0
    0.6436    5.1366    3.7599 O   0  0  0  0  0  0  0  0  0  0  0  0
   -0.0071    4.8313    4.9371 C   0  0  0  0  0  0  0  0  0  0  0  0
    0.3024    3.7311    5.7367 C   0  0  0  0  0  0  0  0  0  0  0  0
   -0.4546    3.5048    6.8718 C   0  0  0  0  0  0  0  0  0  0  0  0
   -1.4401    4.3240    7.2905 N   0  0  0  0  0  0  0  0  0  0  0  0
   -1.6721    5.4311    6.5293 C   0  0  0  0  0  0  0  0  0  0  0  0
   -2.7286    6.3597    7.0312 C   0  0  0  0  0  0  0  0  0  0  0  0
   -3.0217    7.4056    6.4611 O   0  0  0  0  0  0  0  0  0  0  0  0
   -3.3402    5.9517    8.1928 N   0  0  0  0  0  0  0  0  0  0  0  0
   -4.3372    6.7825    8.7401 O   0  0  0  0  0  0  0  0  0  0  0  0
   -0.9908    5.7234    5.3549 C   0  0  0  0  0  0  0  0  0  0  0  0
    2.2953    4.3983    2.2395 C   0  0  0  0  0  0  0  0  0  0  0  0
    2.8675    3.4159    1.4169 C   0  0  0  0  0  0  0  0  0  0  0  0
    3.0828   -0.6378   -0.9272 N   0  0  0  0  0  0  0  0  0  0  0  0
    2.7284   -1.8020   -1.6491 C   0  0  0  0  0  0  0  0  0  0  0  0
    1.4855   -2.4264   -1.5533 C   0  0  0  0  0  0  0  0  0  0  0  0
    1.2090   -3.5875   -2.2785 C   0  0  0  0  0  0  0  0  0  0  0  0
    2.1607   -4.1357   -3.1373 C   0  0  0  0  0  0  0  0  0  0  0  0
    1.7108   -5.5870   -3.9511 Cl  0  0  0  0  0  0  0  0  0  0  0  0
    3.4005   -3.5102   -3.2939 C   0  0  0  0  0  0  0  0  0  0  0  0
    4.4647   -3.9695   -4.2567 C   0  0  0  0  0  0  0  0  0  0  0  0
    4.1935   -5.0806   -4.9869 F   0  0  0  0  0  0  0  0  0  0  0  0
    4.7571   -2.9981   -5.1709 F   0  0  0  0  0  0  0  0  0  0  0  0
    5.6439   -4.2280   -3.6208 F   0  0  0  0  0  0  0  0  0  0  0  0
    3.6743   -2.3489   -2.5248 C   0  0  0  0  0  0  0  0  0  0  0  0
    3.7151    1.5073   -0.0408 H   0  0  0  0  0  0  0  0  0  0  0  0
    0.6408    0.9152    2.0318 H   0  0  0  0  0  0  0  0  0  0  0  0
   -0.3971    2.6366    3.3418 H   0  0  0  0  0  0  0  0  0  0  0  0
    1.0979    3.0398    5.4808 H   0  0  0  0  0  0  0  0  0  0  0  0
   -0.2827    2.6263    7.4882 H   0  0  0  0  0  0  0  0  0  0  0  0
   -3.0868    5.0943    8.6755 H   0  0  0  0  0  0  0  0  0  0  0  0
   -4.3599    7.5266    8.1009 H   0  0  0  0  0  0  0  0  0  0  0  0
   -1.2209    6.6149    4.7825 H   0  0  0  0  0  0  0  0  0  0  0  0
    2.7506    5.3838    2.3005 H   0  0  0  0  0  0  0  0  0  0  0  0
    3.7599    3.6693    0.8513 H   0  0  0  0  0  0  0  0  0  0  0  0
    4.0231   -0.2938   -1.0489 H   0  0  0  0  0  0  0  0  0  0  0  0
    0.6909   -2.0481   -0.9178 H   0  0  0  0  0  0  0  0  0  0  0  0
    0.2321   -4.0544   -2.1618 H   0  0  0  0  0  0  0  0  0  0  0  0
    4.6473   -1.8700   -2.6384 H   0  0  0  0  0  0  0  0  0  0  0  0
  1  2  2  0  0  0  0
  2  3  1  0  0  0  0
  2 21  1  0  0  0  0
  3  4  1  0  0  0  0
  3 33  1  0  0  0  0
  4  5  1  0  0  0  0
  4 20  2  0  0  0  0
  5  6  2  0  0  0  0
  5 34  1  0  0  0  0
  6  7  1  0  0  0  0
  6 35  1  0  0  0  0
  7  8  1  0  0  0  0
  7 19  2  0  0  0  0
  8  9  1  0  0  0  0
  9 10  1  0  0  0  0
  9 18  2  0  0  0  0
 10 11  2  0  0  0  0
 10 36  1  0  0  0  0
 11 12  1  0  0  0  0
 11 37  1  0  0  0  0
 12 13  2  0  0  0  0
 13 14  1  0  0  0  0
 13 18  1  0  0  0  0
 14 15  2  0  0  0  0
 14 16  1  0  0  0  0
 16 17  1  0  0  0  0
 16 38  1  0  0  0  0
 17 39  1  0  0  0  0
 18 40  1  0  0  0  0
 19 20  1  0  0  0  0
 19 41  1  0  0  0  0
 20 42  1  0  0  0  0
 21 22  1  0  0  0  0
 21 43  1  0  0  0  0
 22 23  1  0  0  0  0
 22 32  2  0  0  0  0
 23 24  2  0  0  0  0
 23 44  1  0  0  0  0
 24 25  1  0  0  0  0
 24 45  1  0  0  0  0
 25 26  1  0  0  0  0
 25 27  2  0  0  0  0
 27 28  1  0  0  0  0
 27 32  1  0  0  0  0
 28 29  1  0  0  0  0
 28 30  1  0  0  0  0
 28 31  1  0  0  0  0
 32 46  1  0  0  0  0
M  END
$$$$
