CHEMBL3099460
 OpenBabel04072215363D

 74 77  0  0  0  0  0  0  0  0999 V2000
    2.9163   -0.1589    2.0286 C   0  0  0  0  0  0  0  0  0  0  0  0
    3.4228   -0.1678    0.6964 O   0  0  0  0  0  0  0  0  0  0  0  0
    3.5770    1.0326    0.0541 C   0  0  0  0  0  0  0  0  0  0  0  0
    3.1795    2.2610    0.5923 C   0  0  0  0  0  0  0  0  0  0  0  0
    3.5126    3.5115    0.0052 C   0  0  0  0  0  0  0  0  0  0  0  0
    3.2057    4.8002    0.7057 C   0  0  0  0  0  0  0  0  0  0  0  0
    3.1596    4.7592    2.1139 C   0  0  0  0  0  0  0  0  0  0  0  0
    2.9878    5.8576    2.9485 C   0  0  0  0  0  0  0  0  0  0  0  0
    2.9575    5.7212    4.3661 N   0  0  0  0  0  0  0  0  0  0  0  0
    3.1126    4.5222    5.0551 C   0  0  0  0  0  0  0  0  0  0  0  0
    3.2821    3.4196    4.5417 O   0  0  0  0  0  0  0  0  0  0  0  0
    3.0257    4.6619    6.4329 N   0  0  0  0  0  0  0  0  0  0  0  0
    3.2117    3.4966    7.2260 C   0  0  0  0  0  0  0  0  0  0  0  0
    4.3466    2.6918    7.0578 C   0  0  0  0  0  0  0  0  0  0  0  0
    4.4944    1.5067    7.7830 C   0  0  0  0  0  0  0  0  0  0  0  0
    3.5115    1.1241    8.6952 C   0  0  0  0  0  0  0  0  0  0  0  0
    3.5515    0.0009    9.4787 O   0  0  0  0  0  0  0  0  0  0  0  0
    4.8636   -0.5238    9.7035 C   0  0  0  0  0  0  0  0  0  0  0  0
    4.8621   -1.3986   10.9675 C   0  0  0  0  0  0  0  0  0  0  0  0
    6.2177   -1.8438   11.3495 N   0  0  0  0  0  0  0  0  0  0  0  0
    6.8436   -2.7256   10.3522 C   0  0  0  0  0  0  0  0  0  0  0  0
    6.3342   -4.1089   10.6926 C   0  0  0  0  0  0  0  0  0  0  0  0
    6.3534   -4.1007   12.2078 C   0  0  0  0  0  0  0  0  0  0  0  0
    6.1917   -2.6323   12.5965 C   0  0  0  0  0  0  0  0  0  0  0  0
    2.3682    1.9136    8.8426 C   0  0  0  0  0  0  0  0  0  0  0  0
    2.2283    3.1142    8.1367 C   0  0  0  0  0  0  0  0  0  0  0  0
    2.8671    7.0999    2.3378 C   0  0  0  0  0  0  0  0  0  0  0  0
    2.8985    7.2096    0.9275 C   0  0  0  0  0  0  0  0  0  0  0  0
    2.6992    8.4355    0.3394 O   0  0  0  0  0  0  0  0  0  0  0  0
    3.5409    9.4725    0.8406 C   0  0  0  0  0  0  0  0  0  0  0  0
    3.0379    6.0649    0.1034 C   0  0  0  0  0  0  0  0  0  0  0  0
    2.9611    6.0719   -1.2704 O   0  0  0  0  0  0  0  0  0  0  0  0
    3.3688    7.2443   -1.9634 C   0  0  0  0  0  0  0  0  0  0  0  0
    4.2611    3.4659   -1.1744 C   0  0  0  0  0  0  0  0  0  0  0  0
    4.5850    2.2492   -1.7800 C   0  0  0  0  0  0  0  0  0  0  0  0
    4.2098    1.0357   -1.1896 C   0  0  0  0  0  0  0  0  0  0  0  0
    4.4988   -0.2018   -1.9580 C   0  0  0  0  0  0  0  0  0  0  0  0
    3.5398   -1.3707   -1.8751 C   0  0  0  0  0  0  0  0  0  0  0  0
    5.4619   -0.2332   -2.7088 O   0  0  0  0  0  0  0  0  0  0  0  0
    2.9035   -1.1925    2.3893 H   0  0  0  0  0  0  0  0  0  0  0  0
    1.8853    0.2077    2.0483 H   0  0  0  0  0  0  0  0  0  0  0  0
    3.5597    0.4196    2.7005 H   0  0  0  0  0  0  0  0  0  0  0  0
    2.6125    2.2505    1.5176 H   0  0  0  0  0  0  0  0  0  0  0  0
    3.3104    3.7928    2.5639 H   0  0  0  0  0  0  0  0  0  0  0  0
    2.9017    6.5672    4.9132 H   0  0  0  0  0  0  0  0  0  0  0  0
    2.3102    5.3027    6.7422 H   0  0  0  0  0  0  0  0  0  0  0  0
    5.1194    2.9715    6.3448 H   0  0  0  0  0  0  0  0  0  0  0  0
    5.3750    0.8994    7.5966 H   0  0  0  0  0  0  0  0  0  0  0  0
    5.5861    0.2877    9.8556 H   0  0  0  0  0  0  0  0  0  0  0  0
    5.1459   -1.1135    8.8250 H   0  0  0  0  0  0  0  0  0  0  0  0
    4.1646   -2.2369   10.8438 H   0  0  0  0  0  0  0  0  0  0  0  0
    4.4455   -0.7875   11.7808 H   0  0  0  0  0  0  0  0  0  0  0  0
    7.9317   -2.6819   10.4867 H   0  0  0  0  0  0  0  0  0  0  0  0
    6.6533   -2.4583    9.3106 H   0  0  0  0  0  0  0  0  0  0  0  0
    6.9583   -4.9004   10.2691 H   0  0  0  0  0  0  0  0  0  0  0  0
    5.3104   -4.2487   10.3256 H   0  0  0  0  0  0  0  0  0  0  0  0
    7.3185   -4.4775   12.5674 H   0  0  0  0  0  0  0  0  0  0  0  0
    5.5636   -4.7328   12.6237 H   0  0  0  0  0  0  0  0  0  0  0  0
    7.0373   -2.3277   13.2254 H   0  0  0  0  0  0  0  0  0  0  0  0
    5.2858   -2.4725   13.1928 H   0  0  0  0  0  0  0  0  0  0  0  0
    1.5763    1.5826    9.5083 H   0  0  0  0  0  0  0  0  0  0  0  0
    1.3162    3.6900    8.2526 H   0  0  0  0  0  0  0  0  0  0  0  0
    2.7255    7.9914    2.9398 H   0  0  0  0  0  0  0  0  0  0  0  0
    3.6960   10.1980    0.0346 H   0  0  0  0  0  0  0  0  0  0  0  0
    4.5262    9.1066    1.1517 H   0  0  0  0  0  0  0  0  0  0  0  0
    3.0386    9.9861    1.6646 H   0  0  0  0  0  0  0  0  0  0  0  0
    3.5777    6.9660   -3.0016 H   0  0  0  0  0  0  0  0  0  0  0  0
    4.2914    7.6650   -1.5496 H   0  0  0  0  0  0  0  0  0  0  0  0
    2.5598    7.9799   -1.9907 H   0  0  0  0  0  0  0  0  0  0  0  0
    4.6192    4.3791   -1.6411 H   0  0  0  0  0  0  0  0  0  0  0  0
    5.1424    2.2567   -2.7149 H   0  0  0  0  0  0  0  0  0  0  0  0
    2.6779   -1.1898   -1.2340 H   0  0  0  0  0  0  0  0  0  0  0  0
    4.0793   -2.2483   -1.5095 H   0  0  0  0  0  0  0  0  0  0  0  0
    3.1440   -1.5675   -2.8761 H   0  0  0  0  0  0  0  0  0  0  0  0
  1  2  1  0  0  0  0
  1 40  1  0  0  0  0
  1 41  1  0  0  0  0
  1 42  1  0  0  0  0
  2  3  1  0  0  0  0
  3  4  1  0  0  0  0
  3 36  2  0  0  0  0
  4  5  2  0  0  0  0
  4 43  1  0  0  0  0
  5  6  1  0  0  0  0
  5 34  1  0  0  0  0
  6  7  1  0  0  0  0
  6 31  2  0  0  0  0
  7  8  2  0  0  0  0
  7 44  1  0  0  0  0
  8  9  1  0  0  0  0
  8 27  1  0  0  0  0
  9 10  1  0  0  0  0
  9 45  1  0  0  0  0
 10 11  2  0  0  0  0
 10 12  1  0  0  0  0
 12 13  1  0  0  0  0
 12 46  1  0  0  0  0
 13 14  1  0  0  0  0
 13 26  2  0  0  0  0
 14 15  2  0  0  0  0
 14 47  1  0  0  0  0
 15 16  1  0  0  0  0
 15 48  1  0  0  0  0
 16 17  1  0  0  0  0
 16 25  2  0  0  0  0
 17 18  1  0  0  0  0
 18 19  1  0  0  0  0
 18 49  1  0  0  0  0
 18 50  1  0  0  0  0
 19 20  1  0  0  0  0
 19 51  1  0  0  0  0
 19 52  1  0  0  0  0
 20 21  1  0  0  0  0
 20 24  1  0  0  0  0
 21 22  1  0  0  0  0
 21 53  1  0  0  0  0
 21 54  1  0  0  0  0
 22 23  1  0  0  0  0
 22 55  1  0  0  0  0
 22 56  1  0  0  0  0
 23 24  1  0  0  0  0
 23 57  1  0  0  0  0
 23 58  1  0  0  0  0
 24 59  1  0  0  0  0
 24 60  1  0  0  0  0
 25 26  1  0  0  0  0
 25 61  1  0  0  0  0
 26 62  1  0  0  0  0
 27 28  2  0  0  0  0
 27 63  1  0  0  0  0
 28 29  1  0  0  0  0
 28 31  1  0  0  0  0
 29 30  1  0  0  0  0
 30 64  1  0  0  0  0
 30 65  1  0  0  0  0
 30 66  1  0  0  0  0
 31 32  1  0  0  0  0
 32 33  1  0  0  0  0
 33 67  1  0  0  0  0
 33 68  1  0  0  0  0
 33 69  1  0  0  0  0
 34 35  2  0  0  0  0
 34 70  1  0  0  0  0
 35 36  1  0  0  0  0
 35 71  1  0  0  0  0
 36 37  1  0  0  0  0
 37 38  1  0  0  0  0
 37 39  2  0  0  0  0
 38 72  1  0  0  0  0
 38 73  1  0  0  0  0
 38 74  1  0  0  0  0
M  END
$$$$
