CHEMBL279574
 OpenBabel04072215363D

 37 39  0  0  0  0  0  0  0  0999 V2000
    8.5962   -5.6261   -5.7899 C   0  0  0  0  0  0  0  0  0  0  0  0
    8.1516   -5.0102   -4.5841 O   0  0  0  0  0  0  0  0  0  0  0  0
    7.5026   -3.8149   -4.7268 C   0  0  0  0  0  0  0  0  0  0  0  0
    7.2839   -3.1640   -5.9333 C   0  0  0  0  0  0  0  0  0  0  0  0
    6.6028   -1.9475   -5.9580 C   0  0  0  0  0  0  0  0  0  0  0  0
    6.1233   -1.3395   -4.7962 C   0  0  0  0  0  0  0  0  0  0  0  0
    5.3803   -0.1483   -4.8197 N   0  0  0  0  0  0  0  0  0  0  0  0
    4.9743    0.6241   -5.9094 C   0  0  0  0  0  0  0  0  0  0  0  0
    4.8711    1.9382   -5.6878 N   0  0  0  0  0  0  0  0  0  0  0  0
    4.5736    2.7073   -6.7534 C   0  0  0  0  0  0  0  0  0  0  0  0
    4.3483    2.2206   -8.0259 C   0  0  0  0  0  0  0  0  0  0  0  0
    4.1098    3.1535   -9.0740 C   0  0  0  0  0  0  0  0  0  0  0  0
    3.8973    3.9351   -9.9076 N   0  0  0  0  0  0  0  0  0  0  0  0
    4.4212    0.8494   -8.1771 C   0  0  0  0  0  0  0  0  0  0  0  0
    4.2483    0.1017   -9.4591 C   0  0  0  0  0  0  0  0  0  0  0  0
    4.9615   -1.0925   -9.6983 C   0  0  0  0  0  0  0  0  0  0  0  0
    4.8713   -1.7875  -10.9113 C   0  0  0  0  0  0  0  0  0  0  0  0
    4.0591   -1.3050  -11.9282 C   0  0  0  0  0  0  0  0  0  0  0  0
    3.3121   -0.1531  -11.7147 C   0  0  0  0  0  0  0  0  0  0  0  0
    3.3893    0.5242  -10.4903 C   0  0  0  0  0  0  0  0  0  0  0  0
    4.7334    0.0665   -7.1116 N   0  0  0  0  0  0  0  0  0  0  0  0
    6.3385   -2.0085   -3.5847 C   0  0  0  0  0  0  0  0  0  0  0  0
    7.0311   -3.2287   -3.5506 C   0  0  0  0  0  0  0  0  0  0  0  0
    9.0369   -6.5938   -5.5358 H   0  0  0  0  0  0  0  0  0  0  0  0
    9.3711   -5.0215   -6.2749 H   0  0  0  0  0  0  0  0  0  0  0  0
    7.7604   -5.8138   -6.4737 H   0  0  0  0  0  0  0  0  0  0  0  0
    7.6229   -3.5635   -6.8821 H   0  0  0  0  0  0  0  0  0  0  0  0
    6.4790   -1.4730   -6.9216 H   0  0  0  0  0  0  0  0  0  0  0  0
    5.4993    0.4479   -4.0117 H   0  0  0  0  0  0  0  0  0  0  0  0
    4.5411    3.7746   -6.5414 H   0  0  0  0  0  0  0  0  0  0  0  0
    5.6133   -1.5038   -8.9326 H   0  0  0  0  0  0  0  0  0  0  0  0
    5.4417   -2.7014  -11.0577 H   0  0  0  0  0  0  0  0  0  0  0  0
    3.9985   -1.8287  -12.8783 H   0  0  0  0  0  0  0  0  0  0  0  0
    2.6627    0.2259  -12.5002 H   0  0  0  0  0  0  0  0  0  0  0  0
    2.7458    1.3921  -10.3740 H   0  0  0  0  0  0  0  0  0  0  0  0
    5.9643   -1.5931   -2.6524 H   0  0  0  0  0  0  0  0  0  0  0  0
    7.1934   -3.7289   -2.5990 H   0  0  0  0  0  0  0  0  0  0  0  0
  1  2  1  0  0  0  0
  1 24  1  0  0  0  0
  1 25  1  0  0  0  0
  1 26  1  0  0  0  0
  2  3  1  0  0  0  0
  3  4  1  0  0  0  0
  3 23  2  0  0  0  0
  4  5  2  0  0  0  0
  4 27  1  0  0  0  0
  5  6  1  0  0  0  0
  5 28  1  0  0  0  0
  6  7  1  0  0  0  0
  6 22  2  0  0  0  0
  7  8  1  0  0  0  0
  7 29  1  0  0  0  0
  8  9  1  0  0  0  0
  8 21  2  0  0  0  0
  9 10  2  0  0  0  0
 10 11  1  0  0  0  0
 10 30  1  0  0  0  0
 11 12  1  0  0  0  0
 11 14  2  0  0  0  0
 12 13  3  0  0  0  0
 14 15  1  0  0  0  0
 14 21  1  0  0  0  0
 15 16  1  0  0  0  0
 15 20  2  0  0  0  0
 16 17  2  0  0  0  0
 16 31  1  0  0  0  0
 17 18  1  0  0  0  0
 17 32  1  0  0  0  0
 18 19  2  0  0  0  0
 18 33  1  0  0  0  0
 19 20  1  0  0  0  0
 19 34  1  0  0  0  0
 20 35  1  0  0  0  0
 22 23  1  0  0  0  0
 22 36  1  0  0  0  0
 23 37  1  0  0  0  0
M  END
$$$$
