CHEMBL230223
 OpenBabel04072215363D

 62 66  0  0  1  0  0  0  0  0999 V2000
    6.4324    6.7753   16.1683 C   0  0  0  0  0  0  0  0  0  0  0  0
    5.9963    7.9997   15.5565 N   0  0  0  0  0  0  0  0  0  0  0  0
    6.3437    8.3185   14.2629 C   0  0  0  0  0  0  0  0  0  0  0  0
    7.0318    7.6001   13.5455 O   0  0  0  0  0  0  0  0  0  0  0  0
    5.8240    9.6334   13.7722 C   0  0  0  0  0  0  0  0  0  0  0  0
    6.0698    9.9991   12.4584 C   0  0  0  0  0  0  0  0  0  0  0  0
    5.6479   11.2577   12.0444 C   0  0  0  0  0  0  0  0  0  0  0  0
    5.8350   11.7478   10.7732 O   0  0  0  0  0  0  0  0  0  0  0  0
    6.9909   11.4400   10.0810 C   0  0  0  0  0  0  0  0  0  0  0  0
    8.2468   11.2951   10.6898 C   0  0  0  0  0  0  0  0  0  0  0  0
    9.3786   11.0134    9.9247 C   0  0  0  0  0  0  0  0  0  0  0  0
   10.5685   10.8364   10.5096 F   0  0  0  0  0  0  0  0  0  0  0  0
    9.2128   10.9372    8.5549 C   0  0  0  0  0  0  0  0  0  0  0  0
   10.1602   10.7367    7.5920 O   0  0  0  0  0  0  0  0  0  0  0  0
    9.4450   10.7268    6.4261 C   0  0  0  0  0  0  0  0  0  0  0  0
   10.1643   10.5581    5.3061 N   0  0  0  0  0  0  0  0  0  0  0  0
    9.6703   10.0266    4.1039 C   0  0  0  0  0  0  0  0  0  0  0  0
    8.6130    9.1095    4.0742 C   0  0  0  0  0  0  0  0  0  0  0  0
    8.0952    8.6501    2.8641 C   0  0  0  0  0  0  0  0  0  0  0  0
    8.6188    9.1211    1.6611 C   0  0  0  0  0  0  0  0  0  0  0  0
    7.9116    8.5492    0.1910 Cl  0  0  0  0  0  0  0  0  0  0  0  0
    9.6793   10.0392    1.6579 C   0  0  0  0  0  0  0  0  0  0  0  0
   10.1379   10.4523    0.4316 O   0  0  0  0  0  0  0  0  0  0  0  0
   11.2422   11.3583    0.4265 C   0  0  0  0  0  0  0  0  0  0  0  0
   11.6590   11.6568   -1.0190 C   0  0  2  0  0  0  0  0  0  0  0  0
   12.0991   10.3969   -1.7730 C   0  0  0  0  0  0  0  0  0  0  0  0
   13.2086   10.8596   -2.7125 C   0  0  0  0  0  0  0  0  0  0  0  0
   13.3166   12.3594   -2.4934 C   0  0  0  0  0  0  0  0  0  0  0  0
   12.8460   12.5267   -1.1174 N   0  0  0  0  0  0  0  0  0  0  0  0
   12.5659   13.9227   -0.8072 C   0  0  0  0  0  0  0  0  0  0  0  0
   10.1941   10.4834    2.8856 C   0  0  0  0  0  0  0  0  0  0  0  0
    8.1480   10.9102    6.5760 N   0  0  0  0  0  0  0  0  0  0  0  0
    7.9920   11.0763    7.9216 C   0  0  0  0  0  0  0  0  0  0  0  0
    6.8490   11.3470    8.6894 C   0  0  0  0  0  0  0  0  0  0  0  0
    4.9341   12.0660   12.9243 C   0  0  0  0  0  0  0  0  0  0  0  0
    4.7131   11.6035   14.2120 C   0  0  0  0  0  0  0  0  0  0  0  0
    5.1492   10.4087   14.6678 N   0  0  0  0  0  0  0  0  0  0  0  0
    6.0276    6.7186   17.1805 H   0  0  0  0  0  0  0  0  0  0  0  0
    7.5256    6.7576   16.1983 H   0  0  0  0  0  0  0  0  0  0  0  0
    6.0773    5.9297   15.5725 H   0  0  0  0  0  0  0  0  0  0  0  0
    5.4293    8.6737   16.0640 H   0  0  0  0  0  0  0  0  0  0  0  0
    6.5909    9.3176   11.7953 H   0  0  0  0  0  0  0  0  0  0  0  0
    8.3735   11.3943   11.7638 H   0  0  0  0  0  0  0  0  0  0  0  0
   11.1668   10.6817    5.3559 H   0  0  0  0  0  0  0  0  0  0  0  0
    8.1903    8.7275    5.0011 H   0  0  0  0  0  0  0  0  0  0  0  0
    7.2794    7.9326    2.8715 H   0  0  0  0  0  0  0  0  0  0  0  0
   12.0916   10.9197    0.9656 H   0  0  0  0  0  0  0  0  0  0  0  0
   10.9379   12.2922    0.9133 H   0  0  0  0  0  0  0  0  0  0  0  0
   10.8069   12.0917   -1.5614 H   0  0  0  0  0  0  0  0  0  0  0  0
   11.2646    9.9608   -2.3332 H   0  0  0  0  0  0  0  0  0  0  0  0
   12.4877    9.6236   -1.0994 H   0  0  0  0  0  0  0  0  0  0  0  0
   12.9863   10.6182   -3.7565 H   0  0  0  0  0  0  0  0  0  0  0  0
   14.1490   10.3626   -2.4455 H   0  0  0  0  0  0  0  0  0  0  0  0
   12.6720   12.8866   -3.2086 H   0  0  0  0  0  0  0  0  0  0  0  0
   14.3444   12.7124   -2.6234 H   0  0  0  0  0  0  0  0  0  0  0  0
   13.4766   14.5226   -0.9108 H   0  0  0  0  0  0  0  0  0  0  0  0
   12.2402   14.0345    0.2320 H   0  0  0  0  0  0  0  0  0  0  0  0
   11.7944   14.3499   -1.4573 H   0  0  0  0  0  0  0  0  0  0  0  0
   10.9879   11.2224    2.9244 H   0  0  0  0  0  0  0  0  0  0  0  0
    5.8857   11.4901    8.2069 H   0  0  0  0  0  0  0  0  0  0  0  0
    4.5585   13.0356   12.6125 H   0  0  0  0  0  0  0  0  0  0  0  0
    4.1618   12.2042   14.9313 H   0  0  0  0  0  0  0  0  0  0  0  0
  1  2  1  0  0  0  0
  1 38  1  0  0  0  0
  1 39  1  0  0  0  0
  1 40  1  0  0  0  0
  2  3  1  0  0  0  0
  2 41  1  0  0  0  0
  3  4  2  0  0  0  0
  3  5  1  0  0  0  0
  5  6  1  0  0  0  0
  5 37  2  0  0  0  0
  6  7  2  0  0  0  0
  6 42  1  0  0  0  0
  7  8  1  0  0  0  0
  7 35  1  0  0  0  0
  8  9  1  0  0  0  0
  9 10  1  0  0  0  0
  9 34  2  0  0  0  0
 10 11  2  0  0  0  0
 10 43  1  0  0  0  0
 11 12  1  0  0  0  0
 11 13  1  0  0  0  0
 13 14  1  0  0  0  0
 13 33  2  0  0  0  0
 14 15  1  0  0  0  0
 15 16  1  0  0  0  0
 15 32  2  0  0  0  0
 16 17  1  0  0  0  0
 16 44  1  0  0  0  0
 17 18  1  0  0  0  0
 17 31  2  0  0  0  0
 18 19  2  0  0  0  0
 18 45  1  0  0  0  0
 19 20  1  0  0  0  0
 19 46  1  0  0  0  0
 20 21  1  0  0  0  0
 20 22  2  0  0  0  0
 22 23  1  0  0  0  0
 22 31  1  0  0  0  0
 23 24  1  0  0  0  0
 24 47  1  0  0  0  0
 24 48  1  0  0  0  0
 25 26  1  0  0  0  0
 25 29  1  0  0  0  0
 25 24  1  0  0  0  0
 25 49  1  6  0  0  0
 26 27  1  0  0  0  0
 26 50  1  0  0  0  0
 26 51  1  0  0  0  0
 27 28  1  0  0  0  0
 27 52  1  0  0  0  0
 27 53  1  0  0  0  0
 28 29  1  0  0  0  0
 28 54  1  0  0  0  0
 28 55  1  0  0  0  0
 29 30  1  0  0  0  0
 30 56  1  0  0  0  0
 30 57  1  0  0  0  0
 30 58  1  0  0  0  0
 31 59  1  0  0  0  0
 32 33  1  0  0  0  0
 33 34  1  0  0  0  0
 34 60  1  0  0  0  0
 35 36  2  0  0  0  0
 35 61  1  0  0  0  0
 36 37  1  0  0  0  0
 36 62  1  0  0  0  0
M  END
$$$$
