CHEMBL3593286
 OpenBabel04072215363D

 61 65  0  0  0  0  0  0  0  0999 V2000
    1.3793   -2.3164    0.4853 C   0  0  0  0  0  0  0  0  0  0  0  0
    1.0450   -0.9488    0.9944 C   0  0  0  0  0  0  0  0  0  0  0  0
    1.4963    0.1072    0.2798 N   0  0  0  0  0  0  0  0  0  0  0  0
    1.1806    1.3276    0.7364 C   0  0  0  0  0  0  0  0  0  0  0  0
    1.5673    2.4279   -0.0467 N   0  0  0  0  0  0  0  0  0  0  0  0
    0.9691    3.6446   -0.0373 C   0  0  0  0  0  0  0  0  0  0  0  0
    0.1725    4.0900    0.9075 N   0  0  0  0  0  0  0  0  0  0  0  0
   -0.3571    5.3061    0.5812 C   0  0  0  0  0  0  0  0  0  0  0  0
    0.0700    5.8492   -0.6133 C   0  0  0  0  0  0  0  0  0  0  0  0
   -0.3021    7.1479   -1.1761 C   0  0  0  0  0  0  0  0  0  0  0  0
   -0.5773    8.1873   -0.2862 C   0  0  0  0  0  0  0  0  0  0  0  0
   -1.0371    9.4206   -0.7373 C   0  0  0  0  0  0  0  0  0  0  0  0
   -1.2419    9.6698   -2.0944 C   0  0  0  0  0  0  0  0  0  0  0  0
   -1.7560   10.9044   -2.5761 N   0  0  0  0  0  0  0  0  0  0  0  0
   -2.1899   11.9490   -1.7748 C   0  0  0  0  0  0  0  0  0  0  0  0
   -2.1890   11.9111   -0.5479 O   0  0  0  0  0  0  0  0  0  0  0  0
   -2.6517   13.0445   -2.4824 N   0  0  0  0  0  0  0  0  0  0  0  0
   -3.0660   14.2516   -1.8482 C   0  0  0  0  0  0  0  0  0  0  0  0
   -2.6365   14.6137   -0.5612 C   0  0  0  0  0  0  0  0  0  0  0  0
   -3.1312   15.7491    0.0823 C   0  0  0  0  0  0  0  0  0  0  0  0
   -4.0407   16.5669   -0.5721 C   0  0  0  0  0  0  0  0  0  0  0  0
   -4.4304   16.2511   -1.8725 C   0  0  0  0  0  0  0  0  0  0  0  0
   -5.5456   17.2812   -2.6867 Cl  0  0  0  0  0  0  0  0  0  0  0  0
   -3.9460   15.1053   -2.5187 C   0  0  0  0  0  0  0  0  0  0  0  0
   -0.9348    8.6491   -2.9991 C   0  0  0  0  0  0  0  0  0  0  0  0
   -0.4714    7.3956   -2.5437 C   0  0  0  0  0  0  0  0  0  0  0  0
    1.1790    4.7611   -1.3454 S   0  0  0  0  0  0  0  0  0  0  0  0
    0.4952    1.4644    1.9218 C   0  0  0  0  0  0  0  0  0  0  0  0
    0.0752    0.3413    2.6051 C   0  0  0  0  0  0  0  0  0  0  0  0
   -0.6339    0.5533    3.7803 N   0  0  0  0  0  0  0  0  0  0  0  0
   -1.6008   -0.4392    4.2408 C   0  0  0  0  0  0  0  0  0  0  0  0
   -2.5636    0.2690    5.2370 C   0  0  0  0  0  0  0  0  0  0  0  0
   -1.8884    0.9636    6.3601 N   0  0  0  0  0  0  0  0  0  0  0  0
   -0.8486    1.8734    5.8253 C   0  0  0  0  0  0  0  0  0  0  0  0
    0.1365    1.1718    4.8677 C   0  0  0  0  0  0  0  0  0  0  0  0
    0.3194   -0.8824    2.1301 N   0  0  0  0  0  0  0  0  0  0  0  0
    2.0031   -2.2617   -0.4121 H   0  0  0  0  0  0  0  0  0  0  0  0
    0.4607   -2.8565    0.2383 H   0  0  0  0  0  0  0  0  0  0  0  0
    1.9252   -2.8749    1.2516 H   0  0  0  0  0  0  0  0  0  0  0  0
    2.0519    2.1203   -0.8784 H   0  0  0  0  0  0  0  0  0  0  0  0
   -1.0635    5.7634    1.2654 H   0  0  0  0  0  0  0  0  0  0  0  0
   -0.4544    8.0612    0.7880 H   0  0  0  0  0  0  0  0  0  0  0  0
   -1.2267   10.1547    0.0354 H   0  0  0  0  0  0  0  0  0  0  0  0
   -1.8199   11.0198   -3.5785 H   0  0  0  0  0  0  0  0  0  0  0  0
   -2.9839   12.8829   -3.4222 H   0  0  0  0  0  0  0  0  0  0  0  0
   -1.9076   14.0196   -0.0159 H   0  0  0  0  0  0  0  0  0  0  0  0
   -2.8084   15.9743    1.0965 H   0  0  0  0  0  0  0  0  0  0  0  0
   -4.4365   17.4418   -0.0654 H   0  0  0  0  0  0  0  0  0  0  0  0
   -4.2875   14.8769   -3.5207 H   0  0  0  0  0  0  0  0  0  0  0  0
   -1.0735    8.7899   -4.0678 H   0  0  0  0  0  0  0  0  0  0  0  0
   -0.2826    6.6109   -3.2726 H   0  0  0  0  0  0  0  0  0  0  0  0
    0.2373    2.4295    2.3312 H   0  0  0  0  0  0  0  0  0  0  0  0
   -1.0943   -1.2757    4.7374 H   0  0  0  0  0  0  0  0  0  0  0  0
   -2.1918   -0.8364    3.4072 H   0  0  0  0  0  0  0  0  0  0  0  0
   -3.2659   -0.4602    5.6517 H   0  0  0  0  0  0  0  0  0  0  0  0
   -3.1650    1.0101    4.6909 H   0  0  0  0  0  0  0  0  0  0  0  0
   -1.4189    0.2573    6.9278 H   0  0  0  0  0  0  0  0  0  0  0  0
   -0.2901    2.3102    6.6602 H   0  0  0  0  0  0  0  0  0  0  0  0
   -1.3356    2.7056    5.3001 H   0  0  0  0  0  0  0  0  0  0  0  0
    0.7022    0.3993    5.4055 H   0  0  0  0  0  0  0  0  0  0  0  0
    0.8615    1.9111    4.5080 H   0  0  0  0  0  0  0  0  0  0  0  0
  1  2  1  0  0  0  0
  1 37  1  0  0  0  0
  1 38  1  0  0  0  0
  1 39  1  0  0  0  0
  2  3  1  0  0  0  0
  2 36  2  0  0  0  0
  3  4  2  0  0  0  0
  4  5  1  0  0  0  0
  4 28  1  0  0  0  0
  5  6  1  0  0  0  0
  5 40  1  0  0  0  0
  6  7  2  0  0  0  0
  6 27  1  0  0  0  0
  7  8  1  0  0  0  0
  8  9  2  0  0  0  0
  8 41  1  0  0  0  0
  9 10  1  0  0  0  0
  9 27  1  0  0  0  0
 10 11  1  0  0  0  0
 10 26  2  0  0  0  0
 11 12  2  0  0  0  0
 11 42  1  0  0  0  0
 12 13  1  0  0  0  0
 12 43  1  0  0  0  0
 13 14  1  0  0  0  0
 13 25  2  0  0  0  0
 14 15  1  0  0  0  0
 14 44  1  0  0  0  0
 15 16  2  0  0  0  0
 15 17  1  0  0  0  0
 17 18  1  0  0  0  0
 17 45  1  0  0  0  0
 18 19  1  0  0  0  0
 18 24  2  0  0  0  0
 19 20  2  0  0  0  0
 19 46  1  0  0  0  0
 20 21  1  0  0  0  0
 20 47  1  0  0  0  0
 21 22  2  0  0  0  0
 21 48  1  0  0  0  0
 22 23  1  0  0  0  0
 22 24  1  0  0  0  0
 24 49  1  0  0  0  0
 25 26  1  0  0  0  0
 25 50  1  0  0  0  0
 26 51  1  0  0  0  0
 28 29  2  0  0  0  0
 28 52  1  0  0  0  0
 29 30  1  0  0  0  0
 29 36  1  0  0  0  0
 30 31  1  0  0  0  0
 30 35  1  0  0  0  0
 31 32  1  0  0  0  0
 31 53  1  0  0  0  0
 31 54  1  0  0  0  0
 32 33  1  0  0  0  0
 32 55  1  0  0  0  0
 32 56  1  0  0  0  0
 33 34  1  0  0  0  0
 33 57  1  0  0  0  0
 34 35  1  0  0  0  0
 34 58  1  0  0  0  0
 34 59  1  0  0  0  0
 35 60  1  0  0  0  0
 35 61  1  0  0  0  0
M  END
$$$$
