CHEMBL4782982
 OpenBabel04072215383D

 57 61  0  0  0  0  0  0  0  0999 V2000
    2.6527   -1.9650   -4.7308 C   0  0  0  0  0  0  0  0  0  0  0  0
    2.2291   -3.3032   -4.4902 O   0  0  0  0  0  0  0  0  0  0  0  0
    2.8499   -3.9622   -3.4673 C   0  0  0  0  0  0  0  0  0  0  0  0
    3.8204   -3.4256   -2.6193 C   0  0  0  0  0  0  0  0  0  0  0  0
    4.3647   -4.2022   -1.5880 C   0  0  0  0  0  0  0  0  0  0  0  0
    3.9544   -5.5203   -1.4081 C   0  0  0  0  0  0  0  0  0  0  0  0
    4.4700   -6.3654   -0.4168 N   0  0  0  0  0  0  0  0  0  0  0  0
    5.2271   -6.0630    0.6791 C   0  0  0  0  0  0  0  0  0  0  0  0
    5.5730   -4.9304    1.0231 O   0  0  0  0  0  0  0  0  0  0  0  0
    5.5798   -7.1077    1.4833 N   0  0  0  0  0  0  0  0  0  0  0  0
    5.3979   -8.4603    1.2453 C   0  0  0  0  0  0  0  0  0  0  0  0
    5.6226   -9.2834    2.2660 N   0  0  0  0  0  0  0  0  0  0  0  0
    5.3198  -10.5724    2.0336 C   0  0  0  0  0  0  0  0  0  0  0  0
    5.7457  -11.7744    3.2946 S   0  0  0  0  0  0  0  0  0  0  0  0
    7.2297  -12.3536    2.5601 C   0  0  0  0  0  0  0  0  0  0  0  0
    8.4595  -11.7572    2.7160 C   0  0  0  0  0  0  0  0  0  0  0  0
    9.3381  -12.4805    1.9578 N   0  0  0  0  0  0  0  0  0  0  0  0
    8.6284  -13.1735    1.0036 C   0  0  0  0  0  0  0  0  0  0  0  0
    9.0114  -13.6744   -0.2438 C   0  0  0  0  0  0  0  0  0  0  0  0
    8.0644  -14.4253   -0.9448 C   0  0  0  0  0  0  0  0  0  0  0  0
    6.8412  -14.7583   -0.3641 C   0  0  0  0  0  0  0  0  0  0  0  0
    6.4697  -14.2292    0.8789 C   0  0  0  0  0  0  0  0  0  0  0  0
    7.3417  -13.3278    1.5224 C   0  0  0  0  0  0  0  0  0  0  0  0
    4.8117  -11.0372    0.8386 C   0  0  0  0  0  0  0  0  0  0  0  0
    4.7295  -10.1454   -0.1975 C   0  0  0  0  0  0  0  0  0  0  0  0
    4.3398  -10.5127   -1.4622 N   0  0  0  0  0  0  0  0  0  0  0  0
    4.8621   -9.7877   -2.6136 C   0  0  0  0  0  0  0  0  0  0  0  0
    4.0392  -10.3795   -3.7494 C   0  0  0  0  0  0  0  0  0  0  0  0
    3.8953  -11.8477   -3.3651 C   0  0  0  0  0  0  0  0  0  0  0  0
    4.0159  -11.8824   -1.8397 C   0  0  0  0  0  0  0  0  0  0  0  0
    4.9922   -8.8514    0.0253 N   0  0  0  0  0  0  0  0  0  0  0  0
    2.9900   -6.0601   -2.2660 C   0  0  0  0  0  0  0  0  0  0  0  0
    2.4318   -5.2826   -3.2802 C   0  0  0  0  0  0  0  0  0  0  0  0
    2.0370   -1.5562   -5.5378 H   0  0  0  0  0  0  0  0  0  0  0  0
    3.6969   -1.9399   -5.0594 H   0  0  0  0  0  0  0  0  0  0  0  0
    2.5003   -1.3352   -3.8483 H   0  0  0  0  0  0  0  0  0  0  0  0
    4.1805   -2.4086   -2.7325 H   0  0  0  0  0  0  0  0  0  0  0  0
    5.1306   -3.7604   -0.9588 H   0  0  0  0  0  0  0  0  0  0  0  0
    4.2205   -7.3489   -0.4948 H   0  0  0  0  0  0  0  0  0  0  0  0
    6.0056   -6.8701    2.3668 H   0  0  0  0  0  0  0  0  0  0  0  0
    8.7817  -10.9025    3.2957 H   0  0  0  0  0  0  0  0  0  0  0  0
   10.3461  -12.4390    2.0208 H   0  0  0  0  0  0  0  0  0  0  0  0
    9.9771  -13.4393   -0.6796 H   0  0  0  0  0  0  0  0  0  0  0  0
    8.2946  -14.7693   -1.9509 H   0  0  0  0  0  0  0  0  0  0  0  0
    6.1506  -15.4047   -0.9000 H   0  0  0  0  0  0  0  0  0  0  0  0
    5.4998  -14.4650    1.3064 H   0  0  0  0  0  0  0  0  0  0  0  0
    4.5695  -12.0801    0.7108 H   0  0  0  0  0  0  0  0  0  0  0  0
    5.9276  -10.0138   -2.7535 H   0  0  0  0  0  0  0  0  0  0  0  0
    4.7323   -8.7035   -2.5561 H   0  0  0  0  0  0  0  0  0  0  0  0
    4.5068  -10.2447   -4.7284 H   0  0  0  0  0  0  0  0  0  0  0  0
    3.0500   -9.9064   -3.7735 H   0  0  0  0  0  0  0  0  0  0  0  0
    4.6955  -12.4447   -3.8170 H   0  0  0  0  0  0  0  0  0  0  0  0
    2.9409  -12.2638   -3.7032 H   0  0  0  0  0  0  0  0  0  0  0  0
    4.8083  -12.5844   -1.5550 H   0  0  0  0  0  0  0  0  0  0  0  0
    3.0755  -12.1989   -1.3776 H   0  0  0  0  0  0  0  0  0  0  0  0
    2.6449   -7.0825   -2.1395 H   0  0  0  0  0  0  0  0  0  0  0  0
    1.6609   -5.7033   -3.9217 H   0  0  0  0  0  0  0  0  0  0  0  0
  1  2  1  0  0  0  0
  1 34  1  0  0  0  0
  1 35  1  0  0  0  0
  1 36  1  0  0  0  0
  2  3  1  0  0  0  0
  3  4  1  0  0  0  0
  3 33  2  0  0  0  0
  4  5  2  0  0  0  0
  4 37  1  0  0  0  0
  5  6  1  0  0  0  0
  5 38  1  0  0  0  0
  6  7  1  0  0  0  0
  6 32  2  0  0  0  0
  7  8  1  0  0  0  0
  7 39  1  0  0  0  0
  8  9  2  0  0  0  0
  8 10  1  0  0  0  0
 10 11  1  0  0  0  0
 10 40  1  0  0  0  0
 11 12  1  0  0  0  0
 11 31  2  0  0  0  0
 12 13  2  0  0  0  0
 13 14  1  0  0  0  0
 13 24  1  0  0  0  0
 14 15  1  0  0  0  0
 15 16  2  0  0  0  0
 15 23  1  0  0  0  0
 16 17  1  0  0  0  0
 16 41  1  0  0  0  0
 17 18  1  0  0  0  0
 17 42  1  0  0  0  0
 18 19  1  0  0  0  0
 18 23  2  0  0  0  0
 19 20  2  0  0  0  0
 19 43  1  0  0  0  0
 20 21  1  0  0  0  0
 20 44  1  0  0  0  0
 21 22  2  0  0  0  0
 21 45  1  0  0  0  0
 22 23  1  0  0  0  0
 22 46  1  0  0  0  0
 24 25  2  0  0  0  0
 24 47  1  0  0  0  0
 25 26  1  0  0  0  0
 25 31  1  0  0  0  0
 26 27  1  0  0  0  0
 26 30  1  0  0  0  0
 27 28  1  0  0  0  0
 27 48  1  0  0  0  0
 27 49  1  0  0  0  0
 28 29  1  0  0  0  0
 28 50  1  0  0  0  0
 28 51  1  0  0  0  0
 29 30  1  0  0  0  0
 29 52  1  0  0  0  0
 29 53  1  0  0  0  0
 30 54  1  0  0  0  0
 30 55  1  0  0  0  0
 32 33  1  0  0  0  0
 32 56  1  0  0  0  0
 33 57  1  0  0  0  0
M  END
$$$$
