CHEMBL3975791
 OpenBabel04072215373D

 63 66  0  0  0  0  0  0  0  0999 V2000
    6.9595   -2.6126    0.0534 H   0  0  0  0  0  0  0  0  0  0  0  0
    6.2314   -1.8237   -0.2227 C   0  0  0  0  0  0  0  0  0  0  0  0
    6.0279   -1.8986   -1.3135 H   0  0  0  0  0  0  0  0  0  0  0  0
    5.2893   -2.0222    0.3386 H   0  0  0  0  0  0  0  0  0  0  0  0
    6.7469   -0.5699    0.0865 O   0  0  0  0  0  0  0  0  0  0  0  0
    6.0884    0.6141   -0.0763 C   0  0  0  0  0  0  0  0  0  0  0  0
    4.7653    0.6349   -0.5556 C   0  0  0  0  0  0  0  0  0  0  0  0
    4.0651    1.8356   -0.6720 C   0  0  0  0  0  0  0  0  0  0  0  0
    2.7831    1.8905   -1.1274 O   0  0  0  0  0  0  0  0  0  0  0  0
    2.0359    0.8147   -1.5679 C   0  0  0  0  0  0  0  0  0  0  0  0
    4.6902    3.0227   -0.2963 C   0  0  0  0  0  0  0  0  0  0  0  0
    6.0298    3.0699    0.1736 C   0  0  0  0  0  0  0  0  0  0  0  0
    6.5624    4.3301    0.6756 N   0  0  0  0  0  0  0  0  0  0  0  0
    5.5784    5.2111    1.4002 C   0  0  0  0  0  0  0  0  0  0  0  0
    4.9842    4.5613    2.6977 C   0  0  0  0  0  0  0  0  0  0  0  0
    4.1190    5.4967    3.4691 N   0  0  0  0  0  0  0  0  0  0  0  0
    3.3706    4.8347    4.5768 C   0  0  0  0  0  0  0  0  0  0  0  0
    4.3033    4.2553    5.6544 C   0  0  0  0  0  0  0  0  0  0  0  0
    2.4020    5.8185    5.2710 C   0  0  0  0  0  0  0  0  0  0  0  0
    7.9508    4.8366    0.6165 C   0  0  0  0  0  0  0  0  0  0  0  0
    8.3378    5.4737    1.7929 C   0  0  0  0  0  0  0  0  0  0  0  0
    9.4007    6.2964    1.8706 C   0  0  0  0  0  0  0  0  0  0  0  0
   10.2141    6.4864    0.8039 C   0  0  0  0  0  0  0  0  0  0  0  0
   11.1169    7.4539    0.9655 N   0  0  0  0  0  0  0  0  0  0  0  0
   12.0444    7.7078    0.0734 C   0  0  0  0  0  0  0  0  0  0  0  0
   12.2191    6.8748   -1.0316 C   0  0  0  0  0  0  0  0  0  0  0  0
   13.6597    6.9978   -1.5955 C   0  0  0  0  0  0  0  0  0  0  0  0
   14.6641    7.7624   -0.9431 C   0  0  0  0  0  0  0  0  0  0  0  0
   15.8415    7.5521   -1.4857 N   0  0  0  0  0  0  0  0  0  0  0  0
   15.6956    6.7074   -2.4659 N   0  0  0  0  0  0  0  0  0  0  0  0
   16.8616    6.1768   -3.1748 C   0  0  0  0  0  0  0  0  0  0  0  0
   14.3845    6.3617   -2.6166 C   0  0  0  0  0  0  0  0  0  0  0  0
   11.1924    5.9353   -1.3079 N   0  0  0  0  0  0  0  0  0  0  0  0
   10.1235    5.7602   -0.3944 C   0  0  0  0  0  0  0  0  0  0  0  0
    8.9096    4.8977   -0.5201 C   0  0  0  0  0  0  0  0  0  0  0  0
    6.7266    1.8380    0.2713 C   0  0  0  0  0  0  0  0  0  0  0  0
    4.2684   -0.2860   -0.8239 H   0  0  0  0  0  0  0  0  0  0  0  0
    1.0401    1.1701   -1.9034 H   0  0  0  0  0  0  0  0  0  0  0  0
    1.8906    0.0797   -0.7471 H   0  0  0  0  0  0  0  0  0  0  0  0
    2.5424    0.3268   -2.4283 H   0  0  0  0  0  0  0  0  0  0  0  0
    4.0941    3.9155   -0.3816 H   0  0  0  0  0  0  0  0  0  0  0  0
    4.7679    5.5429    0.7313 H   0  0  0  0  0  0  0  0  0  0  0  0
    6.0278    6.1813    1.6979 H   0  0  0  0  0  0  0  0  0  0  0  0
    5.8305    4.2524    3.3441 H   0  0  0  0  0  0  0  0  0  0  0  0
    4.4014    3.6599    2.4183 H   0  0  0  0  0  0  0  0  0  0  0  0
    3.4128    5.9063    2.8144 H   0  0  0  0  0  0  0  0  0  0  0  0
    2.7511    4.0097    4.1612 H   0  0  0  0  0  0  0  0  0  0  0  0
    4.9266    5.0561    6.1070 H   0  0  0  0  0  0  0  0  0  0  0  0
    4.9569    3.4645    5.2405 H   0  0  0  0  0  0  0  0  0  0  0  0
    3.7013    3.7816    6.4622 H   0  0  0  0  0  0  0  0  0  0  0  0
    2.9479    6.6626    5.7456 H   0  0  0  0  0  0  0  0  0  0  0  0
    1.8338    5.2912    6.0729 H   0  0  0  0  0  0  0  0  0  0  0  0
    1.6566    6.2253    4.5570 H   0  0  0  0  0  0  0  0  0  0  0  0
    7.7502    5.4125    2.6907 H   0  0  0  0  0  0  0  0  0  0  0  0
    9.5875    6.8329    2.7835 H   0  0  0  0  0  0  0  0  0  0  0  0
   12.6890    8.5047    0.3554 H   0  0  0  0  0  0  0  0  0  0  0  0
   14.6102    8.3910   -0.0676 H   0  0  0  0  0  0  0  0  0  0  0  0
   17.7949    6.5425   -2.6806 H   0  0  0  0  0  0  0  0  0  0  0  0
   16.8756    6.4918   -4.2356 H   0  0  0  0  0  0  0  0  0  0  0  0
   16.8667    5.0704   -3.0799 H   0  0  0  0  0  0  0  0  0  0  0  0
   14.0195    5.6580   -3.3425 H   0  0  0  0  0  0  0  0  0  0  0  0
    8.6917    4.3899   -1.4570 H   0  0  0  0  0  0  0  0  0  0  0  0
    7.7296    1.8119    0.6753 H   0  0  0  0  0  0  0  0  0  0  0  0
  1  2  1  0  0  0  0
  2  3  1  0  0  0  0
  2  4  1  0  0  0  0
  2  5  1  0  0  0  0
  5  6  1  0  0  0  0
  6  7  1  0  0  0  0
  6 36  2  0  0  0  0
  7  8  2  0  0  0  0
  7 37  1  0  0  0  0
  8  9  1  0  0  0  0
  8 11  1  0  0  0  0
  9 10  1  0  0  0  0
 10 38  1  0  0  0  0
 10 39  1  0  0  0  0
 10 40  1  0  0  0  0
 11 12  2  0  0  0  0
 11 41  1  0  0  0  0
 12 13  1  0  0  0  0
 12 36  1  0  0  0  0
 13 14  1  0  0  0  0
 13 20  1  0  0  0  0
 14 15  1  0  0  0  0
 14 42  1  0  0  0  0
 14 43  1  0  0  0  0
 15 16  1  0  0  0  0
 15 44  1  0  0  0  0
 15 45  1  0  0  0  0
 16 17  1  0  0  0  0
 16 46  1  0  0  0  0
 17 18  1  0  0  0  0
 17 19  1  0  0  0  0
 17 47  1  0  0  0  0
 18 48  1  0  0  0  0
 18 49  1  0  0  0  0
 18 50  1  0  0  0  0
 19 51  1  0  0  0  0
 19 52  1  0  0  0  0
 19 53  1  0  0  0  0
 20 21  1  0  0  0  0
 20 35  2  0  0  0  0
 21 22  2  0  0  0  0
 21 54  1  0  0  0  0
 22 23  1  0  0  0  0
 22 55  1  0  0  0  0
 23 24  1  0  0  0  0
 23 34  2  0  0  0  0
 24 25  2  0  0  0  0
 25 26  1  0  0  0  0
 25 56  1  0  0  0  0
 26 27  1  0  0  0  0
 26 33  2  0  0  0  0
 27 28  1  0  0  0  0
 27 32  2  0  0  0  0
 28 29  2  0  0  0  0
 28 57  1  0  0  0  0
 29 30  1  0  0  0  0
 30 31  1  0  0  0  0
 30 32  1  0  0  0  0
 31 58  1  0  0  0  0
 31 59  1  0  0  0  0
 31 60  1  0  0  0  0
 32 61  1  0  0  0  0
 33 34  1  0  0  0  0
 34 35  1  0  0  0  0
 35 62  1  0  0  0  0
 36 63  1  0  0  0  0
M  ISO  3   1   2   3   2   4   2
M  END
$$$$
