CHEMBL393596
 OpenBabel04072215373D

 78 83  0  0  0  0  0  0  0  0999 V2000
    1.4938   -0.2285    0.1045 C   0  0  0  0  0  0  0  0  0  0  0  0
    1.0302    0.9945   -0.3703 C   0  0  0  0  0  0  0  0  0  0  0  0
   -0.3404    1.2697   -0.3719 C   0  0  0  0  0  0  0  0  0  0  0  0
   -1.2735    0.2939    0.0122 C   0  0  0  0  0  0  0  0  0  0  0  0
   -2.7177    0.5209   -0.1017 C   0  0  0  0  0  0  0  0  0  0  0  0
   -3.3241    1.1282   -1.2024 C   0  0  0  0  0  0  0  0  0  0  0  0
   -2.8212    1.7174   -2.4396 C   0  0  0  0  0  0  0  0  0  0  0  0
   -1.7943    1.0678   -3.1294 C   0  0  0  0  0  0  0  0  0  0  0  0
   -1.0784    1.7259   -4.1246 C   0  0  0  0  0  0  0  0  0  0  0  0
   -1.4289    3.0210   -4.5122 C   0  0  0  0  0  0  0  0  0  0  0  0
   -0.7361    3.7647   -5.4371 O   0  0  0  0  0  0  0  0  0  0  0  0
    0.0490    2.9750   -6.3395 C   0  0  0  0  0  0  0  0  0  0  0  0
    0.7440    3.8547   -7.3868 C   0  0  0  0  0  0  0  0  0  0  0  0
    1.5599    3.0691   -8.3444 N   0  0  0  0  0  0  0  0  0  0  0  0
    0.7304    2.1543   -9.1464 C   0  0  0  0  0  0  0  0  0  0  0  0
    1.5641    1.3440  -10.1380 C   0  0  0  0  0  0  0  0  0  0  0  0
    2.3713    2.2570  -11.0467 C   0  0  0  0  0  0  0  0  0  0  0  0
    3.2038    3.2192  -10.2103 C   0  0  0  0  0  0  0  0  0  0  0  0
    2.3310    3.9796   -9.2087 C   0  0  0  0  0  0  0  0  0  0  0  0
   -2.5249    3.6360   -3.9057 C   0  0  0  0  0  0  0  0  0  0  0  0
   -3.2236    2.9872   -2.8757 C   0  0  0  0  0  0  0  0  0  0  0  0
   -4.6759    1.1251   -1.0682 O   0  0  0  0  0  0  0  0  0  0  0  0
   -4.9690    0.4870    0.0973 C   0  0  0  0  0  0  0  0  0  0  0  0
   -6.2380    0.2702    0.4869 N   0  0  0  0  0  0  0  0  0  0  0  0
   -6.3252   -0.3768    1.6626 C   0  0  0  0  0  0  0  0  0  0  0  0
   -5.2538   -0.7767    2.4458 C   0  0  0  0  0  0  0  0  0  0  0  0
   -3.9383   -0.5008    2.0359 C   0  0  0  0  0  0  0  0  0  0  0  0
   -2.8610   -0.7504    2.8936 N   0  0  0  0  0  0  0  0  0  0  0  0
   -2.7319   -2.0699    3.5192 C   0  0  0  0  0  0  0  0  0  0  0  0
   -1.6355   -1.9954    4.6098 C   0  0  0  0  0  0  0  0  0  0  0  0
   -1.4915   -3.1906    5.4655 N   0  0  0  0  0  0  0  0  0  0  0  0
   -0.4715   -2.9417    6.5139 C   0  0  0  0  0  0  0  0  0  0  0  0
    0.9918   -2.9508    6.0065 C   0  0  0  0  0  0  0  0  0  0  0  0
    1.3413   -4.1518    5.2256 N   0  0  0  0  0  0  0  0  0  0  0  0
    0.3380   -4.3813    4.1729 C   0  0  0  0  0  0  0  0  0  0  0  0
   -1.1062   -4.4052    4.7190 C   0  0  0  0  0  0  0  0  0  0  0  0
   -3.7973    0.1282    0.7690 C   0  0  0  0  0  0  0  0  0  0  0  0
   -0.7862   -0.9483    0.4437 C   0  0  0  0  0  0  0  0  0  0  0  0
    0.5868   -1.1931    0.5323 C   0  0  0  0  0  0  0  0  0  0  0  0
    2.5607   -0.4343    0.1334 H   0  0  0  0  0  0  0  0  0  0  0  0
    1.7313    1.7358   -0.7469 H   0  0  0  0  0  0  0  0  0  0  0  0
   -0.6655    2.2449   -0.7302 H   0  0  0  0  0  0  0  0  0  0  0  0
   -1.4754    0.0699   -2.8366 H   0  0  0  0  0  0  0  0  0  0  0  0
   -0.2186    1.2060   -4.5323 H   0  0  0  0  0  0  0  0  0  0  0  0
   -0.6283    2.2670   -6.8275 H   0  0  0  0  0  0  0  0  0  0  0  0
    0.8356    2.4381   -5.7967 H   0  0  0  0  0  0  0  0  0  0  0  0
    1.3956    4.5510   -6.8411 H   0  0  0  0  0  0  0  0  0  0  0  0
    0.0036    4.4773   -7.9048 H   0  0  0  0  0  0  0  0  0  0  0  0
   -0.0487    2.7104   -9.6830 H   0  0  0  0  0  0  0  0  0  0  0  0
    0.2297    1.4247   -8.5025 H   0  0  0  0  0  0  0  0  0  0  0  0
    0.9047    0.7068  -10.7378 H   0  0  0  0  0  0  0  0  0  0  0  0
    2.2413    0.6765   -9.5896 H   0  0  0  0  0  0  0  0  0  0  0  0
    1.6909    2.8225  -11.6956 H   0  0  0  0  0  0  0  0  0  0  0  0
    3.0200    1.6613  -11.6979 H   0  0  0  0  0  0  0  0  0  0  0  0
    3.7143    3.9308  -10.8668 H   0  0  0  0  0  0  0  0  0  0  0  0
    3.9800    2.6607   -9.6737 H   0  0  0  0  0  0  0  0  0  0  0  0
    1.6574    4.6613   -9.7563 H   0  0  0  0  0  0  0  0  0  0  0  0
    2.9908    4.5992   -8.5900 H   0  0  0  0  0  0  0  0  0  0  0  0
   -2.8242    4.6347   -4.2145 H   0  0  0  0  0  0  0  0  0  0  0  0
   -4.0484    3.4997   -2.3856 H   0  0  0  0  0  0  0  0  0  0  0  0
   -7.3411   -0.5679    2.0004 H   0  0  0  0  0  0  0  0  0  0  0  0
   -5.4519   -1.2460    3.4024 H   0  0  0  0  0  0  0  0  0  0  0  0
   -1.9805   -0.4136    2.5115 H   0  0  0  0  0  0  0  0  0  0  0  0
   -2.4580   -2.8063    2.7537 H   0  0  0  0  0  0  0  0  0  0  0  0
   -3.6681   -2.3977    3.9837 H   0  0  0  0  0  0  0  0  0  0  0  0
   -1.8953   -1.1469    5.2594 H   0  0  0  0  0  0  0  0  0  0  0  0
   -0.6880   -1.7256    4.1283 H   0  0  0  0  0  0  0  0  0  0  0  0
   -0.5784   -3.7228    7.2780 H   0  0  0  0  0  0  0  0  0  0  0  0
   -0.6785   -1.9955    7.0308 H   0  0  0  0  0  0  0  0  0  0  0  0
    1.6673   -2.8882    6.8679 H   0  0  0  0  0  0  0  0  0  0  0  0
    1.1878   -2.0605    5.3987 H   0  0  0  0  0  0  0  0  0  0  0  0
    1.3136   -4.9519    5.8587 H   0  0  0  0  0  0  0  0  0  0  0  0
    0.5551   -5.3416    3.6921 H   0  0  0  0  0  0  0  0  0  0  0  0
    0.4425   -3.6186    3.3923 H   0  0  0  0  0  0  0  0  0  0  0  0
   -1.2047   -5.2622    5.4005 H   0  0  0  0  0  0  0  0  0  0  0  0
   -1.8131   -4.6091    3.9072 H   0  0  0  0  0  0  0  0  0  0  0  0
   -1.4723   -1.7486    0.7085 H   0  0  0  0  0  0  0  0  0  0  0  0
    0.9488   -2.1449    0.9127 H   0  0  0  0  0  0  0  0  0  0  0  0
  1  2  1  0  0  0  0
  1 39  2  0  0  0  0
  1 40  1  0  0  0  0
  2  3  2  0  0  0  0
  2 41  1  0  0  0  0
  3  4  1  0  0  0  0
  3 42  1  0  0  0  0
  4  5  1  0  0  0  0
  4 38  2  0  0  0  0
  5  6  2  0  0  0  0
  5 37  1  0  0  0  0
  6  7  1  0  0  0  0
  6 22  1  0  0  0  0
  7  8  1  0  0  0  0
  7 21  2  0  0  0  0
  8  9  2  0  0  0  0
  8 43  1  0  0  0  0
  9 10  1  0  0  0  0
  9 44  1  0  0  0  0
 10 11  1  0  0  0  0
 10 20  2  0  0  0  0
 11 12  1  0  0  0  0
 12 13  1  0  0  0  0
 12 45  1  0  0  0  0
 12 46  1  0  0  0  0
 13 14  1  0  0  0  0
 13 47  1  0  0  0  0
 13 48  1  0  0  0  0
 14 15  1  0  0  0  0
 14 19  1  0  0  0  0
 15 16  1  0  0  0  0
 15 49  1  0  0  0  0
 15 50  1  0  0  0  0
 16 17  1  0  0  0  0
 16 51  1  0  0  0  0
 16 52  1  0  0  0  0
 17 18  1  0  0  0  0
 17 53  1  0  0  0  0
 17 54  1  0  0  0  0
 18 19  1  0  0  0  0
 18 55  1  0  0  0  0
 18 56  1  0  0  0  0
 19 57  1  0  0  0  0
 19 58  1  0  0  0  0
 20 21  1  0  0  0  0
 20 59  1  0  0  0  0
 21 60  1  0  0  0  0
 22 23  1  0  0  0  0
 23 24  1  0  0  0  0
 23 37  2  0  0  0  0
 24 25  2  0  0  0  0
 25 26  1  0  0  0  0
 25 61  1  0  0  0  0
 26 27  2  0  0  0  0
 26 62  1  0  0  0  0
 27 28  1  0  0  0  0
 27 37  1  0  0  0  0
 28 29  1  0  0  0  0
 28 63  1  0  0  0  0
 29 30  1  0  0  0  0
 29 64  1  0  0  0  0
 29 65  1  0  0  0  0
 30 31  1  0  0  0  0
 30 66  1  0  0  0  0
 30 67  1  0  0  0  0
 31 32  1  0  0  0  0
 31 36  1  0  0  0  0
 32 33  1  0  0  0  0
 32 68  1  0  0  0  0
 32 69  1  0  0  0  0
 33 34  1  0  0  0  0
 33 70  1  0  0  0  0
 33 71  1  0  0  0  0
 34 35  1  0  0  0  0
 34 72  1  0  0  0  0
 35 36  1  0  0  0  0
 35 73  1  0  0  0  0
 35 74  1  0  0  0  0
 36 75  1  0  0  0  0
 36 76  1  0  0  0  0
 38 39  1  0  0  0  0
 38 77  1  0  0  0  0
 39 78  1  0  0  0  0
M  END
$$$$
