CHEMBL3971947
 OpenBabel04072215373D

 66 70  0  0  0  0  0  0  0  0999 V2000
    2.3894    1.3293    0.2849 C   0  0  0  0  0  0  0  0  0  0  0  0
    2.1826   -0.0566    0.4476 O   0  0  0  0  0  0  0  0  0  0  0  0
    3.0064   -0.7569    1.2801 C   0  0  0  0  0  0  0  0  0  0  0  0
    2.7088   -2.1061    1.2482 C   0  0  0  0  0  0  0  0  0  0  0  0
    3.5603   -3.0066    1.8562 C   0  0  0  0  0  0  0  0  0  0  0  0
    3.3508   -4.3565    1.8698 O   0  0  0  0  0  0  0  0  0  0  0  0
    1.9712   -4.7070    1.8867 C   0  0  0  0  0  0  0  0  0  0  0  0
    4.7762   -2.5621    2.3715 C   0  0  0  0  0  0  0  0  0  0  0  0
    5.1626   -1.2247    2.3112 C   0  0  0  0  0  0  0  0  0  0  0  0
    6.5411   -0.8853    2.4886 N   0  0  0  0  0  0  0  0  0  0  0  0
    6.9399    0.5365    1.9975 C   0  0  0  0  0  0  0  0  0  0  0  0
    6.9236    0.6967    0.4726 C   0  0  0  0  0  0  0  0  0  0  0  0
    7.6040   -0.2223   -0.3101 C   0  0  0  0  0  0  0  0  0  0  0  0
    7.2907   -0.2879   -1.6534 C   0  0  0  0  0  0  0  0  0  0  0  0
    6.4652    0.6722   -2.2078 C   0  0  0  0  0  0  0  0  0  0  0  0
    6.0102    1.7303   -1.4335 C   0  0  0  0  0  0  0  0  0  0  0  0
    5.3467    2.7936   -2.0191 N   0  0  0  0  0  0  0  0  0  0  0  0
    5.5507    4.1109   -1.4412 C   0  0  0  0  0  0  0  0  0  0  0  0
    4.7485    2.7139   -3.3427 C   0  0  0  0  0  0  0  0  0  0  0  0
    6.2043    1.7169   -0.0857 N   0  0  0  0  0  0  0  0  0  0  0  0
    7.6742   -1.7129    2.8882 C   0  0  0  0  0  0  0  0  0  0  0  0
    8.5231   -1.0638    3.7506 C   0  0  0  0  0  0  0  0  0  0  0  0
    9.6823   -1.6733    4.0328 C   0  0  0  0  0  0  0  0  0  0  0  0
   10.1339   -2.8331    3.4597 C   0  0  0  0  0  0  0  0  0  0  0  0
   11.3377   -2.6135    3.2531 N   0  0  0  0  0  0  0  0  0  0  0  0
   12.0500   -3.2905    4.0890 C   0  0  0  0  0  0  0  0  0  0  0  0
   12.1079   -4.6226    3.9595 C   0  0  0  0  0  0  0  0  0  0  0  0
   13.7296   -4.8718    4.3224 C   0  0  0  0  0  0  0  0  0  0  0  0
   14.7451   -3.7561    4.1892 C   0  0  0  0  0  0  0  0  0  0  0  0
   15.8431   -3.8178    4.9479 N   0  0  0  0  0  0  0  0  0  0  0  0
   15.6944   -4.9510    5.6402 N   0  0  0  0  0  0  0  0  0  0  0  0
   16.7479   -5.2930    6.6094 C   0  0  0  0  0  0  0  0  0  0  0  0
   14.4383   -5.5725    5.3454 C   0  0  0  0  0  0  0  0  0  0  0  0
   10.8623   -5.0189    3.2672 N   0  0  0  0  0  0  0  0  0  0  0  0
    9.5535   -3.9561    2.9843 C   0  0  0  0  0  0  0  0  0  0  0  0
    8.1038   -3.1541    2.5809 C   0  0  0  0  0  0  0  0  0  0  0  0
    4.1306   -0.3073    1.9874 C   0  0  0  0  0  0  0  0  0  0  0  0
    2.1815    1.5983   -0.7571 H   0  0  0  0  0  0  0  0  0  0  0  0
    3.3979    1.6706    0.5155 H   0  0  0  0  0  0  0  0  0  0  0  0
    1.6515    1.8181    0.9205 H   0  0  0  0  0  0  0  0  0  0  0  0
    1.8258   -2.4165    0.7002 H   0  0  0  0  0  0  0  0  0  0  0  0
    1.9050   -5.7923    1.9662 H   0  0  0  0  0  0  0  0  0  0  0  0
    1.4621   -4.4217    0.9600 H   0  0  0  0  0  0  0  0  0  0  0  0
    1.4793   -4.2579    2.7567 H   0  0  0  0  0  0  0  0  0  0  0  0
    5.4429   -3.2970    2.7942 H   0  0  0  0  0  0  0  0  0  0  0  0
    7.9573    0.8186    2.3005 H   0  0  0  0  0  0  0  0  0  0  0  0
    6.3076    1.3122    2.4579 H   0  0  0  0  0  0  0  0  0  0  0  0
    8.3002   -0.9287    0.1224 H   0  0  0  0  0  0  0  0  0  0  0  0
    7.6513   -1.0903   -2.2848 H   0  0  0  0  0  0  0  0  0  0  0  0
    6.2449    0.5869   -3.2625 H   0  0  0  0  0  0  0  0  0  0  0  0
    6.1226    4.1068   -0.5068 H   0  0  0  0  0  0  0  0  0  0  0  0
    4.5789    4.5674   -1.2361 H   0  0  0  0  0  0  0  0  0  0  0  0
    6.0975    4.7596   -2.1380 H   0  0  0  0  0  0  0  0  0  0  0  0
    4.6722    1.6981   -3.7428 H   0  0  0  0  0  0  0  0  0  0  0  0
    5.3006    3.3135   -4.0756 H   0  0  0  0  0  0  0  0  0  0  0  0
    3.7180    3.0747   -3.2894 H   0  0  0  0  0  0  0  0  0  0  0  0
    8.4192   -0.0592    4.1350 H   0  0  0  0  0  0  0  0  0  0  0  0
   10.4616   -1.1310    4.5695 H   0  0  0  0  0  0  0  0  0  0  0  0
   12.6748   -2.7020    4.7049 H   0  0  0  0  0  0  0  0  0  0  0  0
   14.6442   -2.8173    3.6458 H   0  0  0  0  0  0  0  0  0  0  0  0
   17.6194   -4.6139    6.5321 H   0  0  0  0  0  0  0  0  0  0  0  0
   17.1159   -6.3045    6.4215 H   0  0  0  0  0  0  0  0  0  0  0  0
   16.3750   -5.2080    7.6357 H   0  0  0  0  0  0  0  0  0  0  0  0
   14.2137   -6.4336    5.9493 H   0  0  0  0  0  0  0  0  0  0  0  0
    7.3992   -3.6789    1.9072 H   0  0  0  0  0  0  0  0  0  0  0  0
    4.2045    0.7489    2.2356 H   0  0  0  0  0  0  0  0  0  0  0  0
  1  2  1  0  0  0  0
  1 38  1  0  0  0  0
  1 39  1  0  0  0  0
  1 40  1  0  0  0  0
  2  3  1  0  0  0  0
  3  4  1  0  0  0  0
  3 37  2  0  0  0  0
  4  5  2  0  0  0  0
  4 41  1  0  0  0  0
  5  6  1  0  0  0  0
  5  8  1  0  0  0  0
  6  7  1  0  0  0  0
  7 42  1  0  0  0  0
  7 43  1  0  0  0  0
  7 44  1  0  0  0  0
  8  9  2  0  0  0  0
  8 45  1  0  0  0  0
  9 10  1  0  0  0  0
  9 37  1  0  0  0  0
 10 11  1  0  0  0  0
 10 21  1  0  0  0  0
 11 12  1  0  0  0  0
 11 46  1  0  0  0  0
 11 47  1  0  0  0  0
 12 13  1  0  0  0  0
 12 20  2  0  0  0  0
 13 14  2  0  0  0  0
 13 48  1  0  0  0  0
 14 15  1  0  0  0  0
 14 49  1  0  0  0  0
 15 16  2  0  0  0  0
 15 50  1  0  0  0  0
 16 17  1  0  0  0  0
 16 20  1  0  0  0  0
 17 18  1  0  0  0  0
 17 19  1  0  0  0  0
 18 51  1  0  0  0  0
 18 52  1  0  0  0  0
 18 53  1  0  0  0  0
 19 54  1  0  0  0  0
 19 55  1  0  0  0  0
 19 56  1  0  0  0  0
 21 22  1  0  0  0  0
 21 36  2  0  0  0  0
 22 23  2  0  0  0  0
 22 57  1  0  0  0  0
 23 24  1  0  0  0  0
 23 58  1  0  0  0  0
 24 25  1  0  0  0  0
 24 35  2  0  0  0  0
 25 26  2  0  0  0  0
 26 27  1  0  0  0  0
 26 59  1  0  0  0  0
 27 28  1  0  0  0  0
 27 34  2  0  0  0  0
 28 29  1  0  0  0  0
 28 33  2  0  0  0  0
 29 30  2  0  0  0  0
 29 60  1  0  0  0  0
 30 31  1  0  0  0  0
 31 32  1  0  0  0  0
 31 33  1  0  0  0  0
 32 61  1  0  0  0  0
 32 62  1  0  0  0  0
 32 63  1  0  0  0  0
 33 64  1  0  0  0  0
 34 35  1  0  0  0  0
 35 36  1  0  0  0  0
 36 65  1  0  0  0  0
 37 66  1  0  0  0  0
M  END
$$$$
