CHEMBL2018750
 OpenBabel04072215363D

 50 52  0  0  0  0  0  0  0  0999 V2000
    5.1216   -1.5966    7.0565 C   0  0  0  0  0  0  0  0  0  0  0  0
    5.3976   -2.9894    6.8778 O   0  0  0  0  0  0  0  0  0  0  0  0
    5.3754   -3.4375    5.5825 C   0  0  0  0  0  0  0  0  0  0  0  0
    5.6641   -2.5761    4.5056 C   0  0  0  0  0  0  0  0  0  0  0  0
    5.5244   -2.9582    3.1797 C   0  0  0  0  0  0  0  0  0  0  0  0
    5.7360   -2.0480    2.2227 N   0  0  0  0  0  0  0  0  0  0  0  0
    5.5056   -2.4387    0.9667 C   0  0  0  0  0  0  0  0  0  0  0  0
    5.0814   -3.6442    0.5869 N   0  0  0  0  0  0  0  0  0  0  0  0
    4.8889   -4.5584    1.5550 C   0  0  0  0  0  0  0  0  0  0  0  0
    4.3765   -5.8347    1.2065 N   0  0  0  0  0  0  0  0  0  0  0  0
    3.7631   -6.1570   -0.0201 C   0  0  0  0  0  0  0  0  0  0  0  0
    3.9618   -7.4152   -0.5835 C   0  0  0  0  0  0  0  0  0  0  0  0
    3.4349   -7.7182   -1.8404 C   0  0  0  0  0  0  0  0  0  0  0  0
    2.6837   -6.7806   -2.5565 C   0  0  0  0  0  0  0  0  0  0  0  0
    2.2328   -6.9919   -3.8743 N   0  0  0  0  0  0  0  0  0  0  0  0
    2.5320   -8.0683   -4.6640 C   0  0  0  0  0  0  0  0  0  0  0  0
    3.1977   -9.0471   -4.3565 O   0  0  0  0  0  0  0  0  0  0  0  0
    1.9669   -7.9100   -5.9004 O   0  0  0  0  0  0  0  0  0  0  0  0
    2.1791   -9.0332   -6.7769 C   0  0  0  0  0  0  0  0  0  0  0  0
    1.1661  -10.1270   -6.4508 C   0  0  0  0  0  0  0  0  0  0  0  0
    2.0276   -8.5707   -8.2195 C   0  0  0  0  0  0  0  0  0  0  0  0
    2.3874   -5.5615   -1.9452 C   0  0  0  0  0  0  0  0  0  0  0  0
    2.9152   -5.2611   -0.6845 C   0  0  0  0  0  0  0  0  0  0  0  0
    5.1268   -4.2647    2.9076 C   0  0  0  0  0  0  0  0  0  0  0  0
    4.9427   -5.1698    3.9749 C   0  0  0  0  0  0  0  0  0  0  0  0
    5.0570   -4.7713    5.3115 C   0  0  0  0  0  0  0  0  0  0  0  0
    4.7756   -5.8081    6.1515 O   0  0  0  0  0  0  0  0  0  0  0  0
    4.7882   -5.6371    7.5559 C   0  0  0  0  0  0  0  0  0  0  0  0
    4.6873   -1.4580    8.0507 H   0  0  0  0  0  0  0  0  0  0  0  0
    4.3933   -1.2076    6.3335 H   0  0  0  0  0  0  0  0  0  0  0  0
    6.0536   -1.0240    7.0068 H   0  0  0  0  0  0  0  0  0  0  0  0
    5.9787   -1.5508    4.6829 H   0  0  0  0  0  0  0  0  0  0  0  0
    5.6623   -1.7076    0.1822 H   0  0  0  0  0  0  0  0  0  0  0  0
    5.0097   -6.5565    1.5303 H   0  0  0  0  0  0  0  0  0  0  0  0
    4.5611   -8.1667   -0.0775 H   0  0  0  0  0  0  0  0  0  0  0  0
    3.6548   -8.7025   -2.2377 H   0  0  0  0  0  0  0  0  0  0  0  0
    1.7005   -6.2641   -4.3262 H   0  0  0  0  0  0  0  0  0  0  0  0
    3.2013   -9.4163   -6.6648 H   0  0  0  0  0  0  0  0  0  0  0  0
    0.1414   -9.7556   -6.5642 H   0  0  0  0  0  0  0  0  0  0  0  0
    1.2627  -10.4589   -5.4116 H   0  0  0  0  0  0  0  0  0  0  0  0
    1.3023  -10.9961   -7.0996 H   0  0  0  0  0  0  0  0  0  0  0  0
    1.0339   -8.1499   -8.4018 H   0  0  0  0  0  0  0  0  0  0  0  0
    2.1894   -9.4043   -8.9115 H   0  0  0  0  0  0  0  0  0  0  0  0
    2.7568   -7.7866   -8.4489 H   0  0  0  0  0  0  0  0  0  0  0  0
    1.7749   -4.8142   -2.4404 H   0  0  0  0  0  0  0  0  0  0  0  0
    2.6820   -4.3005   -0.2316 H   0  0  0  0  0  0  0  0  0  0  0  0
    4.6592   -6.2010    3.7743 H   0  0  0  0  0  0  0  0  0  0  0  0
    4.2791   -6.5100    7.9810 H   0  0  0  0  0  0  0  0  0  0  0  0
    4.2252   -4.7620    7.8846 H   0  0  0  0  0  0  0  0  0  0  0  0
    5.8138   -5.6372    7.9354 H   0  0  0  0  0  0  0  0  0  0  0  0
  1  2  1  0  0  0  0
  1 29  1  0  0  0  0
  1 30  1  0  0  0  0
  1 31  1  0  0  0  0
  2  3  1  0  0  0  0
  3  4  1  0  0  0  0
  3 26  2  0  0  0  0
  4  5  2  0  0  0  0
  4 32  1  0  0  0  0
  5  6  1  0  0  0  0
  5 24  1  0  0  0  0
  6  7  2  0  0  0  0
  7  8  1  0  0  0  0
  7 33  1  0  0  0  0
  8  9  2  0  0  0  0
  9 10  1  0  0  0  0
  9 24  1  0  0  0  0
 10 11  1  0  0  0  0
 10 34  1  0  0  0  0
 11 12  1  0  0  0  0
 11 23  2  0  0  0  0
 12 13  2  0  0  0  0
 12 35  1  0  0  0  0
 13 14  1  0  0  0  0
 13 36  1  0  0  0  0
 14 15  1  0  0  0  0
 14 22  2  0  0  0  0
 15 16  1  0  0  0  0
 15 37  1  0  0  0  0
 16 17  2  0  0  0  0
 16 18  1  0  0  0  0
 18 19  1  0  0  0  0
 19 20  1  0  0  0  0
 19 21  1  0  0  0  0
 19 38  1  0  0  0  0
 20 39  1  0  0  0  0
 20 40  1  0  0  0  0
 20 41  1  0  0  0  0
 21 42  1  0  0  0  0
 21 43  1  0  0  0  0
 21 44  1  0  0  0  0
 22 23  1  0  0  0  0
 22 45  1  0  0  0  0
 23 46  1  0  0  0  0
 24 25  2  0  0  0  0
 25 26  1  0  0  0  0
 25 47  1  0  0  0  0
 26 27  1  0  0  0  0
 27 28  1  0  0  0  0
 28 48  1  0  0  0  0
 28 49  1  0  0  0  0
 28 50  1  0  0  0  0
M  END
$$$$
