CHEMBL3972255
 OpenBabel04072215373D

 77 80  0  0  0  0  0  0  0  0999 V2000
    6.7895    0.1879   -5.1152 C   0  0  0  0  0  0  0  0  0  0  0  0
    6.2981   -1.0183   -5.7035 O   0  0  0  0  0  0  0  0  0  0  0  0
    5.0801   -1.4343   -5.2581 C   0  0  0  0  0  0  0  0  0  0  0  0
    4.4110   -0.8764   -4.3957 O   0  0  0  0  0  0  0  0  0  0  0  0
    4.6393   -2.6937   -5.9969 C   0  0  0  0  0  0  0  0  0  0  0  0
    5.0774   -3.9421   -5.3264 N   0  0  0  0  0  0  0  0  0  0  0  0
    4.5560   -4.0795   -3.9503 C   0  0  0  0  0  0  0  0  0  0  0  0
    3.0274   -4.1312   -3.8204 C   0  0  0  0  0  0  0  0  0  0  0  0
    2.5860   -4.2776   -2.3694 C   0  0  0  0  0  0  0  0  0  0  0  0
    1.1409   -4.3205   -2.2840 N   0  0  0  0  0  0  0  0  0  0  0  0
    0.4222   -5.4809   -2.4903 C   0  0  0  0  0  0  0  0  0  0  0  0
    0.9805   -6.5617   -2.6638 O   0  0  0  0  0  0  0  0  0  0  0  0
   -1.0261   -5.3291   -2.5050 C   0  0  0  0  0  0  0  0  0  0  0  0
   -1.9543   -6.3485   -2.5848 C   0  0  0  0  0  0  0  0  0  0  0  0
   -3.2956   -5.8767   -2.5773 C   0  0  0  0  0  0  0  0  0  0  0  0
   -4.3942   -6.6765   -2.6389 N   0  0  0  0  0  0  0  0  0  0  0  0
   -5.5795   -6.0460   -2.6006 C   0  0  0  0  0  0  0  0  0  0  0  0
   -5.7487   -4.6779   -2.5229 C   0  0  0  0  0  0  0  0  0  0  0  0
   -4.6217   -3.8503   -2.5365 C   0  0  0  0  0  0  0  0  0  0  0  0
   -4.7092   -2.4662   -2.5451 O   0  0  0  0  0  0  0  0  0  0  0  0
   -5.6326   -1.8783   -3.3867 C   0  0  0  0  0  0  0  0  0  0  0  0
   -6.0697   -2.4742   -4.5697 C   0  0  0  0  0  0  0  0  0  0  0  0
   -7.1033   -1.9032   -5.3050 C   0  0  0  0  0  0  0  0  0  0  0  0
   -7.6858   -0.6966   -4.9107 C   0  0  0  0  0  0  0  0  0  0  0  0
   -8.7924   -0.1439   -5.6168 N   0  0  0  0  0  0  0  0  0  0  0  0
   -9.6865   -0.9331   -6.3077 C   0  0  0  0  0  0  0  0  0  0  0  0
   -9.6833   -2.1649   -6.2703 O   0  0  0  0  0  0  0  0  0  0  0  0
  -10.5801   -0.2076   -7.0838 N   0  0  0  0  0  0  0  0  0  0  0  0
  -11.4711   -0.9503   -7.9107 C   0  0  0  0  0  0  0  0  0  0  0  0
  -12.2430   -1.9926   -7.3791 C   0  0  0  0  0  0  0  0  0  0  0  0
  -12.9312   -2.8753   -8.2209 C   0  0  0  0  0  0  0  0  0  0  0  0
  -13.6774   -4.0444   -7.6470 C   0  0  0  0  0  0  0  0  0  0  0  0
  -12.8479   -2.6956   -9.6075 C   0  0  0  0  0  0  0  0  0  0  0  0
  -12.1342   -1.6172  -10.1392 C   0  0  0  0  0  0  0  0  0  0  0  0
  -11.4698   -0.7388   -9.2879 C   0  0  0  0  0  0  0  0  0  0  0  0
  -10.7357    0.2558   -9.8103 F   0  0  0  0  0  0  0  0  0  0  0  0
   -7.1479   -0.0382   -3.8009 C   0  0  0  0  0  0  0  0  0  0  0  0
   -7.6451    1.1512   -3.4280 F   0  0  0  0  0  0  0  0  0  0  0  0
   -6.1333   -0.6232   -3.0323 C   0  0  0  0  0  0  0  0  0  0  0  0
   -3.3673   -4.4852   -2.5174 C   0  0  0  0  0  0  0  0  0  0  0  0
   -1.7926   -3.8003   -2.4461 S   0  0  0  0  0  0  0  0  0  0  0  0
    4.7218   -5.1340   -6.1419 C   0  0  0  0  0  0  0  0  0  0  0  0
    5.3989   -5.1539   -7.5126 C   0  0  0  0  0  0  0  0  0  0  0  0
    6.4849   -4.6730   -7.7947 O   0  0  0  0  0  0  0  0  0  0  0  0
    4.5844   -5.8088   -8.3975 O   0  0  0  0  0  0  0  0  0  0  0  0
    5.0832   -5.8423   -9.7334 C   0  0  0  0  0  0  0  0  0  0  0  0
    7.8797    0.1853   -5.2019 H   0  0  0  0  0  0  0  0  0  0  0  0
    6.5321    0.2723   -4.0549 H   0  0  0  0  0  0  0  0  0  0  0  0
    6.3988    1.0444   -5.6724 H   0  0  0  0  0  0  0  0  0  0  0  0
    5.0556   -2.6208   -7.0086 H   0  0  0  0  0  0  0  0  0  0  0  0
    3.5508   -2.6504   -6.1269 H   0  0  0  0  0  0  0  0  0  0  0  0
    4.9489   -3.2654   -3.3297 H   0  0  0  0  0  0  0  0  0  0  0  0
    4.9841   -4.9898   -3.5090 H   0  0  0  0  0  0  0  0  0  0  0  0
    2.6265   -4.9732   -4.3954 H   0  0  0  0  0  0  0  0  0  0  0  0
    2.5741   -3.2237   -4.2328 H   0  0  0  0  0  0  0  0  0  0  0  0
    2.9198   -3.4235   -1.7720 H   0  0  0  0  0  0  0  0  0  0  0  0
    2.9979   -5.1925   -1.9302 H   0  0  0  0  0  0  0  0  0  0  0  0
    0.6295   -3.4483   -2.2405 H   0  0  0  0  0  0  0  0  0  0  0  0
   -1.6835   -7.3962   -2.6424 H   0  0  0  0  0  0  0  0  0  0  0  0
   -6.4447   -6.7030   -2.6521 H   0  0  0  0  0  0  0  0  0  0  0  0
   -6.7526   -4.2660   -2.5015 H   0  0  0  0  0  0  0  0  0  0  0  0
   -5.6542   -3.4140   -4.9239 H   0  0  0  0  0  0  0  0  0  0  0  0
   -7.4444   -2.4418   -6.1857 H   0  0  0  0  0  0  0  0  0  0  0  0
   -9.1273    0.7597   -5.3043 H   0  0  0  0  0  0  0  0  0  0  0  0
  -10.1573    0.5967   -7.5327 H   0  0  0  0  0  0  0  0  0  0  0  0
  -12.2586   -2.1536   -6.3028 H   0  0  0  0  0  0  0  0  0  0  0  0
  -13.7518   -3.9756   -6.5561 H   0  0  0  0  0  0  0  0  0  0  0  0
  -13.1620   -4.9787   -7.8917 H   0  0  0  0  0  0  0  0  0  0  0  0
  -14.6960   -4.0777   -8.0457 H   0  0  0  0  0  0  0  0  0  0  0  0
  -13.3244   -3.4071  -10.2791 H   0  0  0  0  0  0  0  0  0  0  0  0
  -12.0563   -1.4863  -11.2136 H   0  0  0  0  0  0  0  0  0  0  0  0
   -5.7629   -0.1079   -2.1508 H   0  0  0  0  0  0  0  0  0  0  0  0
    3.6372   -5.1742   -6.2998 H   0  0  0  0  0  0  0  0  0  0  0  0
    5.0357   -6.0519   -5.6318 H   0  0  0  0  0  0  0  0  0  0  0  0
    4.3096   -6.2811  -10.3702 H   0  0  0  0  0  0  0  0  0  0  0  0
    5.9778   -6.4679   -9.7873 H   0  0  0  0  0  0  0  0  0  0  0  0
    5.2912   -4.8305  -10.0952 H   0  0  0  0  0  0  0  0  0  0  0  0
  1  2  1  0  0  0  0
  1 47  1  0  0  0  0
  1 48  1  0  0  0  0
  1 49  1  0  0  0  0
  2  3  1  0  0  0  0
  3  4  2  0  0  0  0
  3  5  1  0  0  0  0
  5  6  1  0  0  0  0
  5 50  1  0  0  0  0
  5 51  1  0  0  0  0
  6  7  1  0  0  0  0
  6 42  1  0  0  0  0
  7  8  1  0  0  0  0
  7 52  1  0  0  0  0
  7 53  1  0  0  0  0
  8  9  1  0  0  0  0
  8 54  1  0  0  0  0
  8 55  1  0  0  0  0
  9 10  1  0  0  0  0
  9 56  1  0  0  0  0
  9 57  1  0  0  0  0
 10 11  1  0  0  0  0
 10 58  1  0  0  0  0
 11 12  2  0  0  0  0
 11 13  1  0  0  0  0
 13 14  2  0  0  0  0
 13 41  1  0  0  0  0
 14 15  1  0  0  0  0
 14 59  1  0  0  0  0
 15 16  1  0  0  0  0
 15 40  2  0  0  0  0
 16 17  2  0  0  0  0
 17 18  1  0  0  0  0
 17 60  1  0  0  0  0
 18 19  2  0  0  0  0
 18 61  1  0  0  0  0
 19 20  1  0  0  0  0
 19 40  1  0  0  0  0
 20 21  1  0  0  0  0
 21 22  1  0  0  0  0
 21 39  2  0  0  0  0
 22 23  2  0  0  0  0
 22 62  1  0  0  0  0
 23 24  1  0  0  0  0
 23 63  1  0  0  0  0
 24 25  1  0  0  0  0
 24 37  2  0  0  0  0
 25 26  1  0  0  0  0
 25 64  1  0  0  0  0
 26 27  2  0  0  0  0
 26 28  1  0  0  0  0
 28 29  1  0  0  0  0
 28 65  1  0  0  0  0
 29 30  1  0  0  0  0
 29 35  2  0  0  0  0
 30 31  2  0  0  0  0
 30 66  1  0  0  0  0
 31 32  1  0  0  0  0
 31 33  1  0  0  0  0
 32 67  1  0  0  0  0
 32 68  1  0  0  0  0
 32 69  1  0  0  0  0
 33 34  2  0  0  0  0
 33 70  1  0  0  0  0
 34 35  1  0  0  0  0
 34 71  1  0  0  0  0
 35 36  1  0  0  0  0
 37 38  1  0  0  0  0
 37 39  1  0  0  0  0
 39 72  1  0  0  0  0
 40 41  1  0  0  0  0
 42 43  1  0  0  0  0
 42 73  1  0  0  0  0
 42 74  1  0  0  0  0
 43 44  2  0  0  0  0
 43 45  1  0  0  0  0
 45 46  1  0  0  0  0
 46 75  1  0  0  0  0
 46 76  1  0  0  0  0
 46 77  1  0  0  0  0
M  END
$$$$
