CHEMBL1984402
 OpenBabel04072215363D

 31 32  0  0  0  0  0  0  0  0999 V2000
    2.9598   -1.2009    0.9321 C   0  0  0  0  0  0  0  0  0  0  0  0
    2.3972   -0.2098   -0.0621 C   0  0  0  0  0  0  0  0  0  0  0  0
    1.1786   -0.1366   -0.2197 O   0  0  0  0  0  0  0  0  0  0  0  0
    3.3240    0.6802   -0.8312 C   0  0  0  0  0  0  0  0  0  0  0  0
    3.0349    2.1238   -1.1540 C   0  0  0  0  0  0  0  0  0  0  0  0
    1.8070    2.7890   -0.6042 C   0  0  0  0  0  0  0  0  0  0  0  0
    1.3527    2.5955    0.7047 C   0  0  0  0  0  0  0  0  0  0  0  0
    0.1339    3.1488    1.1158 C   0  0  0  0  0  0  0  0  0  0  0  0
   -0.6066    3.9470    0.2450 C   0  0  0  0  0  0  0  0  0  0  0  0
   -0.1144    4.2264   -1.0270 C   0  0  0  0  0  0  0  0  0  0  0  0
    1.0877    3.6514   -1.4497 C   0  0  0  0  0  0  0  0  0  0  0  0
    3.7763    2.8521   -1.9380 N   0  0  0  0  0  0  0  0  0  0  0  0
    4.8754    2.2869   -2.5095 N   0  0  0  0  0  0  0  0  0  0  0  0
    5.6544    3.1204   -3.4017 C   0  0  0  0  0  0  0  0  0  0  0  0
    5.2678    0.9852   -2.3099 C   0  0  0  0  0  0  0  0  0  0  0  0
    6.2810    0.4814   -2.8023 O   0  0  0  0  0  0  0  0  0  0  0  0
    4.3978    0.1242   -1.4257 C   0  0  0  0  0  0  0  0  0  0  0  0
    4.8079   -1.2174   -1.3902 N   0  0  0  0  0  0  0  0  0  0  0  0
    2.2952   -1.2673    1.7967 H   0  0  0  0  0  0  0  0  0  0  0  0
    3.9389   -0.8831    1.3016 H   0  0  0  0  0  0  0  0  0  0  0  0
    3.0281   -2.1875    0.4626 H   0  0  0  0  0  0  0  0  0  0  0  0
    1.9124    1.9987    1.4161 H   0  0  0  0  0  0  0  0  0  0  0  0
   -0.2505    2.9337    2.1098 H   0  0  0  0  0  0  0  0  0  0  0  0
   -1.5671    4.3493    0.5577 H   0  0  0  0  0  0  0  0  0  0  0  0
   -0.6750    4.8714   -1.6991 H   0  0  0  0  0  0  0  0  0  0  0  0
    1.4482    3.8657   -2.4531 H   0  0  0  0  0  0  0  0  0  0  0  0
    5.1954    4.1064   -3.5190 H   0  0  0  0  0  0  0  0  0  0  0  0
    5.7233    2.6307   -4.3789 H   0  0  0  0  0  0  0  0  0  0  0  0
    6.6631    3.2263   -2.9926 H   0  0  0  0  0  0  0  0  0  0  0  0
    5.6831   -1.2977   -1.9268 H   0  0  0  0  0  0  0  0  0  0  0  0
    4.9892   -1.5571   -0.4500 H   0  0  0  0  0  0  0  0  0  0  0  0
  1  2  1  0  0  0  0
  1 19  1  0  0  0  0
  1 20  1  0  0  0  0
  1 21  1  0  0  0  0
  2  3  2  0  0  0  0
  2  4  1  0  0  0  0
  4  5  1  0  0  0  0
  4 17  2  0  0  0  0
  5  6  1  0  0  0  0
  5 12  2  0  0  0  0
  6  7  1  0  0  0  0
  6 11  2  0  0  0  0
  7  8  2  0  0  0  0
  7 22  1  0  0  0  0
  8  9  1  0  0  0  0
  8 23  1  0  0  0  0
  9 10  2  0  0  0  0
  9 24  1  0  0  0  0
 10 11  1  0  0  0  0
 10 25  1  0  0  0  0
 11 26  1  0  0  0  0
 12 13  1  0  0  0  0
 13 14  1  0  0  0  0
 13 15  1  0  0  0  0
 14 27  1  0  0  0  0
 14 28  1  0  0  0  0
 14 29  1  0  0  0  0
 15 16  2  0  0  0  0
 15 17  1  0  0  0  0
 17 18  1  0  0  0  0
 18 30  1  0  0  0  0
 18 31  1  0  0  0  0
M  END
$$$$
