CHEMBL1079850
 OpenBabel04072215353D

 57 61  0  0  0  0  0  0  0  0999 V2000
    1.2032   -0.1256   -0.5779 O   0  0  0  0  0  0  0  0  0  0  0  0
    2.3024    0.0434   -0.0618 C   0  0  0  0  0  0  0  0  0  0  0  0
    2.8712   -0.8287    0.8542 N   0  0  0  0  0  0  0  0  0  0  0  0
    2.2789   -2.0337    1.3111 C   0  0  0  0  0  0  0  0  0  0  0  0
    1.1552   -2.6090    0.7095 C   0  0  0  0  0  0  0  0  0  0  0  0
    0.5643   -3.7574    1.2292 C   0  0  0  0  0  0  0  0  0  0  0  0
    1.1148   -4.3714    2.3459 C   0  0  0  0  0  0  0  0  0  0  0  0
    2.2842   -3.8676    2.9337 C   0  0  0  0  0  0  0  0  0  0  0  0
    2.9347   -4.5668    4.0692 C   0  0  0  0  0  0  0  0  0  0  0  0
    2.9201   -5.9160    4.1110 C   0  0  0  0  0  0  0  0  0  0  0  0
    3.6047   -6.5468    5.1230 N   0  0  0  0  0  0  0  0  0  0  0  0
    3.7645   -7.8668    5.4398 C   0  0  0  0  0  0  0  0  0  0  0  0
    4.5699   -7.8681    6.5596 C   0  0  0  0  0  0  0  0  0  0  0  0
    4.9041   -6.5871    6.9375 N   0  0  0  0  0  0  0  0  0  0  0  0
    4.3081   -5.8242    6.0437 C   0  0  0  0  0  0  0  0  0  0  0  0
    4.2979   -4.3731    5.9618 C   0  0  0  0  0  0  0  0  0  0  0  0
    4.9999   -3.6209    6.8798 N   0  0  0  0  0  0  0  0  0  0  0  0
    4.5784   -2.2931    7.2663 C   0  0  0  0  0  0  0  0  0  0  0  0
    5.1843   -1.2500    6.3671 C   0  0  0  0  0  0  0  0  0  0  0  0
    4.3739   -0.3971    5.6119 C   0  0  0  0  0  0  0  0  0  0  0  0
    4.9784    0.5509    4.8023 C   0  0  0  0  0  0  0  0  0  0  0  0
    6.3149    0.7005    4.6864 N   0  0  0  0  0  0  0  0  0  0  0  0
    7.0808   -0.1321    5.4234 C   0  0  0  0  0  0  0  0  0  0  0  0
    6.5715   -1.1061    6.2680 C   0  0  0  0  0  0  0  0  0  0  0  0
    3.6046   -3.7916    5.0086 N   0  0  0  0  0  0  0  0  0  0  0  0
    2.8446   -2.6799    2.4168 C   0  0  0  0  0  0  0  0  0  0  0  0
    3.1010    1.1422   -0.3187 N   0  0  0  0  0  0  0  0  0  0  0  0
    2.7547    2.2505   -1.1364 C   0  0  0  0  0  0  0  0  0  0  0  0
    1.5140    2.4027   -1.7682 C   0  0  0  0  0  0  0  0  0  0  0  0
    1.2216    3.5289   -2.5582 C   0  0  0  0  0  0  0  0  0  0  0  0
   -0.1278    3.6677   -3.2256 C   0  0  0  0  0  0  0  0  0  0  0  0
   -0.9722    2.6254   -2.9929 F   0  0  0  0  0  0  0  0  0  0  0  0
   -0.7934    4.7834   -2.8160 F   0  0  0  0  0  0  0  0  0  0  0  0
   -0.0275    3.7698   -4.5800 F   0  0  0  0  0  0  0  0  0  0  0  0
    2.1992    4.5225   -2.7114 C   0  0  0  0  0  0  0  0  0  0  0  0
    3.4399    4.3873   -2.0864 C   0  0  0  0  0  0  0  0  0  0  0  0
    3.7069    3.2591   -1.3096 C   0  0  0  0  0  0  0  0  0  0  0  0
    4.9038    3.1520   -0.7139 F   0  0  0  0  0  0  0  0  0  0  0  0
    3.7006   -0.5206    1.3385 H   0  0  0  0  0  0  0  0  0  0  0  0
    0.7012   -2.1907   -0.1824 H   0  0  0  0  0  0  0  0  0  0  0  0
   -0.3237   -4.1668    0.7561 H   0  0  0  0  0  0  0  0  0  0  0  0
    0.6189   -5.2539    2.7413 H   0  0  0  0  0  0  0  0  0  0  0  0
    2.4326   -6.5518    3.3848 H   0  0  0  0  0  0  0  0  0  0  0  0
    3.3088   -8.6626    4.8674 H   0  0  0  0  0  0  0  0  0  0  0  0
    4.9232   -8.7285    7.1145 H   0  0  0  0  0  0  0  0  0  0  0  0
    5.4289   -4.1757    7.6149 H   0  0  0  0  0  0  0  0  0  0  0  0
    4.9028   -2.0963    8.2954 H   0  0  0  0  0  0  0  0  0  0  0  0
    3.4831   -2.2242    7.2773 H   0  0  0  0  0  0  0  0  0  0  0  0
    3.2913   -0.4744    5.6421 H   0  0  0  0  0  0  0  0  0  0  0  0
    4.3826    1.2353    4.2057 H   0  0  0  0  0  0  0  0  0  0  0  0
    8.1530    0.0030    5.3143 H   0  0  0  0  0  0  0  0  0  0  0  0
    7.2430   -1.7491    6.8278 H   0  0  0  0  0  0  0  0  0  0  0  0
    3.7333   -2.2695    2.8933 H   0  0  0  0  0  0  0  0  0  0  0  0
    4.0411    1.1519    0.0566 H   0  0  0  0  0  0  0  0  0  0  0  0
    0.7321    1.6554   -1.6665 H   0  0  0  0  0  0  0  0  0  0  0  0
    1.9916    5.4040   -3.3167 H   0  0  0  0  0  0  0  0  0  0  0  0
    4.1999    5.1555   -2.1969 H   0  0  0  0  0  0  0  0  0  0  0  0
  1  2  2  0  0  0  0
  2  3  1  0  0  0  0
  2 27  1  0  0  0  0
  3  4  1  0  0  0  0
  3 39  1  0  0  0  0
  4  5  1  0  0  0  0
  4 26  2  0  0  0  0
  5  6  2  0  0  0  0
  5 40  1  0  0  0  0
  6  7  1  0  0  0  0
  6 41  1  0  0  0  0
  7  8  2  0  0  0  0
  7 42  1  0  0  0  0
  8  9  1  0  0  0  0
  8 26  1  0  0  0  0
  9 10  2  0  0  0  0
  9 25  1  0  0  0  0
 10 11  1  0  0  0  0
 10 43  1  0  0  0  0
 11 12  1  0  0  0  0
 11 15  1  0  0  0  0
 12 13  2  0  0  0  0
 12 44  1  0  0  0  0
 13 14  1  0  0  0  0
 13 45  1  0  0  0  0
 14 15  2  0  0  0  0
 15 16  1  0  0  0  0
 16 17  1  0  0  0  0
 16 25  2  0  0  0  0
 17 18  1  0  0  0  0
 17 46  1  0  0  0  0
 18 19  1  0  0  0  0
 18 47  1  0  0  0  0
 18 48  1  0  0  0  0
 19 20  1  0  0  0  0
 19 24  2  0  0  0  0
 20 21  2  0  0  0  0
 20 49  1  0  0  0  0
 21 22  1  0  0  0  0
 21 50  1  0  0  0  0
 22 23  2  0  0  0  0
 23 24  1  0  0  0  0
 23 51  1  0  0  0  0
 24 52  1  0  0  0  0
 26 53  1  0  0  0  0
 27 28  1  0  0  0  0
 27 54  1  0  0  0  0
 28 29  1  0  0  0  0
 28 37  2  0  0  0  0
 29 30  2  0  0  0  0
 29 55  1  0  0  0  0
 30 31  1  0  0  0  0
 30 35  1  0  0  0  0
 31 32  1  0  0  0  0
 31 33  1  0  0  0  0
 31 34  1  0  0  0  0
 35 36  2  0  0  0  0
 35 56  1  0  0  0  0
 36 37  1  0  0  0  0
 36 57  1  0  0  0  0
 37 38  1  0  0  0  0
M  END
$$$$
