CHEMBL3958081
 OpenBabel04072215373D

 26 27  0  0  0  0  0  0  0  0999 V2000
   -2.2698    2.0675    0.1115 Cl  0  0  0  0  0  0  0  0  0  0  0  0
   -0.9890    0.9211    0.0798 C   0  0  0  0  0  0  0  0  0  0  0  0
    0.2931    1.3277   -0.2680 C   0  0  0  0  0  0  0  0  0  0  0  0
    1.3440    0.3994   -0.3130 C   0  0  0  0  0  0  0  0  0  0  0  0
    2.8634    1.0427   -0.8481 Cl  0  0  0  0  0  0  0  0  0  0  0  0
    1.1295   -0.9596    0.0173 C   0  0  0  0  0  0  0  0  0  0  0  0
    2.1205   -1.9800   -0.0390 N   0  0  0  0  0  0  0  0  0  0  0  0
    3.4090   -1.6350    0.1736 N   0  0  0  0  0  0  0  0  0  0  0  0
    4.2656   -2.6042    0.1536 C   0  0  0  0  0  0  0  0  0  0  0  0
    5.7106   -2.3334    0.2814 C   0  0  0  0  0  0  0  0  0  0  0  0
    6.1688   -1.0287    0.4541 C   0  0  0  0  0  0  0  0  0  0  0  0
    7.5339   -0.8262    0.5042 C   0  0  0  0  0  0  0  0  0  0  0  0
    8.4410   -1.8216    0.4008 N   0  0  0  0  0  0  0  0  0  0  0  0
    7.9634   -3.0751    0.2398 C   0  0  0  0  0  0  0  0  0  0  0  0
    6.6159   -3.3850    0.1770 C   0  0  0  0  0  0  0  0  0  0  0  0
   -0.1966   -1.3330    0.3474 C   0  0  0  0  0  0  0  0  0  0  0  0
   -0.5756   -2.9814    0.7367 Cl  0  0  0  0  0  0  0  0  0  0  0  0
   -1.2436   -0.4086    0.3845 C   0  0  0  0  0  0  0  0  0  0  0  0
    0.4794    2.3692   -0.5213 H   0  0  0  0  0  0  0  0  0  0  0  0
    1.7852   -2.8645    0.3509 H   0  0  0  0  0  0  0  0  0  0  0  0
    3.9553   -3.6551    0.0114 H   0  0  0  0  0  0  0  0  0  0  0  0
    5.4855   -0.1899    0.5319 H   0  0  0  0  0  0  0  0  0  0  0  0
    7.9465    0.1717    0.6238 H   0  0  0  0  0  0  0  0  0  0  0  0
    8.7225   -3.8474    0.1513 H   0  0  0  0  0  0  0  0  0  0  0  0
    6.2971   -4.4104    0.0353 H   0  0  0  0  0  0  0  0  0  0  0  0
   -2.2491   -0.7265    0.6472 H   0  0  0  0  0  0  0  0  0  0  0  0
  1  2  1  0  0  0  0
  2  3  1  0  0  0  0
  2 18  2  0  0  0  0
  3  4  2  0  0  0  0
  3 19  1  0  0  0  0
  4  5  1  0  0  0  0
  4  6  1  0  0  0  0
  6  7  1  0  0  0  0
  6 16  2  0  0  0  0
  7  8  1  0  0  0  0
  7 20  1  0  0  0  0
  8  9  2  0  0  0  0
  9 10  1  0  0  0  0
  9 21  1  0  0  0  0
 10 11  1  0  0  0  0
 10 15  2  0  0  0  0
 11 12  2  0  0  0  0
 11 22  1  0  0  0  0
 12 13  1  0  0  0  0
 12 23  1  0  0  0  0
 13 14  2  0  0  0  0
 14 15  1  0  0  0  0
 14 24  1  0  0  0  0
 15 25  1  0  0  0  0
 16 17  1  0  0  0  0
 16 18  1  0  0  0  0
 18 26  1  0  0  0  0
M  END
$$$$
