CHEMBL493253
 OpenBabel04072215383D

 64 68  0  0  0  0  0  0  0  0999 V2000
   11.9644    5.9762   -2.5753 C   0  0  0  0  0  0  0  0  0  0  0  0
   11.0857    5.0545   -1.9298 O   0  0  0  0  0  0  0  0  0  0  0  0
    9.7753    5.4431   -1.8195 C   0  0  0  0  0  0  0  0  0  0  0  0
    9.3785    6.7832   -1.8395 C   0  0  0  0  0  0  0  0  0  0  0  0
    8.0466    7.1651   -1.8730 C   0  0  0  0  0  0  0  0  0  0  0  0
    7.8067    8.4784   -1.9911 N   0  0  0  0  0  0  0  0  0  0  0  0
    6.5283    8.8836   -2.0721 C   0  0  0  0  0  0  0  0  0  0  0  0
    5.4536    8.0244   -2.0048 C   0  0  0  0  0  0  0  0  0  0  0  0
    5.6816    6.6472   -1.8405 C   0  0  0  0  0  0  0  0  0  0  0  0
    4.4495    5.7554   -1.7123 C   0  0  0  0  0  0  0  0  0  0  0  0
    3.5481    6.2317   -0.6560 N   0  0  0  0  0  0  0  0  0  0  0  0
    3.9971    5.9903    0.7106 C   0  0  0  0  0  0  0  0  0  0  0  0
    3.4529    4.7143    1.3621 C   0  0  0  0  0  0  0  0  0  0  0  0
    1.9565    4.5687    1.2146 C   0  0  0  0  0  0  0  0  0  0  0  0
    1.3395    5.2172    0.1278 C   0  0  0  0  0  0  0  0  0  0  0  0
   -0.0476    5.0843   -0.0498 C   0  0  0  0  0  0  0  0  0  0  0  0
   -0.8143    4.3098    0.8198 C   0  0  0  0  0  0  0  0  0  0  0  0
   -0.2030    3.6408    1.8819 C   0  0  0  0  0  0  0  0  0  0  0  0
    1.1786    3.7559    2.0867 C   0  0  0  0  0  0  0  0  0  0  0  0
    1.8322    2.8866    3.1079 C   0  0  0  0  0  0  0  0  0  0  0  0
    2.9025    2.3671    2.7990 O   0  0  0  0  0  0  0  0  0  0  0  0
    1.1845    2.7241    4.3336 N   0  0  0  0  0  0  0  0  0  0  0  0
    1.6328    1.8819    5.3911 C   0  0  0  0  0  0  0  0  0  0  0  0
    2.6707    0.9631    5.2460 C   0  0  0  0  0  0  0  0  0  0  0  0
    3.0916    0.1691    6.3158 C   0  0  0  0  0  0  0  0  0  0  0  0
    2.4795    0.2731    7.5643 C   0  0  0  0  0  0  0  0  0  0  0  0
    3.0887   -0.7627    8.8011 Cl  0  0  0  0  0  0  0  0  0  0  0  0
    1.4314    1.1807    7.7518 C   0  0  0  0  0  0  0  0  0  0  0  0
    0.7342    1.3977    9.0709 C   0  0  0  0  0  0  0  0  0  0  0  0
    1.1549    0.6395   10.1182 F   0  0  0  0  0  0  0  0  0  0  0  0
    0.8544    2.6904    9.4913 F   0  0  0  0  0  0  0  0  0  0  0  0
   -0.6073    1.1722    8.9762 F   0  0  0  0  0  0  0  0  0  0  0  0
    1.0086    1.9675    6.6416 C   0  0  0  0  0  0  0  0  0  0  0  0
    2.1223    6.0196   -0.8953 C   0  0  0  0  0  0  0  0  0  0  0  0
    7.0284    6.1832   -1.8124 C   0  0  0  0  0  0  0  0  0  0  0  0
    7.4351    4.8285   -1.7339 C   0  0  0  0  0  0  0  0  0  0  0  0
    8.7898    4.4587   -1.7134 C   0  0  0  0  0  0  0  0  0  0  0  0
    9.0036    3.1057   -1.6962 O   0  0  0  0  0  0  0  0  0  0  0  0
   10.0471    2.6383   -0.8452 C   0  0  0  0  0  0  0  0  0  0  0  0
   12.7665    5.4020   -3.0479 H   0  0  0  0  0  0  0  0  0  0  0  0
   12.4134    6.6473   -1.8357 H   0  0  0  0  0  0  0  0  0  0  0  0
   11.4743    6.5513   -3.3695 H   0  0  0  0  0  0  0  0  0  0  0  0
   10.1164    7.5807   -1.8567 H   0  0  0  0  0  0  0  0  0  0  0  0
    6.3865    9.9535   -2.1910 H   0  0  0  0  0  0  0  0  0  0  0  0
    4.4446    8.4217   -2.0573 H   0  0  0  0  0  0  0  0  0  0  0  0
    4.6921    4.7004   -1.5628 H   0  0  0  0  0  0  0  0  0  0  0  0
    3.9544    5.8156   -2.6922 H   0  0  0  0  0  0  0  0  0  0  0  0
    3.6851    6.8532    1.3131 H   0  0  0  0  0  0  0  0  0  0  0  0
    5.0924    5.9768    0.7770 H   0  0  0  0  0  0  0  0  0  0  0  0
    3.7153    4.7623    2.4261 H   0  0  0  0  0  0  0  0  0  0  0  0
    3.9375    3.8368    0.9207 H   0  0  0  0  0  0  0  0  0  0  0  0
   -0.5366    5.5722   -0.8937 H   0  0  0  0  0  0  0  0  0  0  0  0
   -1.8812    4.1950    0.6413 H   0  0  0  0  0  0  0  0  0  0  0  0
   -0.8106    2.9831    2.4986 H   0  0  0  0  0  0  0  0  0  0  0  0
    0.3866    3.3093    4.5186 H   0  0  0  0  0  0  0  0  0  0  0  0
    3.1889    0.8176    4.3008 H   0  0  0  0  0  0  0  0  0  0  0  0
    3.9101   -0.5291    6.1580 H   0  0  0  0  0  0  0  0  0  0  0  0
    0.1881    2.6704    6.7925 H   0  0  0  0  0  0  0  0  0  0  0  0
    1.6640    7.0156   -0.9461 H   0  0  0  0  0  0  0  0  0  0  0  0
    1.9545    5.5496   -1.8727 H   0  0  0  0  0  0  0  0  0  0  0  0
    6.7016    4.0276   -1.7106 H   0  0  0  0  0  0  0  0  0  0  0  0
    9.6220    1.8697   -0.1907 H   0  0  0  0  0  0  0  0  0  0  0  0
   10.4940    3.4011   -0.2003 H   0  0  0  0  0  0  0  0  0  0  0  0
   10.8194    2.1635   -1.4585 H   0  0  0  0  0  0  0  0  0  0  0  0
  1  2  1  0  0  0  0
  1 40  1  0  0  0  0
  1 41  1  0  0  0  0
  1 42  1  0  0  0  0
  2  3  1  0  0  0  0
  3  4  1  0  0  0  0
  3 37  2  0  0  0  0
  4  5  2  0  0  0  0
  4 43  1  0  0  0  0
  5  6  1  0  0  0  0
  5 35  1  0  0  0  0
  6  7  2  0  0  0  0
  7  8  1  0  0  0  0
  7 44  1  0  0  0  0
  8  9  2  0  0  0  0
  8 45  1  0  0  0  0
  9 10  1  0  0  0  0
  9 35  1  0  0  0  0
 10 11  1  0  0  0  0
 10 46  1  0  0  0  0
 10 47  1  0  0  0  0
 11 12  1  0  0  0  0
 11 34  1  0  0  0  0
 12 13  1  0  0  0  0
 12 48  1  0  0  0  0
 12 49  1  0  0  0  0
 13 14  1  0  0  0  0
 13 50  1  0  0  0  0
 13 51  1  0  0  0  0
 14 15  1  0  0  0  0
 14 19  2  0  0  0  0
 15 16  2  0  0  0  0
 15 34  1  0  0  0  0
 16 17  1  0  0  0  0
 16 52  1  0  0  0  0
 17 18  2  0  0  0  0
 17 53  1  0  0  0  0
 18 19  1  0  0  0  0
 18 54  1  0  0  0  0
 19 20  1  0  0  0  0
 20 21  2  0  0  0  0
 20 22  1  0  0  0  0
 22 23  1  0  0  0  0
 22 55  1  0  0  0  0
 23 24  1  0  0  0  0
 23 33  2  0  0  0  0
 24 25  2  0  0  0  0
 24 56  1  0  0  0  0
 25 26  1  0  0  0  0
 25 57  1  0  0  0  0
 26 27  1  0  0  0  0
 26 28  2  0  0  0  0
 28 29  1  0  0  0  0
 28 33  1  0  0  0  0
 29 30  1  0  0  0  0
 29 31  1  0  0  0  0
 29 32  1  0  0  0  0
 33 58  1  0  0  0  0
 34 59  1  0  0  0  0
 34 60  1  0  0  0  0
 35 36  2  0  0  0  0
 36 37  1  0  0  0  0
 36 61  1  0  0  0  0
 37 38  1  0  0  0  0
 38 39  1  0  0  0  0
 39 62  1  0  0  0  0
 39 63  1  0  0  0  0
 39 64  1  0  0  0  0
M  END
$$$$
