CHEMBL3953943
 OpenBabel04072215373D

 52 55  0  0  0  0  0  0  0  0999 V2000
    2.8150    1.3661   -2.6941 O   0  0  0  0  0  0  0  0  0  0  0  0
    2.3466    0.6355   -1.8275 C   0  0  0  0  0  0  0  0  0  0  0  0
    1.0183    0.6453   -1.4363 N   0  0  0  0  0  0  0  0  0  0  0  0
    0.0285    1.5161   -1.9512 C   0  0  0  0  0  0  0  0  0  0  0  0
    0.1771    2.2253   -3.1455 C   0  0  0  0  0  0  0  0  0  0  0  0
   -0.8059    3.1167   -3.5580 C   0  0  0  0  0  0  0  0  0  0  0  0
   -0.6399    3.7988   -4.6981 F   0  0  0  0  0  0  0  0  0  0  0  0
   -1.9508    3.3222   -2.8040 C   0  0  0  0  0  0  0  0  0  0  0  0
   -2.1333    2.6098   -1.6131 C   0  0  0  0  0  0  0  0  0  0  0  0
   -3.3547    2.8366   -0.7608 C   0  0  0  0  0  0  0  0  0  0  0  0
   -4.1993    3.7828   -1.2555 F   0  0  0  0  0  0  0  0  0  0  0  0
   -4.0988    1.7074   -0.6138 F   0  0  0  0  0  0  0  0  0  0  0  0
   -3.0362    3.2415    0.4995 F   0  0  0  0  0  0  0  0  0  0  0  0
   -1.1448    1.6908   -1.2050 C   0  0  0  0  0  0  0  0  0  0  0  0
    3.1041   -0.2499   -1.0819 N   0  0  0  0  0  0  0  0  0  0  0  0
    4.5163   -0.3524   -1.1357 C   0  0  0  0  0  0  0  0  0  0  0  0
    5.2971    0.1114   -2.1984 C   0  0  0  0  0  0  0  0  0  0  0  0
    6.6932    0.0195   -2.1512 C   0  0  0  0  0  0  0  0  0  0  0  0
    7.3244   -0.5369   -1.0399 C   0  0  0  0  0  0  0  0  0  0  0  0
    8.7028   -0.5958   -1.0864 O   0  0  0  0  0  0  0  0  0  0  0  0
    9.3438   -1.6511   -0.4720 C   0  0  0  0  0  0  0  0  0  0  0  0
    8.7976   -2.9280   -0.3873 C   0  0  0  0  0  0  0  0  0  0  0  0
    9.4756   -3.8632    0.3553 C   0  0  0  0  0  0  0  0  0  0  0  0
   10.6657   -3.6225    0.9275 N   0  0  0  0  0  0  0  0  0  0  0  0
   11.2424   -2.4202    0.7593 C   0  0  0  0  0  0  0  0  0  0  0  0
   12.5163   -2.1922    1.3082 N   0  0  0  0  0  0  0  0  0  0  0  0
   13.1997   -3.1280    2.0585 C   0  0  0  0  0  0  0  0  0  0  0  0
   12.8240   -4.2443    2.3783 O   0  0  0  0  0  0  0  0  0  0  0  0
   14.5621   -2.6821    2.4899 C   0  0  0  0  0  0  0  0  0  0  0  0
   15.7601   -3.5275    2.1162 C   0  0  0  0  0  0  0  0  0  0  0  0
   15.3032   -3.4806    3.5443 C   0  0  0  0  0  0  0  0  0  0  0  0
   10.6111   -1.4005    0.0606 C   0  0  0  0  0  0  0  0  0  0  0  0
    6.5542   -0.9657    0.0444 C   0  0  0  0  0  0  0  0  0  0  0  0
    5.1659   -0.9159   -0.0346 C   0  0  0  0  0  0  0  0  0  0  0  0
    4.4397   -1.3911    0.9902 F   0  0  0  0  0  0  0  0  0  0  0  0
    0.7858    0.1349   -0.5973 H   0  0  0  0  0  0  0  0  0  0  0  0
    1.0419    2.1138   -3.7888 H   0  0  0  0  0  0  0  0  0  0  0  0
   -2.6864    4.0425   -3.1529 H   0  0  0  0  0  0  0  0  0  0  0  0
   -1.2891    1.1464   -0.2725 H   0  0  0  0  0  0  0  0  0  0  0  0
    2.6713   -0.6948   -0.2834 H   0  0  0  0  0  0  0  0  0  0  0  0
    4.8505    0.5402   -3.0907 H   0  0  0  0  0  0  0  0  0  0  0  0
    7.2799    0.3855   -2.9906 H   0  0  0  0  0  0  0  0  0  0  0  0
    7.8503   -3.1903   -0.8432 H   0  0  0  0  0  0  0  0  0  0  0  0
    9.0716   -4.8552    0.5288 H   0  0  0  0  0  0  0  0  0  0  0  0
   12.9524   -1.3013    1.1246 H   0  0  0  0  0  0  0  0  0  0  0  0
   14.7149   -1.6089    2.5232 H   0  0  0  0  0  0  0  0  0  0  0  0
   16.6871   -3.0281    1.8658 H   0  0  0  0  0  0  0  0  0  0  0  0
   15.5854   -4.4470    1.5655 H   0  0  0  0  0  0  0  0  0  0  0  0
   15.9103   -2.9443    4.2626 H   0  0  0  0  0  0  0  0  0  0  0  0
   14.8231   -4.3667    3.9504 H   0  0  0  0  0  0  0  0  0  0  0  0
   11.0668   -0.4246   -0.0637 H   0  0  0  0  0  0  0  0  0  0  0  0
    7.0078   -1.3574    0.9489 H   0  0  0  0  0  0  0  0  0  0  0  0
  1  2  2  0  0  0  0
  2  3  1  0  0  0  0
  2 15  1  0  0  0  0
  3  4  1  0  0  0  0
  3 36  1  0  0  0  0
  4  5  1  0  0  0  0
  4 14  2  0  0  0  0
  5  6  2  0  0  0  0
  5 37  1  0  0  0  0
  6  7  1  0  0  0  0
  6  8  1  0  0  0  0
  8  9  2  0  0  0  0
  8 38  1  0  0  0  0
  9 10  1  0  0  0  0
  9 14  1  0  0  0  0
 10 11  1  0  0  0  0
 10 12  1  0  0  0  0
 10 13  1  0  0  0  0
 14 39  1  0  0  0  0
 15 16  1  0  0  0  0
 15 40  1  0  0  0  0
 16 17  1  0  0  0  0
 16 34  2  0  0  0  0
 17 18  2  0  0  0  0
 17 41  1  0  0  0  0
 18 19  1  0  0  0  0
 18 42  1  0  0  0  0
 19 20  1  0  0  0  0
 19 33  2  0  0  0  0
 20 21  1  0  0  0  0
 21 22  1  0  0  0  0
 21 32  2  0  0  0  0
 22 23  2  0  0  0  0
 22 43  1  0  0  0  0
 23 24  1  0  0  0  0
 23 44  1  0  0  0  0
 24 25  2  0  0  0  0
 25 26  1  0  0  0  0
 25 32  1  0  0  0  0
 26 27  1  0  0  0  0
 26 45  1  0  0  0  0
 27 28  2  0  0  0  0
 27 29  1  0  0  0  0
 29 30  1  0  0  0  0
 29 31  1  0  0  0  0
 29 46  1  0  0  0  0
 30 31  1  0  0  0  0
 30 47  1  0  0  0  0
 30 48  1  0  0  0  0
 31 49  1  0  0  0  0
 31 50  1  0  0  0  0
 32 51  1  0  0  0  0
 33 34  1  0  0  0  0
 33 52  1  0  0  0  0
 34 35  1  0  0  0  0
M  END
$$$$
