CHEMBL372474
 OpenBabel04072215373D

 53 56  0  0  0  0  0  0  0  0999 V2000
    6.7458   -0.0436    6.0819 C   0  0  0  0  0  0  0  0  0  0  0  0
    6.7020   -0.4470    4.6194 C   0  0  0  0  0  0  0  0  0  0  0  0
    5.5309    0.5472    3.7009 S   0  0  0  0  0  0  0  0  0  0  0  0
    4.2267    0.3685    4.3114 O   0  0  0  0  0  0  0  0  0  0  0  0
    6.0889    1.8704    3.5065 O   0  0  0  0  0  0  0  0  0  0  0  0
    5.4658   -0.2245    2.1021 C   0  0  0  0  0  0  0  0  0  0  0  0
    4.2732   -0.7549    1.6140 C   0  0  0  0  0  0  0  0  0  0  0  0
    4.2656   -1.3910    0.3687 C   0  0  0  0  0  0  0  0  0  0  0  0
    5.4495   -1.5210   -0.3703 C   0  0  0  0  0  0  0  0  0  0  0  0
    5.5484   -2.1804   -1.5747 O   0  0  0  0  0  0  0  0  0  0  0  0
    4.3309   -2.4149   -2.2756 C   0  0  0  0  0  0  0  0  0  0  0  0
    6.6625   -0.9983    0.1356 C   0  0  0  0  0  0  0  0  0  0  0  0
    7.8559   -1.1785   -0.6027 N   0  0  0  0  0  0  0  0  0  0  0  0
    9.1063   -0.9939   -0.1443 C   0  0  0  0  0  0  0  0  0  0  0  0
    9.5337   -0.3578    0.9255 N   0  0  0  0  0  0  0  0  0  0  0  0
   10.8825   -0.5516    0.9249 C   0  0  0  0  0  0  0  0  0  0  0  0
   11.2461   -1.3205   -0.1568 C   0  0  0  0  0  0  0  0  0  0  0  0
   12.5008   -1.8637   -0.6466 C   0  0  0  0  0  0  0  0  0  0  0  0
   12.5530   -2.6542   -1.7970 C   0  0  0  0  0  0  0  0  0  0  0  0
   13.7673   -3.1718   -2.2376 C   0  0  0  0  0  0  0  0  0  0  0  0
   14.9440   -2.8880   -1.5413 C   0  0  0  0  0  0  0  0  0  0  0  0
   14.9457   -2.0632   -0.4019 C   0  0  0  0  0  0  0  0  0  0  0  0
   16.2102   -1.6430    0.2510 C   0  0  0  0  0  0  0  0  0  0  0  0
   17.3604   -1.3990   -0.5271 C   0  0  0  0  0  0  0  0  0  0  0  0
   18.5495   -0.9303    0.0402 C   0  0  0  0  0  0  0  0  0  0  0  0
   18.6202   -0.6818    1.4062 C   0  0  0  0  0  0  0  0  0  0  0  0
   17.5060   -0.9211    2.2044 C   0  0  0  0  0  0  0  0  0  0  0  0
   16.3252   -1.4016    1.6318 C   0  0  0  0  0  0  0  0  0  0  0  0
   15.2868   -1.6203    2.4548 F   0  0  0  0  0  0  0  0  0  0  0  0
   13.6988   -1.5846    0.0381 C   0  0  0  0  0  0  0  0  0  0  0  0
   10.1020   -1.5937   -0.8647 O   0  0  0  0  0  0  0  0  0  0  0  0
    6.6343   -0.3110    1.3569 C   0  0  0  0  0  0  0  0  0  0  0  0
    7.4628   -0.6638    6.6299 H   0  0  0  0  0  0  0  0  0  0  0  0
    5.7653   -0.1645    6.5532 H   0  0  0  0  0  0  0  0  0  0  0  0
    7.0437    1.0037    6.1936 H   0  0  0  0  0  0  0  0  0  0  0  0
    6.3972   -1.4941    4.5289 H   0  0  0  0  0  0  0  0  0  0  0  0
    7.6893   -0.3194    4.1660 H   0  0  0  0  0  0  0  0  0  0  0  0
    3.3522   -0.6815    2.1883 H   0  0  0  0  0  0  0  0  0  0  0  0
    3.3247   -1.7987    0.0179 H   0  0  0  0  0  0  0  0  0  0  0  0
    4.5804   -2.8855   -3.2318 H   0  0  0  0  0  0  0  0  0  0  0  0
    3.8147   -1.4731   -2.4900 H   0  0  0  0  0  0  0  0  0  0  0  0
    3.6814   -3.1083   -1.7320 H   0  0  0  0  0  0  0  0  0  0  0  0
    7.7267   -1.7677   -1.4192 H   0  0  0  0  0  0  0  0  0  0  0  0
   11.5109   -0.1435    1.7016 H   0  0  0  0  0  0  0  0  0  0  0  0
   11.6494   -2.8718   -2.3617 H   0  0  0  0  0  0  0  0  0  0  0  0
   13.8009   -3.7861   -3.1335 H   0  0  0  0  0  0  0  0  0  0  0  0
   15.8726   -3.3137   -1.9152 H   0  0  0  0  0  0  0  0  0  0  0  0
   17.3356   -1.5435   -1.6053 H   0  0  0  0  0  0  0  0  0  0  0  0
   19.4124   -0.7455   -0.5951 H   0  0  0  0  0  0  0  0  0  0  0  0
   19.5379   -0.2984    1.8443 H   0  0  0  0  0  0  0  0  0  0  0  0
   17.5426   -0.7291    3.2725 H   0  0  0  0  0  0  0  0  0  0  0  0
   13.6635   -0.9512    0.9226 H   0  0  0  0  0  0  0  0  0  0  0  0
    7.5260    0.1664    1.7498 H   0  0  0  0  0  0  0  0  0  0  0  0
  1  2  1  0  0  0  0
  1 33  1  0  0  0  0
  1 34  1  0  0  0  0
  1 35  1  0  0  0  0
  2  3  1  0  0  0  0
  2 36  1  0  0  0  0
  2 37  1  0  0  0  0
  3  4  2  0  0  0  0
  3  5  2  0  0  0  0
  3  6  1  0  0  0  0
  6  7  1  0  0  0  0
  6 32  2  0  0  0  0
  7  8  2  0  0  0  0
  7 38  1  0  0  0  0
  8  9  1  0  0  0  0
  8 39  1  0  0  0  0
  9 10  1  0  0  0  0
  9 12  2  0  0  0  0
 10 11  1  0  0  0  0
 11 40  1  0  0  0  0
 11 41  1  0  0  0  0
 11 42  1  0  0  0  0
 12 13  1  0  0  0  0
 12 32  1  0  0  0  0
 13 14  1  0  0  0  0
 13 43  1  0  0  0  0
 14 15  2  0  0  0  0
 14 31  1  0  0  0  0
 15 16  1  0  0  0  0
 16 17  2  0  0  0  0
 16 44  1  0  0  0  0
 17 18  1  0  0  0  0
 17 31  1  0  0  0  0
 18 19  1  0  0  0  0
 18 30  2  0  0  0  0
 19 20  2  0  0  0  0
 19 45  1  0  0  0  0
 20 21  1  0  0  0  0
 20 46  1  0  0  0  0
 21 22  2  0  0  0  0
 21 47  1  0  0  0  0
 22 23  1  0  0  0  0
 22 30  1  0  0  0  0
 23 24  1  0  0  0  0
 23 28  2  0  0  0  0
 24 25  2  0  0  0  0
 24 48  1  0  0  0  0
 25 26  1  0  0  0  0
 25 49  1  0  0  0  0
 26 27  2  0  0  0  0
 26 50  1  0  0  0  0
 27 28  1  0  0  0  0
 27 51  1  0  0  0  0
 28 29  1  0  0  0  0
 30 52  1  0  0  0  0
 32 53  1  0  0  0  0
M  END
$$$$
