CHEMBL4099337
 OpenBabel04072215383D

 52 53  0  0  1  0  0  0  0  0999 V2000
    1.0372   -0.0662    0.6228 C   0  0  0  0  0  0  0  0  0  0  0  0
    2.3730    0.0171    0.1413 O   0  0  0  0  0  0  0  0  0  0  0  0
    2.9800    1.2398    0.2455 C   0  0  0  0  0  0  0  0  0  0  0  0
    2.6598    2.2291    1.1718 C   0  0  0  0  0  0  0  0  0  0  0  0
    3.3854    3.4256    1.1841 C   0  0  0  0  0  0  0  0  0  0  0  0
    3.0737    4.3926    2.1007 O   0  0  0  0  0  0  0  0  0  0  0  0
    4.4323    3.6358    0.2780 C   0  0  0  0  0  0  0  0  0  0  0  0
    4.7709    2.6377   -0.6628 C   0  0  0  0  0  0  0  0  0  0  0  0
    4.0388    1.4379   -0.6456 C   0  0  0  0  0  0  0  0  0  0  0  0
    5.9765    2.8004   -1.5578 C   0  0  0  0  0  0  0  0  0  0  0  0
    6.0114    2.0458   -2.8910 C   0  0  0  0  0  0  0  0  0  0  0  0
    7.3564    2.1088   -3.6387 C   0  0  0  0  0  0  0  0  0  0  0  0
    8.0493    3.4867   -3.7158 C   0  0  2  0  0  0  0  0  0  0  0  0
    8.3809    3.7044   -5.0948 O   0  0  0  0  0  0  0  0  0  0  0  0
    9.3272    3.5882   -2.8327 C   0  0  2  0  0  0  0  0  0  0  0  0
    9.1705    2.9355   -1.5757 O   0  0  0  0  0  0  0  0  0  0  0  0
    9.8187    5.0466   -2.6770 C   0  0  0  0  0  0  0  0  0  0  0  0
   10.1353    5.7363   -3.6452 O   0  0  0  0  0  0  0  0  0  0  0  0
    9.9112    5.6197   -1.2714 C   0  0  0  0  0  0  0  0  0  0  0  0
    8.5440    6.0968   -0.7862 C   0  0  0  0  0  0  0  0  0  0  0  0
    8.3821    5.9452    0.7304 C   0  0  0  0  0  0  0  0  0  0  0  0
    6.9284    6.1963    1.1680 C   0  0  2  0  0  0  0  0  0  0  0  0
    6.8782    6.6558    2.6215 C   0  0  0  0  0  0  0  0  0  0  0  0
    6.1913    4.9507    1.0664 O   0  0  0  0  0  0  0  0  0  0  0  0
    5.1032    4.9564    0.2549 C   0  0  0  0  0  0  0  0  0  0  0  0
    4.7429    5.8628   -0.4813 O   0  0  0  0  0  0  0  0  0  0  0  0
    0.6483   -1.0541    0.3568 H   0  0  0  0  0  0  0  0  0  0  0  0
    0.3997    0.6858    0.1456 H   0  0  0  0  0  0  0  0  0  0  0  0
    1.0026    0.0193    1.7127 H   0  0  0  0  0  0  0  0  0  0  0  0
    1.8672    2.0736    1.8934 H   0  0  0  0  0  0  0  0  0  0  0  0
    2.3102    4.1060    2.6291 H   0  0  0  0  0  0  0  0  0  0  0  0
    4.2779    0.6251   -1.3258 H   0  0  0  0  0  0  0  0  0  0  0  0
    6.8241    2.4775   -0.9491 H   0  0  0  0  0  0  0  0  0  0  0  0
    6.0961    3.8626   -1.7872 H   0  0  0  0  0  0  0  0  0  0  0  0
    5.2136    2.4258   -3.5416 H   0  0  0  0  0  0  0  0  0  0  0  0
    5.7978    0.9816   -2.7374 H   0  0  0  0  0  0  0  0  0  0  0  0
    7.1705    1.7282   -4.6523 H   0  0  0  0  0  0  0  0  0  0  0  0
    8.0364    1.3763   -3.1850 H   0  0  0  0  0  0  0  0  0  0  0  0
    7.3501    4.2870   -3.4596 H   0  0  0  0  0  0  0  0  0  0  0  0
    9.0660    3.0667   -5.3566 H   0  0  0  0  0  0  0  0  0  0  0  0
   10.1511    3.0638   -3.3371 H   0  0  0  0  0  0  0  0  0  0  0  0
    8.5324    3.4456   -1.0394 H   0  0  0  0  0  0  0  0  0  0  0  0
   10.6238    6.4527   -1.2823 H   0  0  0  0  0  0  0  0  0  0  0  0
   10.3507    4.8629   -0.6125 H   0  0  0  0  0  0  0  0  0  0  0  0
    7.7374    5.5640   -1.3004 H   0  0  0  0  0  0  0  0  0  0  0  0
    8.4264    7.1552   -1.0547 H   0  0  0  0  0  0  0  0  0  0  0  0
    9.0613    6.6551    1.2179 H   0  0  0  0  0  0  0  0  0  0  0  0
    8.6829    4.9350    1.0335 H   0  0  0  0  0  0  0  0  0  0  0  0
    6.4857    6.9875    0.5511 H   0  0  0  0  0  0  0  0  0  0  0  0
    7.3389    5.9197    3.2878 H   0  0  0  0  0  0  0  0  0  0  0  0
    5.8413    6.7843    2.9480 H   0  0  0  0  0  0  0  0  0  0  0  0
    7.3990    7.6122    2.7452 H   0  0  0  0  0  0  0  0  0  0  0  0
  1  2  1  0  0  0  0
  1 27  1  0  0  0  0
  1 28  1  0  0  0  0
  1 29  1  0  0  0  0
  2  3  1  0  0  0  0
  3  4  1  0  0  0  0
  3  9  2  0  0  0  0
  4  5  2  0  0  0  0
  4 30  1  0  0  0  0
  5  6  1  0  0  0  0
  5  7  1  0  0  0  0
  6 31  1  0  0  0  0
  7  8  2  0  0  0  0
  7 25  1  0  0  0  0
  8  9  1  0  0  0  0
  8 10  1  0  0  0  0
  9 32  1  0  0  0  0
 10 11  1  0  0  0  0
 10 33  1  0  0  0  0
 10 34  1  0  0  0  0
 11 12  1  0  0  0  0
 11 35  1  0  0  0  0
 11 36  1  0  0  0  0
 12 13  1  0  0  0  0
 12 37  1  0  0  0  0
 12 38  1  0  0  0  0
 13 15  1  0  0  0  0
 13 14  1  0  0  0  0
 13 39  1  1  0  0  0
 14 40  1  0  0  0  0
 15 16  1  0  0  0  0
 15 17  1  0  0  0  0
 15 41  1  6  0  0  0
 16 42  1  0  0  0  0
 17 18  2  0  0  0  0
 17 19  1  0  0  0  0
 19 20  1  0  0  0  0
 19 43  1  0  0  0  0
 19 44  1  0  0  0  0
 20 21  1  0  0  0  0
 20 45  1  0  0  0  0
 20 46  1  0  0  0  0
 21 22  1  0  0  0  0
 21 47  1  0  0  0  0
 21 48  1  0  0  0  0
 22 24  1  0  0  0  0
 22 23  1  0  0  0  0
 22 49  1  6  0  0  0
 23 50  1  0  0  0  0
 23 51  1  0  0  0  0
 23 52  1  0  0  0  0
 24 25  1  0  0  0  0
 25 26  2  0  0  0  0
M  END
$$$$
