CHEMBL411829
 OpenBabel04072215383D

 33 35  0  0  0  0  0  0  0  0999 V2000
   -3.1865    0.2295    0.2378 N   0  0  0  0  0  0  0  0  0  0  0  0
   -2.0274    0.1432    0.1937 C   0  0  0  0  0  0  0  0  0  0  0  0
   -0.6134    0.0530    0.0938 C   0  0  0  0  0  0  0  0  0  0  0  0
    0.1290    1.2130    0.0384 C   0  0  0  0  0  0  0  0  0  0  0  0
    1.4737    1.2509   -0.0552 N   0  0  0  0  0  0  0  0  0  0  0  0
    2.1059    0.0734   -0.0214 C   0  0  0  0  0  0  0  0  0  0  0  0
    3.4917    0.0879   -0.1122 N   0  0  0  0  0  0  0  0  0  0  0  0
    4.4124   -0.8178    0.4295 C   0  0  0  0  0  0  0  0  0  0  0  0
    5.6570   -0.9917   -0.1865 C   0  0  0  0  0  0  0  0  0  0  0  0
    6.5553   -1.9582    0.2770 C   0  0  0  0  0  0  0  0  0  0  0  0
    6.2248   -2.7556    1.3711 C   0  0  0  0  0  0  0  0  0  0  0  0
    4.9962   -2.5889    2.0012 C   0  0  0  0  0  0  0  0  0  0  0  0
    4.0970   -1.6338    1.5254 C   0  0  0  0  0  0  0  0  0  0  0  0
    1.4598   -1.1039    0.0399 N   0  0  0  0  0  0  0  0  0  0  0  0
    0.1051   -1.1295    0.0524 C   0  0  0  0  0  0  0  0  0  0  0  0
   -0.4725   -2.4968   -0.0153 C   0  0  0  0  0  0  0  0  0  0  0  0
    0.2178   -3.6043    0.5239 C   0  0  0  0  0  0  0  0  0  0  0  0
   -0.3079   -4.9002    0.4589 C   0  0  0  0  0  0  0  0  0  0  0  0
   -1.5434   -5.1241   -0.1409 C   0  0  0  0  0  0  0  0  0  0  0  0
   -2.2377   -4.0587   -0.6968 C   0  0  0  0  0  0  0  0  0  0  0  0
   -1.6969   -2.7723   -0.6555 C   0  0  0  0  0  0  0  0  0  0  0  0
   -0.3504    2.1899    0.0608 H   0  0  0  0  0  0  0  0  0  0  0  0
    3.8469    0.9760   -0.4297 H   0  0  0  0  0  0  0  0  0  0  0  0
    5.9225   -0.4007   -1.0592 H   0  0  0  0  0  0  0  0  0  0  0  0
    7.5072   -2.0998   -0.2277 H   0  0  0  0  0  0  0  0  0  0  0  0
    6.9187   -3.5117    1.7271 H   0  0  0  0  0  0  0  0  0  0  0  0
    4.7279   -3.2043    2.8551 H   0  0  0  0  0  0  0  0  0  0  0  0
    3.1427   -1.5226    2.0346 H   0  0  0  0  0  0  0  0  0  0  0  0
    1.1915   -3.4654    0.9925 H   0  0  0  0  0  0  0  0  0  0  0  0
    0.2514   -5.7346    0.8744 H   0  0  0  0  0  0  0  0  0  0  0  0
   -1.9587   -6.1267   -0.1867 H   0  0  0  0  0  0  0  0  0  0  0  0
   -3.2014   -4.2204   -1.1754 H   0  0  0  0  0  0  0  0  0  0  0  0
   -2.2614   -1.9942   -1.1588 H   0  0  0  0  0  0  0  0  0  0  0  0
  1  2  3  0  0  0  0
  2  3  1  0  0  0  0
  3  4  1  0  0  0  0
  3 15  2  0  0  0  0
  4  5  2  0  0  0  0
  4 22  1  0  0  0  0
  5  6  1  0  0  0  0
  6  7  1  0  0  0  0
  6 14  2  0  0  0  0
  7  8  1  0  0  0  0
  7 23  1  0  0  0  0
  8  9  1  0  0  0  0
  8 13  2  0  0  0  0
  9 10  2  0  0  0  0
  9 24  1  0  0  0  0
 10 11  1  0  0  0  0
 10 25  1  0  0  0  0
 11 12  2  0  0  0  0
 11 26  1  0  0  0  0
 12 13  1  0  0  0  0
 12 27  1  0  0  0  0
 13 28  1  0  0  0  0
 14 15  1  0  0  0  0
 15 16  1  0  0  0  0
 16 17  1  0  0  0  0
 16 21  2  0  0  0  0
 17 18  2  0  0  0  0
 17 29  1  0  0  0  0
 18 19  1  0  0  0  0
 18 30  1  0  0  0  0
 19 20  2  0  0  0  0
 19 31  1  0  0  0  0
 20 21  1  0  0  0  0
 20 32  1  0  0  0  0
 21 33  1  0  0  0  0
M  END
$$$$
