CHEMBL3945369
 OpenBabel04072215373D

 64 68  0  0  0  0  0  0  0  0999 V2000
    0.8743   -0.6815    0.3533 C   0  0  0  0  0  0  0  0  0  0  0  0
    2.2592   -1.0849    0.5504 N   0  0  0  0  0  0  0  0  0  0  0  0
    2.9406   -1.2374   -0.7424 C   0  0  0  0  0  0  0  0  0  0  0  0
    4.4006   -1.6489   -0.5357 C   0  0  0  0  0  0  0  0  0  0  0  0
    5.0736   -1.7700   -1.8032 O   0  0  0  0  0  0  0  0  0  0  0  0
    6.3761   -2.2197   -1.7458 C   0  0  0  0  0  0  0  0  0  0  0  0
    7.0585   -2.4500   -0.5618 C   0  0  0  0  0  0  0  0  0  0  0  0
    8.3320   -2.9796   -0.5967 C   0  0  0  0  0  0  0  0  0  0  0  0
    9.0920   -3.2223    0.5164 O   0  0  0  0  0  0  0  0  0  0  0  0
    8.3343   -3.5303    1.6841 C   0  0  0  0  0  0  0  0  0  0  0  0
    8.9217   -3.3226   -1.8177 C   0  0  0  0  0  0  0  0  0  0  0  0
    8.2462   -3.2100   -3.0378 C   0  0  0  0  0  0  0  0  0  0  0  0
    8.8251   -3.7949   -4.2126 N   0  0  0  0  0  0  0  0  0  0  0  0
    7.8738   -4.1469   -5.3698 C   0  0  0  0  0  0  0  0  0  0  0  0
    7.4945   -3.0331   -6.3565 C   0  0  0  0  0  0  0  0  0  0  0  0
    6.5293   -3.2313   -7.5346 C   0  0  0  0  0  0  0  0  0  0  0  0
    7.9887   -3.0336   -7.8056 C   0  0  0  0  0  0  0  0  0  0  0  0
   10.0650   -4.5948   -4.3265 C   0  0  0  0  0  0  0  0  0  0  0  0
   10.7951   -4.3499   -5.4427 C   0  0  0  0  0  0  0  0  0  0  0  0
   11.7853   -5.1973   -5.7150 C   0  0  0  0  0  0  0  0  0  0  0  0
   12.0665   -6.3606   -5.0025 C   0  0  0  0  0  0  0  0  0  0  0  0
   12.2405   -7.2357   -5.9961 N   0  0  0  0  0  0  0  0  0  0  0  0
   13.4368   -7.7059   -6.0298 C   0  0  0  0  0  0  0  0  0  0  0  0
   14.0771   -8.1304   -4.9558 C   0  0  0  0  0  0  0  0  0  0  0  0
   15.5554   -8.6640   -5.4768 C   0  0  0  0  0  0  0  0  0  0  0  0
   16.1583   -8.4802   -6.8523 C   0  0  0  0  0  0  0  0  0  0  0  0
   17.4318   -8.8788   -6.9946 N   0  0  0  0  0  0  0  0  0  0  0  0
   17.7557   -9.3446   -5.7816 N   0  0  0  0  0  0  0  0  0  0  0  0
   19.1487   -9.7315   -5.5295 C   0  0  0  0  0  0  0  0  0  0  0  0
   16.6721   -9.2695   -4.8864 C   0  0  0  0  0  0  0  0  0  0  0  0
   13.2976   -7.8154   -3.7426 N   0  0  0  0  0  0  0  0  0  0  0  0
   11.9886   -6.7201   -3.7612 C   0  0  0  0  0  0  0  0  0  0  0  0
   10.6487   -5.7041   -3.4234 C   0  0  0  0  0  0  0  0  0  0  0  0
    7.0156   -2.5041   -2.9749 C   0  0  0  0  0  0  0  0  0  0  0  0
    0.3851   -0.5626    1.3250 H   0  0  0  0  0  0  0  0  0  0  0  0
    0.3194   -1.4341   -0.2158 H   0  0  0  0  0  0  0  0  0  0  0  0
    0.8167    0.2795   -0.1671 H   0  0  0  0  0  0  0  0  0  0  0  0
    2.2783   -1.9707    1.0569 H   0  0  0  0  0  0  0  0  0  0  0  0
    2.9177   -0.2951   -1.3022 H   0  0  0  0  0  0  0  0  0  0  0  0
    2.4346   -1.9908   -1.3577 H   0  0  0  0  0  0  0  0  0  0  0  0
    4.4134   -2.6071    0.0066 H   0  0  0  0  0  0  0  0  0  0  0  0
    4.9008   -0.8767    0.0608 H   0  0  0  0  0  0  0  0  0  0  0  0
    6.6057   -2.1783    0.3865 H   0  0  0  0  0  0  0  0  0  0  0  0
    9.0343   -3.7262    2.4984 H   0  0  0  0  0  0  0  0  0  0  0  0
    7.7271   -4.4284    1.5228 H   0  0  0  0  0  0  0  0  0  0  0  0
    7.7089   -2.6899    2.0003 H   0  0  0  0  0  0  0  0  0  0  0  0
    9.9281   -3.7135   -1.7941 H   0  0  0  0  0  0  0  0  0  0  0  0
    6.9436   -4.5325   -4.9429 H   0  0  0  0  0  0  0  0  0  0  0  0
    8.2944   -4.9835   -5.9484 H   0  0  0  0  0  0  0  0  0  0  0  0
    7.1783   -2.1418   -5.8381 H   0  0  0  0  0  0  0  0  0  0  0  0
    5.8800   -2.3919   -7.7930 H   0  0  0  0  0  0  0  0  0  0  0  0
    6.0413   -4.1862   -7.6822 H   0  0  0  0  0  0  0  0  0  0  0  0
    8.2857   -2.0929   -8.2637 H   0  0  0  0  0  0  0  0  0  0  0  0
    8.5502   -3.8746   -8.2011 H   0  0  0  0  0  0  0  0  0  0  0  0
   10.5362   -3.6425   -6.2543 H   0  0  0  0  0  0  0  0  0  0  0  0
   12.3121   -5.1397   -6.6787 H   0  0  0  0  0  0  0  0  0  0  0  0
   13.8759   -7.5009   -6.9919 H   0  0  0  0  0  0  0  0  0  0  0  0
   15.7681   -8.0033   -7.7515 H   0  0  0  0  0  0  0  0  0  0  0  0
   19.7575   -9.7326   -6.4501 H   0  0  0  0  0  0  0  0  0  0  0  0
   19.1855  -10.7393   -5.1075 H   0  0  0  0  0  0  0  0  0  0  0  0
   19.6126   -9.0210   -4.8363 H   0  0  0  0  0  0  0  0  0  0  0  0
   16.8378   -9.5856   -3.8768 H   0  0  0  0  0  0  0  0  0  0  0  0
   10.0624   -5.8845   -2.5153 H   0  0  0  0  0  0  0  0  0  0  0  0
    6.5068   -2.1164   -3.8517 H   0  0  0  0  0  0  0  0  0  0  0  0
  1  2  1  0  0  0  0
  1 35  1  0  0  0  0
  1 36  1  0  0  0  0
  1 37  1  0  0  0  0
  2  3  1  0  0  0  0
  2 38  1  0  0  0  0
  3  4  1  0  0  0  0
  3 39  1  0  0  0  0
  3 40  1  0  0  0  0
  4  5  1  0  0  0  0
  4 41  1  0  0  0  0
  4 42  1  0  0  0  0
  5  6  1  0  0  0  0
  6  7  1  0  0  0  0
  6 34  2  0  0  0  0
  7  8  2  0  0  0  0
  7 43  1  0  0  0  0
  8  9  1  0  0  0  0
  8 11  1  0  0  0  0
  9 10  1  0  0  0  0
 10 44  1  0  0  0  0
 10 45  1  0  0  0  0
 10 46  1  0  0  0  0
 11 12  2  0  0  0  0
 11 47  1  0  0  0  0
 12 13  1  0  0  0  0
 12 34  1  0  0  0  0
 13 14  1  0  0  0  0
 13 18  1  0  0  0  0
 14 15  1  0  0  0  0
 14 48  1  0  0  0  0
 14 49  1  0  0  0  0
 15 16  1  0  0  0  0
 15 17  1  0  0  0  0
 15 50  1  0  0  0  0
 16 17  1  0  0  0  0
 16 51  1  0  0  0  0
 16 52  1  0  0  0  0
 17 53  1  0  0  0  0
 17 54  1  0  0  0  0
 18 19  1  0  0  0  0
 18 33  2  0  0  0  0
 19 20  2  0  0  0  0
 19 55  1  0  0  0  0
 20 21  1  0  0  0  0
 20 56  1  0  0  0  0
 21 22  1  0  0  0  0
 21 32  2  0  0  0  0
 22 23  2  0  0  0  0
 23 24  1  0  0  0  0
 23 57  1  0  0  0  0
 24 25  1  0  0  0  0
 24 31  2  0  0  0  0
 25 26  1  0  0  0  0
 25 30  2  0  0  0  0
 26 27  2  0  0  0  0
 26 58  1  0  0  0  0
 27 28  1  0  0  0  0
 28 29  1  0  0  0  0
 28 30  1  0  0  0  0
 29 59  1  0  0  0  0
 29 60  1  0  0  0  0
 29 61  1  0  0  0  0
 30 62  1  0  0  0  0
 31 32  1  0  0  0  0
 32 33  1  0  0  0  0
 33 63  1  0  0  0  0
 34 64  1  0  0  0  0
M  END
$$$$
