CHEMBL219998
 OpenBabel04072215363D

 50 53  0  0  0  0  0  0  0  0999 V2000
    1.9398   -0.5955    0.3849 C   0  0  0  0  0  0  0  0  0  0  0  0
    2.2038   -0.2662   -0.9719 O   0  0  0  0  0  0  0  0  0  0  0  0
    3.0017    0.8426   -1.1920 C   0  0  0  0  0  0  0  0  0  0  0  0
    2.7280    1.5458   -2.3652 C   0  0  0  0  0  0  0  0  0  0  0  0
    3.5213    2.6197   -2.7663 C   0  0  0  0  0  0  0  0  0  0  0  0
    4.6512    3.0406   -2.0262 C   0  0  0  0  0  0  0  0  0  0  0  0
    5.5036    4.1440   -2.5215 C   0  0  0  0  0  0  0  0  0  0  0  0
    6.0087    5.1013   -1.6490 C   0  0  0  0  0  0  0  0  0  0  0  0
    6.9411    6.0545   -2.0563 C   0  0  0  0  0  0  0  0  0  0  0  0
    7.2831    6.2167   -3.3970 C   0  0  0  0  0  0  0  0  0  0  0  0
    8.1334    7.2640   -3.8448 N   0  0  0  0  0  0  0  0  0  0  0  0
    8.7763    8.1718   -3.0177 C   0  0  0  0  0  0  0  0  0  0  0  0
    8.7748    8.1310   -1.7872 O   0  0  0  0  0  0  0  0  0  0  0  0
    9.4291    9.1804   -3.7093 N   0  0  0  0  0  0  0  0  0  0  0  0
   10.1216   10.1940   -2.9802 C   0  0  0  0  0  0  0  0  0  0  0  0
   11.0505    9.8449   -1.9881 C   0  0  0  0  0  0  0  0  0  0  0  0
   11.6978   10.8386   -1.2609 C   0  0  0  0  0  0  0  0  0  0  0  0
   11.4191   12.1811   -1.5049 C   0  0  0  0  0  0  0  0  0  0  0  0
   10.4954   12.5390   -2.4998 C   0  0  0  0  0  0  0  0  0  0  0  0
   10.1816   13.9864   -2.7423 C   0  0  0  0  0  0  0  0  0  0  0  0
    9.8508   11.5380   -3.2353 C   0  0  0  0  0  0  0  0  0  0  0  0
    6.7153    5.3277   -4.3126 C   0  0  0  0  0  0  0  0  0  0  0  0
    5.8577    4.2941   -3.8780 C   0  0  0  0  0  0  0  0  0  0  0  0
    4.9376    2.3354   -0.8061 C   0  0  0  0  0  0  0  0  0  0  0  0
    5.9119    2.3713    0.2586 C   0  0  0  0  0  0  0  0  0  0  0  0
    6.9456    3.2074    0.4145 N   0  0  0  0  0  0  0  0  0  0  0  0
    5.7095    1.4322    1.1723 N   0  0  0  0  0  0  0  0  0  0  0  0
    4.6680    0.7563    0.7030 N   0  0  0  0  0  0  0  0  0  0  0  0
    4.1096    1.2587   -0.4386 C   0  0  0  0  0  0  0  0  0  0  0  0
    1.1270   -1.3279    0.4019 H   0  0  0  0  0  0  0  0  0  0  0  0
    1.6254    0.2798    0.9621 H   0  0  0  0  0  0  0  0  0  0  0  0
    2.7982   -1.0913    0.8422 H   0  0  0  0  0  0  0  0  0  0  0  0
    1.8846    1.2448   -2.9837 H   0  0  0  0  0  0  0  0  0  0  0  0
    3.2505    3.1395   -3.6841 H   0  0  0  0  0  0  0  0  0  0  0  0
    5.7259    5.1001   -0.5975 H   0  0  0  0  0  0  0  0  0  0  0  0
    7.3667    6.6573   -1.2639 H   0  0  0  0  0  0  0  0  0  0  0  0
    8.3099    7.3261   -4.8361 H   0  0  0  0  0  0  0  0  0  0  0  0
    8.9684    9.4808   -4.5553 H   0  0  0  0  0  0  0  0  0  0  0  0
   11.2651    8.8041   -1.7802 H   0  0  0  0  0  0  0  0  0  0  0  0
   12.4178   10.5637   -0.4903 H   0  0  0  0  0  0  0  0  0  0  0  0
   11.9189   12.9308   -0.9171 H   0  0  0  0  0  0  0  0  0  0  0  0
   10.8518   14.6411   -2.1762 H   0  0  0  0  0  0  0  0  0  0  0  0
    9.1537   14.2160   -2.4457 H   0  0  0  0  0  0  0  0  0  0  0  0
   10.3144   14.2191   -3.8041 H   0  0  0  0  0  0  0  0  0  0  0  0
    9.0934   11.8108   -3.9649 H   0  0  0  0  0  0  0  0  0  0  0  0
    6.9333    5.4066   -5.3787 H   0  0  0  0  0  0  0  0  0  0  0  0
    5.4749    3.5947   -4.6205 H   0  0  0  0  0  0  0  0  0  0  0  0
    7.3859    3.6593   -0.3760 H   0  0  0  0  0  0  0  0  0  0  0  0
    7.5964    2.9789    1.1569 H   0  0  0  0  0  0  0  0  0  0  0  0
    4.3878   -0.0584    1.2280 H   0  0  0  0  0  0  0  0  0  0  0  0
  1  2  1  0  0  0  0
  1 30  1  0  0  0  0
  1 31  1  0  0  0  0
  1 32  1  0  0  0  0
  2  3  1  0  0  0  0
  3  4  1  0  0  0  0
  3 29  2  0  0  0  0
  4  5  2  0  0  0  0
  4 33  1  0  0  0  0
  5  6  1  0  0  0  0
  5 34  1  0  0  0  0
  6  7  1  0  0  0  0
  6 24  2  0  0  0  0
  7  8  1  0  0  0  0
  7 23  2  0  0  0  0
  8  9  2  0  0  0  0
  8 35  1  0  0  0  0
  9 10  1  0  0  0  0
  9 36  1  0  0  0  0
 10 11  1  0  0  0  0
 10 22  2  0  0  0  0
 11 12  1  0  0  0  0
 11 37  1  0  0  0  0
 12 13  2  0  0  0  0
 12 14  1  0  0  0  0
 14 15  1  0  0  0  0
 14 38  1  0  0  0  0
 15 16  1  0  0  0  0
 15 21  2  0  0  0  0
 16 17  2  0  0  0  0
 16 39  1  0  0  0  0
 17 18  1  0  0  0  0
 17 40  1  0  0  0  0
 18 19  2  0  0  0  0
 18 41  1  0  0  0  0
 19 20  1  0  0  0  0
 19 21  1  0  0  0  0
 20 42  1  0  0  0  0
 20 43  1  0  0  0  0
 20 44  1  0  0  0  0
 21 45  1  0  0  0  0
 22 23  1  0  0  0  0
 22 46  1  0  0  0  0
 23 47  1  0  0  0  0
 24 25  1  0  0  0  0
 24 29  1  0  0  0  0
 25 26  1  0  0  0  0
 25 27  2  0  0  0  0
 26 48  1  0  0  0  0
 26 49  1  0  0  0  0
 27 28  1  0  0  0  0
 28 29  1  0  0  0  0
 28 50  1  0  0  0  0
M  END
$$$$
