CHEMBL275117
 OpenBabel04072215363D

 56 58  0  0  0  0  0  0  0  0999 V2000
    4.7728    1.5509   -0.3235 C   0  0  0  0  0  0  0  0  0  0  0  0
    4.4163    0.0854   -0.0897 C   0  0  0  0  0  0  0  0  0  0  0  0
    4.8360   -0.4477    1.2180 N   0  0  0  0  0  0  0  0  0  0  0  0
    4.3245    0.3341    2.3647 C   0  0  0  0  0  0  0  0  0  0  0  0
    2.8085    0.3595    2.5681 C   0  0  0  0  0  0  0  0  0  0  0  0
    4.4837   -1.8809    1.3605 C   0  0  0  0  0  0  0  0  0  0  0  0
    5.0853   -2.8526    0.3213 C   0  0  0  0  0  0  0  0  0  0  0  0
    6.5354   -2.9042    0.3319 N   0  0  0  0  0  0  0  0  0  0  0  0
    7.2001   -4.0291   -0.1197 C   0  0  0  0  0  0  0  0  0  0  0  0
    6.5894   -5.0248   -0.5031 O   0  0  0  0  0  0  0  0  0  0  0  0
    8.6731   -3.9706   -0.1371 C   0  0  0  0  0  0  0  0  0  0  0  0
    9.5229   -3.2094    0.6643 C   0  0  0  0  0  0  0  0  0  0  0  0
    9.2880   -2.2485    1.7760 C   0  0  0  0  0  0  0  0  0  0  0  0
   10.8197   -3.5076    0.3022 N   0  0  0  0  0  0  0  0  0  0  0  0
   10.8475   -4.4743   -0.6675 C   0  0  0  0  0  0  0  0  0  0  0  0
   12.1097   -4.9487   -1.1106 C   0  0  0  0  0  0  0  0  0  0  0  0
   12.7778   -4.4142   -2.1464 C   0  0  0  0  0  0  0  0  0  0  0  0
   12.3443   -3.2403   -2.9932 C   0  0  0  0  0  0  0  0  0  0  0  0
   11.3340   -2.5701   -2.9223 O   0  0  0  0  0  0  0  0  0  0  0  0
   13.3807   -3.0438   -3.8928 N   0  0  0  0  0  0  0  0  0  0  0  0
   14.4055   -3.9622   -3.7047 C   0  0  0  0  0  0  0  0  0  0  0  0
   15.5830   -4.0274   -4.4235 C   0  0  0  0  0  0  0  0  0  0  0  0
   16.4837   -5.0359   -4.0835 C   0  0  0  0  0  0  0  0  0  0  0  0
   16.1864   -5.9400   -3.0466 C   0  0  0  0  0  0  0  0  0  0  0  0
   14.9857   -5.8483   -2.3225 C   0  0  0  0  0  0  0  0  0  0  0  0
   14.0964   -4.8431   -2.6615 C   0  0  0  0  0  0  0  0  0  0  0  0
    9.5340   -4.7901   -0.9716 C   0  0  0  0  0  0  0  0  0  0  0  0
    9.0748   -5.7880   -1.9804 C   0  0  0  0  0  0  0  0  0  0  0  0
    4.6425    1.7971   -1.3829 H   0  0  0  0  0  0  0  0  0  0  0  0
    5.8163    1.7538   -0.0611 H   0  0  0  0  0  0  0  0  0  0  0  0
    4.1275    2.2231    0.2502 H   0  0  0  0  0  0  0  0  0  0  0  0
    4.9314   -0.4713   -0.8790 H   0  0  0  0  0  0  0  0  0  0  0  0
    3.3411   -0.0556   -0.2520 H   0  0  0  0  0  0  0  0  0  0  0  0
    4.6857    1.3666    2.2936 H   0  0  0  0  0  0  0  0  0  0  0  0
    4.7854   -0.0481    3.2850 H   0  0  0  0  0  0  0  0  0  0  0  0
    2.2668    0.5962    1.6482 H   0  0  0  0  0  0  0  0  0  0  0  0
    2.5453    1.1260    3.3056 H   0  0  0  0  0  0  0  0  0  0  0  0
    2.4417   -0.5987    2.9500 H   0  0  0  0  0  0  0  0  0  0  0  0
    3.3938   -2.0030    1.3290 H   0  0  0  0  0  0  0  0  0  0  0  0
    4.8163   -2.2209    2.3503 H   0  0  0  0  0  0  0  0  0  0  0  0
    4.7682   -2.6047   -0.6968 H   0  0  0  0  0  0  0  0  0  0  0  0
    4.6966   -3.8559    0.5298 H   0  0  0  0  0  0  0  0  0  0  0  0
    7.0373   -2.0262    0.3376 H   0  0  0  0  0  0  0  0  0  0  0  0
    8.2376   -2.1678    2.0596 H   0  0  0  0  0  0  0  0  0  0  0  0
    9.6435   -1.2511    1.4973 H   0  0  0  0  0  0  0  0  0  0  0  0
    9.8311   -2.5687    2.6717 H   0  0  0  0  0  0  0  0  0  0  0  0
   11.6402   -3.0872    0.7164 H   0  0  0  0  0  0  0  0  0  0  0  0
   12.5265   -5.7957   -0.5729 H   0  0  0  0  0  0  0  0  0  0  0  0
   13.3577   -2.3124   -4.5857 H   0  0  0  0  0  0  0  0  0  0  0  0
   15.8008   -3.3293   -5.2230 H   0  0  0  0  0  0  0  0  0  0  0  0
   17.4230   -5.1239   -4.6263 H   0  0  0  0  0  0  0  0  0  0  0  0
   16.9045   -6.7211   -2.8054 H   0  0  0  0  0  0  0  0  0  0  0  0
   14.7758   -6.5539   -1.5289 H   0  0  0  0  0  0  0  0  0  0  0  0
    9.9169   -6.2638   -2.4926 H   0  0  0  0  0  0  0  0  0  0  0  0
    8.4531   -5.3029   -2.7399 H   0  0  0  0  0  0  0  0  0  0  0  0
    8.4910   -6.5794   -1.5001 H   0  0  0  0  0  0  0  0  0  0  0  0
  1  2  1  0  0  0  0
  1 29  1  0  0  0  0
  1 30  1  0  0  0  0
  1 31  1  0  0  0  0
  2  3  1  0  0  0  0
  2 32  1  0  0  0  0
  2 33  1  0  0  0  0
  3  4  1  0  0  0  0
  3  6  1  0  0  0  0
  4  5  1  0  0  0  0
  4 34  1  0  0  0  0
  4 35  1  0  0  0  0
  5 36  1  0  0  0  0
  5 37  1  0  0  0  0
  5 38  1  0  0  0  0
  6  7  1  0  0  0  0
  6 39  1  0  0  0  0
  6 40  1  0  0  0  0
  7  8  1  0  0  0  0
  7 41  1  0  0  0  0
  7 42  1  0  0  0  0
  8  9  1  0  0  0  0
  8 43  1  0  0  0  0
  9 10  2  0  0  0  0
  9 11  1  0  0  0  0
 11 12  2  0  0  0  0
 11 27  1  0  0  0  0
 12 13  1  0  0  0  0
 12 14  1  0  0  0  0
 13 44  1  0  0  0  0
 13 45  1  0  0  0  0
 13 46  1  0  0  0  0
 14 15  1  0  0  0  0
 14 47  1  0  0  0  0
 15 16  1  0  0  0  0
 15 27  2  0  0  0  0
 16 17  2  0  0  0  0
 16 48  1  0  0  0  0
 17 18  1  0  0  0  0
 17 26  1  0  0  0  0
 18 19  2  0  0  0  0
 18 20  1  0  0  0  0
 20 21  1  0  0  0  0
 20 49  1  0  0  0  0
 21 22  1  0  0  0  0
 21 26  2  0  0  0  0
 22 23  2  0  0  0  0
 22 50  1  0  0  0  0
 23 24  1  0  0  0  0
 23 51  1  0  0  0  0
 24 25  2  0  0  0  0
 24 52  1  0  0  0  0
 25 26  1  0  0  0  0
 25 53  1  0  0  0  0
 27 28  1  0  0  0  0
 28 54  1  0  0  0  0
 28 55  1  0  0  0  0
 28 56  1  0  0  0  0
M  END
$$$$
