CHEMBL3893032
 OpenBabel04072215373D

 52 55  0  0  1  0  0  0  0  0999 V2000
    2.9469    0.3162    1.1683 C   0  0  0  0  0  0  0  0  0  0  0  0
    2.5199    0.3941   -0.1842 O   0  0  0  0  0  0  0  0  0  0  0  0
    3.0750   -0.3920   -1.1445 C   0  0  0  0  0  0  0  0  0  0  0  0
    4.0349   -1.3546   -0.8437 C   0  0  0  0  0  0  0  0  0  0  0  0
    4.6602   -2.1183   -1.8433 C   0  0  0  0  0  0  0  0  0  0  0  0
    5.6835   -3.0415   -1.5722 C   0  0  0  0  0  0  0  0  0  0  0  0
    6.0824   -3.2495   -0.2178 N   0  0  0  0  0  0  0  0  0  0  0  0
    7.2962   -3.8470    0.1737 C   0  0  0  0  0  0  0  0  0  0  0  0
    8.5063   -3.4398   -0.4053 C   0  0  0  0  0  0  0  0  0  0  0  0
    9.6980   -4.0931   -0.1004 C   0  0  0  0  0  0  0  0  0  0  0  0
    9.6852   -5.1547    0.7953 C   0  0  0  0  0  0  0  0  0  0  0  0
   10.8307   -5.8088    1.0350 F   0  0  0  0  0  0  0  0  0  0  0  0
    8.5000   -5.5378    1.4206 C   0  0  0  0  0  0  0  0  0  0  0  0
    8.4822   -6.8491    2.5372 Cl  0  0  0  0  0  0  0  0  0  0  0  0
    7.3079   -4.8736    1.1258 C   0  0  0  0  0  0  0  0  0  0  0  0
    6.3016   -3.7260   -2.5487 N   0  0  0  0  0  0  0  0  0  0  0  0
    5.8680   -3.5044   -3.7938 C   0  0  0  0  0  0  0  0  0  0  0  0
    4.8963   -2.6561   -4.1627 N   0  0  0  0  0  0  0  0  0  0  0  0
    4.3050   -1.9531   -3.1849 C   0  0  0  0  0  0  0  0  0  0  0  0
    3.3059   -1.0242   -3.4824 C   0  0  0  0  0  0  0  0  0  0  0  0
    2.6891   -0.2327   -2.4962 C   0  0  0  0  0  0  0  0  0  0  0  0
    1.7361    0.6386   -3.0086 O   0  0  0  0  0  0  0  0  0  0  0  0
    1.1434    1.5118   -2.0489 C   0  0  0  0  0  0  0  0  0  0  0  0
    0.1064    2.5085   -2.5813 C   0  0  3  0  0  0  0  0  0  0  0  0
    0.6532    3.5740   -3.5542 C   0  0  0  0  0  0  0  0  0  0  0  0
    1.5418    4.5647   -2.9048 N   0  0  0  0  0  0  0  0  0  0  0  0
    1.8932    5.6276   -3.8486 C   0  0  0  0  0  0  0  0  0  0  0  0
    0.8650    5.1433   -1.7258 C   0  0  0  0  0  0  0  0  0  0  0  0
    0.3416    4.0610   -0.7746 C   0  0  0  0  0  0  0  0  0  0  0  0
   -0.5469    3.1597   -1.4577 O   0  0  0  0  0  0  0  0  0  0  0  0
    2.7092    1.2738    1.6410 H   0  0  0  0  0  0  0  0  0  0  0  0
    4.0251    0.1756    1.2839 H   0  0  0  0  0  0  0  0  0  0  0  0
    2.3879   -0.4689    1.6851 H   0  0  0  0  0  0  0  0  0  0  0  0
    4.3512   -1.5037    0.1814 H   0  0  0  0  0  0  0  0  0  0  0  0
    5.2853   -3.5837    0.3135 H   0  0  0  0  0  0  0  0  0  0  0  0
    8.5173   -2.6139   -1.1148 H   0  0  0  0  0  0  0  0  0  0  0  0
   10.6278   -3.7942   -0.5746 H   0  0  0  0  0  0  0  0  0  0  0  0
    6.3871   -5.1879    1.6097 H   0  0  0  0  0  0  0  0  0  0  0  0
    6.3562   -4.0658   -4.5833 H   0  0  0  0  0  0  0  0  0  0  0  0
    3.0155   -0.9005   -4.5275 H   0  0  0  0  0  0  0  0  0  0  0  0
    1.9454    2.0841   -1.5768 H   0  0  0  0  0  0  0  0  0  0  0  0
    0.6067    0.9038   -1.3093 H   0  0  0  0  0  0  0  0  0  0  0  0
   -0.6728    1.9459   -3.1094 H   0  0  0  0  0  0  0  0  0  0  0  0
   -0.2098    4.1026   -3.9831 H   0  0  0  0  0  0  0  0  0  0  0  0
    1.1807    3.0813   -4.3790 H   0  0  0  0  0  0  0  0  0  0  0  0
    2.3957    5.2136   -4.7288 H   0  0  0  0  0  0  0  0  0  0  0  0
    2.5906    6.3352   -3.3864 H   0  0  0  0  0  0  0  0  0  0  0  0
    1.0132    6.1881   -4.1881 H   0  0  0  0  0  0  0  0  0  0  0  0
    0.0144    5.7599   -2.0449 H   0  0  0  0  0  0  0  0  0  0  0  0
    1.5637    5.7878   -1.1796 H   0  0  0  0  0  0  0  0  0  0  0  0
   -0.2216    4.5255    0.0408 H   0  0  0  0  0  0  0  0  0  0  0  0
    1.1635    3.5117   -0.3027 H   0  0  0  0  0  0  0  0  0  0  0  0
  1  2  1  0  0  0  0
  1 31  1  0  0  0  0
  1 32  1  0  0  0  0
  1 33  1  0  0  0  0
  2  3  1  0  0  0  0
  3  4  1  0  0  0  0
  3 21  2  0  0  0  0
  4  5  2  0  0  0  0
  4 34  1  0  0  0  0
  5  6  1  0  0  0  0
  5 19  1  0  0  0  0
  6  7  1  0  0  0  0
  6 16  2  0  0  0  0
  7  8  1  0  0  0  0
  7 35  1  0  0  0  0
  8  9  1  0  0  0  0
  8 15  2  0  0  0  0
  9 10  2  0  0  0  0
  9 36  1  0  0  0  0
 10 11  1  0  0  0  0
 10 37  1  0  0  0  0
 11 12  1  0  0  0  0
 11 13  2  0  0  0  0
 13 14  1  0  0  0  0
 13 15  1  0  0  0  0
 15 38  1  0  0  0  0
 16 17  1  0  0  0  0
 17 18  2  0  0  0  0
 17 39  1  0  0  0  0
 18 19  1  0  0  0  0
 19 20  2  0  0  0  0
 20 21  1  0  0  0  0
 20 40  1  0  0  0  0
 21 22  1  0  0  0  0
 22 23  1  0  0  0  0
 23 24  1  0  0  0  0
 23 41  1  0  0  0  0
 23 42  1  0  0  0  0
 24 25  1  0  0  0  0
 24 30  1  0  0  0  0
 24 43  1  0  0  0  0
 25 26  1  0  0  0  0
 25 44  1  0  0  0  0
 25 45  1  0  0  0  0
 26 27  1  0  0  0  0
 26 28  1  0  0  0  0
 27 46  1  0  0  0  0
 27 47  1  0  0  0  0
 27 48  1  0  0  0  0
 28 29  1  0  0  0  0
 28 49  1  0  0  0  0
 28 50  1  0  0  0  0
 29 30  1  0  0  0  0
 29 51  1  0  0  0  0
 29 52  1  0  0  0  0
M  END
$$$$
