CHEMBL2018758
 OpenBabel04072215363D

 56 58  0  0  0  0  0  0  0  0999 V2000
    0.9850    5.9830    3.9480 C   0  0  0  0  0  0  0  0  0  0  0  0
    2.2428    5.1426    3.8289 C   0  0  0  0  0  0  0  0  0  0  0  0
    2.9177    5.2542    2.4573 C   0  0  0  0  0  0  0  0  0  0  0  0
    4.1424    4.3442    2.4329 C   0  0  0  0  0  0  0  0  0  0  0  0
    4.8380    4.3383    1.1776 O   0  0  0  0  0  0  0  0  0  0  0  0
    5.9712    5.0861    1.1994 C   0  0  0  0  0  0  0  0  0  0  0  0
    6.0916    6.0964    1.8765 O   0  0  0  0  0  0  0  0  0  0  0  0
    6.9354    4.4620    0.4507 N   0  0  0  0  0  0  0  0  0  0  0  0
    8.3279    4.6999    0.4847 C   0  0  0  0  0  0  0  0  0  0  0  0
    8.9053    5.5685    1.4200 C   0  0  0  0  0  0  0  0  0  0  0  0
   10.2894    5.7808    1.4660 C   0  0  0  0  0  0  0  0  0  0  0  0
   11.1422    5.1029    0.6035 C   0  0  0  0  0  0  0  0  0  0  0  0
   12.5285    5.3606    0.6212 N   0  0  0  0  0  0  0  0  0  0  0  0
   13.5533    4.4621    0.2336 C   0  0  0  0  0  0  0  0  0  0  0  0
   13.3510    3.1516    0.4471 N   0  0  0  0  0  0  0  0  0  0  0  0
   14.3016    2.3208   -0.0012 C   0  0  0  0  0  0  0  0  0  0  0  0
   15.4023    2.6727   -0.6673 N   0  0  0  0  0  0  0  0  0  0  0  0
   15.5892    3.9825   -0.8867 C   0  0  0  0  0  0  0  0  0  0  0  0
   16.6602    4.4137   -1.6746 C   0  0  0  0  0  0  0  0  0  0  0  0
   16.8980    5.7714   -1.9943 C   0  0  0  0  0  0  0  0  0  0  0  0
   17.7607    5.9414   -3.0453 O   0  0  0  0  0  0  0  0  0  0  0  0
   18.9801    6.6252   -2.7975 C   0  0  0  0  0  0  0  0  0  0  0  0
   16.0649    6.7457   -1.4411 C   0  0  0  0  0  0  0  0  0  0  0  0
   16.0174    8.0986   -1.5570 O   0  0  0  0  0  0  0  0  0  0  0  0
   16.9464    8.8418   -2.3088 C   0  0  0  0  0  0  0  0  0  0  0  0
   14.9831    6.3118   -0.6532 C   0  0  0  0  0  0  0  0  0  0  0  0
   14.7073    4.9479   -0.4032 C   0  0  0  0  0  0  0  0  0  0  0  0
   10.5665    4.2340   -0.3350 C   0  0  0  0  0  0  0  0  0  0  0  0
    9.1734    4.0237   -0.4133 C   0  0  0  0  0  0  0  0  0  0  0  0
    8.6625    3.0838   -1.4754 C   0  0  0  0  0  0  0  0  0  0  0  0
    0.5475    5.8569    4.9447 H   0  0  0  0  0  0  0  0  0  0  0  0
    0.2365    5.6787    3.2106 H   0  0  0  0  0  0  0  0  0  0  0  0
    1.2048    7.0453    3.8078 H   0  0  0  0  0  0  0  0  0  0  0  0
    1.9861    4.0946    4.0261 H   0  0  0  0  0  0  0  0  0  0  0  0
    2.9488    5.4490    4.6106 H   0  0  0  0  0  0  0  0  0  0  0  0
    3.2080    6.2921    2.2550 H   0  0  0  0  0  0  0  0  0  0  0  0
    2.2232    4.9667    1.6592 H   0  0  0  0  0  0  0  0  0  0  0  0
    3.8299    3.3094    2.6087 H   0  0  0  0  0  0  0  0  0  0  0  0
    4.8222    4.5990    3.2572 H   0  0  0  0  0  0  0  0  0  0  0  0
    6.5929    3.6819   -0.0914 H   0  0  0  0  0  0  0  0  0  0  0  0
    8.3024    6.0941    2.1549 H   0  0  0  0  0  0  0  0  0  0  0  0
   10.6787    6.4789    2.2059 H   0  0  0  0  0  0  0  0  0  0  0  0
   12.8345    5.9515    1.3845 H   0  0  0  0  0  0  0  0  0  0  0  0
   14.1419    1.2638    0.1899 H   0  0  0  0  0  0  0  0  0  0  0  0
   17.2956    3.6459   -2.1142 H   0  0  0  0  0  0  0  0  0  0  0  0
   19.8038    6.0585   -3.2436 H   0  0  0  0  0  0  0  0  0  0  0  0
   19.1939    6.7919   -1.7382 H   0  0  0  0  0  0  0  0  0  0  0  0
   18.9540    7.5730   -3.3424 H   0  0  0  0  0  0  0  0  0  0  0  0
   16.6363    9.8910   -2.2539 H   0  0  0  0  0  0  0  0  0  0  0  0
   16.9327    8.5549   -3.3626 H   0  0  0  0  0  0  0  0  0  0  0  0
   17.9410    8.8000   -1.8595 H   0  0  0  0  0  0  0  0  0  0  0  0
   14.2941    7.0683   -0.2826 H   0  0  0  0  0  0  0  0  0  0  0  0
   11.2147    3.7181   -1.0392 H   0  0  0  0  0  0  0  0  0  0  0  0
    9.4543    2.8194   -2.1861 H   0  0  0  0  0  0  0  0  0  0  0  0
    7.8655    3.5594   -2.0553 H   0  0  0  0  0  0  0  0  0  0  0  0
    8.2932    2.1586   -1.0253 H   0  0  0  0  0  0  0  0  0  0  0  0
  1  2  1  0  0  0  0
  1 31  1  0  0  0  0
  1 32  1  0  0  0  0
  1 33  1  0  0  0  0
  2  3  1  0  0  0  0
  2 34  1  0  0  0  0
  2 35  1  0  0  0  0
  3  4  1  0  0  0  0
  3 36  1  0  0  0  0
  3 37  1  0  0  0  0
  4  5  1  0  0  0  0
  4 38  1  0  0  0  0
  4 39  1  0  0  0  0
  5  6  1  0  0  0  0
  6  7  2  0  0  0  0
  6  8  1  0  0  0  0
  8  9  1  0  0  0  0
  8 40  1  0  0  0  0
  9 10  1  0  0  0  0
  9 29  2  0  0  0  0
 10 11  2  0  0  0  0
 10 41  1  0  0  0  0
 11 12  1  0  0  0  0
 11 42  1  0  0  0  0
 12 13  1  0  0  0  0
 12 28  2  0  0  0  0
 13 14  1  0  0  0  0
 13 43  1  0  0  0  0
 14 15  1  0  0  0  0
 14 27  2  0  0  0  0
 15 16  2  0  0  0  0
 16 17  1  0  0  0  0
 16 44  1  0  0  0  0
 17 18  2  0  0  0  0
 18 19  1  0  0  0  0
 18 27  1  0  0  0  0
 19 20  2  0  0  0  0
 19 45  1  0  0  0  0
 20 21  1  0  0  0  0
 20 23  1  0  0  0  0
 21 22  1  0  0  0  0
 22 46  1  0  0  0  0
 22 47  1  0  0  0  0
 22 48  1  0  0  0  0
 23 24  1  0  0  0  0
 23 26  2  0  0  0  0
 24 25  1  0  0  0  0
 25 49  1  0  0  0  0
 25 50  1  0  0  0  0
 25 51  1  0  0  0  0
 26 27  1  0  0  0  0
 26 52  1  0  0  0  0
 28 29  1  0  0  0  0
 28 53  1  0  0  0  0
 29 30  1  0  0  0  0
 30 54  1  0  0  0  0
 30 55  1  0  0  0  0
 30 56  1  0  0  0  0
M  END
$$$$
