CHEMBL1087636
 OpenBabel04072215363D

 65 69  0  0  0  0  0  0  0  0999 V2000
   -1.5039   -1.9118    1.4643 C   0  0  0  0  0  0  0  0  0  0  0  0
   -0.9082   -1.0035    0.4152 C   0  0  0  0  0  0  0  0  0  0  0  0
   -1.6499    0.1145    0.0174 C   0  0  0  0  0  0  0  0  0  0  0  0
   -1.1221    1.0370   -0.8835 C   0  0  0  0  0  0  0  0  0  0  0  0
    0.1796    0.8967   -1.3515 C   0  0  0  0  0  0  0  0  0  0  0  0
    0.8046    1.8070   -2.2366 N   0  0  0  0  0  0  0  0  0  0  0  0
    0.2062    2.9009   -2.8343 C   0  0  0  0  0  0  0  0  0  0  0  0
   -0.9588    3.2650   -2.6930 O   0  0  0  0  0  0  0  0  0  0  0  0
    1.0496    3.6872   -3.7741 C   0  0  0  0  0  0  0  0  0  0  0  0
    2.4247    3.8657   -3.5980 C   0  0  0  0  0  0  0  0  0  0  0  0
    3.1390    4.6709   -4.4863 C   0  0  0  0  0  0  0  0  0  0  0  0
    2.4866    5.3014   -5.5528 C   0  0  0  0  0  0  0  0  0  0  0  0
    1.1101    5.1255   -5.7486 C   0  0  0  0  0  0  0  0  0  0  0  0
    0.3836    5.7732   -6.9012 C   0  0  0  0  0  0  0  0  0  0  0  0
    1.1941    6.5211   -7.7013 F   0  0  0  0  0  0  0  0  0  0  0  0
   -0.2041    4.8581   -7.7211 F   0  0  0  0  0  0  0  0  0  0  0  0
   -0.6120    6.6076   -6.4953 F   0  0  0  0  0  0  0  0  0  0  0  0
    0.3998    4.3218   -4.8453 C   0  0  0  0  0  0  0  0  0  0  0  0
    0.9218   -0.2184   -0.9429 C   0  0  0  0  0  0  0  0  0  0  0  0
    0.3702   -1.2292   -0.1508 C   0  0  0  0  0  0  0  0  0  0  0  0
    1.0408   -2.4282    0.1504 N   0  0  0  0  0  0  0  0  0  0  0  0
    1.9965   -3.1511   -0.5002 C   0  0  0  0  0  0  0  0  0  0  0  0
    2.0040   -4.4588   -0.2973 N   0  0  0  0  0  0  0  0  0  0  0  0
    3.1210   -4.6271    0.4758 C   0  0  0  0  0  0  0  0  0  0  0  0
    3.4474   -5.6753    1.3450 C   0  0  0  0  0  0  0  0  0  0  0  0
    4.5988   -5.5504    2.1279 C   0  0  0  0  0  0  0  0  0  0  0  0
    5.4430   -4.4432    1.9926 C   0  0  0  0  0  0  0  0  0  0  0  0
    5.1657   -3.4191    1.0782 C   0  0  0  0  0  0  0  0  0  0  0  0
    3.9686   -3.5213    0.3658 C   0  0  0  0  0  0  0  0  0  0  0  0
    3.3297   -2.7509   -0.6063 N   0  0  0  0  0  0  0  0  0  0  0  0
    3.9722   -1.9437   -1.5898 C   0  0  0  0  0  0  0  0  0  0  0  0
    3.3481   -1.6752   -2.7999 C   0  0  0  0  0  0  0  0  0  0  0  0
    4.0798   -0.9757   -3.7484 C   0  0  0  0  0  0  0  0  0  0  0  0
    3.4888   -0.6575   -4.9797 N   0  0  0  0  0  0  0  0  0  0  0  0
    4.4337   -0.3590   -6.0767 C   0  0  0  0  0  0  0  0  0  0  0  0
    5.2752   -1.5899   -6.4934 C   0  0  0  0  0  0  0  0  0  0  0  0
    4.4501   -2.7608   -6.8282 N   0  0  0  0  0  0  0  0  0  0  0  0
    5.3137   -0.5214   -3.4824 N   0  0  0  0  0  0  0  0  0  0  0  0
    5.8339   -0.8263   -2.2902 C   0  0  0  0  0  0  0  0  0  0  0  0
    5.2315   -1.5328   -1.3312 N   0  0  0  0  0  0  0  0  0  0  0  0
   -2.4933   -1.5671    1.7844 H   0  0  0  0  0  0  0  0  0  0  0  0
   -0.8644   -1.9232    2.3550 H   0  0  0  0  0  0  0  0  0  0  0  0
   -1.6232   -2.9311    1.0855 H   0  0  0  0  0  0  0  0  0  0  0  0
   -2.6532    0.2782    0.4030 H   0  0  0  0  0  0  0  0  0  0  0  0
   -1.7574    1.8662   -1.1760 H   0  0  0  0  0  0  0  0  0  0  0  0
    1.7478    1.5741   -2.5225 H   0  0  0  0  0  0  0  0  0  0  0  0
    2.9518    3.4166   -2.7588 H   0  0  0  0  0  0  0  0  0  0  0  0
    4.2070    4.8269   -4.3433 H   0  0  0  0  0  0  0  0  0  0  0  0
    3.0579    5.9370   -6.2290 H   0  0  0  0  0  0  0  0  0  0  0  0
   -0.6764    4.1920   -4.9725 H   0  0  0  0  0  0  0  0  0  0  0  0
    1.9554   -0.2761   -1.2397 H   0  0  0  0  0  0  0  0  0  0  0  0
    0.4170   -3.0775    0.6220 H   0  0  0  0  0  0  0  0  0  0  0  0
    2.7803   -6.5234    1.4524 H   0  0  0  0  0  0  0  0  0  0  0  0
    4.8315   -6.3205    2.8595 H   0  0  0  0  0  0  0  0  0  0  0  0
    6.3290   -4.3702    2.6174 H   0  0  0  0  0  0  0  0  0  0  0  0
    5.8249   -2.5635    0.9752 H   0  0  0  0  0  0  0  0  0  0  0  0
    2.3489   -2.0261   -3.0285 H   0  0  0  0  0  0  0  0  0  0  0  0
    2.8264   -1.3605   -5.2881 H   0  0  0  0  0  0  0  0  0  0  0  0
    5.0878    0.4853   -5.8295 H   0  0  0  0  0  0  0  0  0  0  0  0
    3.8392   -0.0411   -6.9426 H   0  0  0  0  0  0  0  0  0  0  0  0
    5.9690   -1.8734   -5.6948 H   0  0  0  0  0  0  0  0  0  0  0  0
    5.8849   -1.3277   -7.3651 H   0  0  0  0  0  0  0  0  0  0  0  0
    3.9750   -3.0760   -5.9850 H   0  0  0  0  0  0  0  0  0  0  0  0
    5.0711   -3.5291   -7.0863 H   0  0  0  0  0  0  0  0  0  0  0  0
    6.8359   -0.4675   -2.0838 H   0  0  0  0  0  0  0  0  0  0  0  0
  1  2  1  0  0  0  0
  1 41  1  0  0  0  0
  1 42  1  0  0  0  0
  1 43  1  0  0  0  0
  2  3  1  0  0  0  0
  2 20  2  0  0  0  0
  3  4  2  0  0  0  0
  3 44  1  0  0  0  0
  4  5  1  0  0  0  0
  4 45  1  0  0  0  0
  5  6  1  0  0  0  0
  5 19  2  0  0  0  0
  6  7  1  0  0  0  0
  6 46  1  0  0  0  0
  7  8  2  0  0  0  0
  7  9  1  0  0  0  0
  9 10  1  0  0  0  0
  9 18  2  0  0  0  0
 10 11  2  0  0  0  0
 10 47  1  0  0  0  0
 11 12  1  0  0  0  0
 11 48  1  0  0  0  0
 12 13  2  0  0  0  0
 12 49  1  0  0  0  0
 13 14  1  0  0  0  0
 13 18  1  0  0  0  0
 14 15  1  0  0  0  0
 14 16  1  0  0  0  0
 14 17  1  0  0  0  0
 18 50  1  0  0  0  0
 19 20  1  0  0  0  0
 19 51  1  0  0  0  0
 20 21  1  0  0  0  0
 21 22  1  0  0  0  0
 21 52  1  0  0  0  0
 22 23  2  0  0  0  0
 22 30  1  0  0  0  0
 23 24  1  0  0  0  0
 24 25  1  0  0  0  0
 24 29  2  0  0  0  0
 25 26  2  0  0  0  0
 25 53  1  0  0  0  0
 26 27  1  0  0  0  0
 26 54  1  0  0  0  0
 27 28  2  0  0  0  0
 27 55  1  0  0  0  0
 28 29  1  0  0  0  0
 28 56  1  0  0  0  0
 29 30  1  0  0  0  0
 30 31  1  0  0  0  0
 31 32  1  0  0  0  0
 31 40  2  0  0  0  0
 32 33  2  0  0  0  0
 32 57  1  0  0  0  0
 33 34  1  0  0  0  0
 33 38  1  0  0  0  0
 34 35  1  0  0  0  0
 34 58  1  0  0  0  0
 35 36  1  0  0  0  0
 35 59  1  0  0  0  0
 35 60  1  0  0  0  0
 36 37  1  0  0  0  0
 36 61  1  0  0  0  0
 36 62  1  0  0  0  0
 37 63  1  0  0  0  0
 37 64  1  0  0  0  0
 38 39  2  0  0  0  0
 39 40  1  0  0  0  0
 39 65  1  0  0  0  0
M  END
$$$$
