CHEMBL395427
 OpenBabel04072215373D

 59 63  0  0  0  0  0  0  0  0999 V2000
    3.9459    1.3421   -1.0122 C   0  0  0  0  0  0  0  0  0  0  0  0
    3.2393    0.4536   -2.0207 C   0  0  0  0  0  0  0  0  0  0  0  0
    3.4690   -0.9102   -1.6377 O   0  0  0  0  0  0  0  0  0  0  0  0
    4.5758   -1.4891   -2.1767 C   0  0  0  0  0  0  0  0  0  0  0  0
    5.1726   -1.0929   -3.1715 O   0  0  0  0  0  0  0  0  0  0  0  0
    4.9811   -2.6885   -1.3830 C   0  0  0  0  0  0  0  0  0  0  0  0
    6.4730   -2.7101   -1.1797 C   0  0  0  0  0  0  0  0  0  0  0  0
    6.9534   -2.1202   -0.2140 O   0  0  0  0  0  0  0  0  0  0  0  0
    7.1822   -3.3881   -2.1640 N   0  0  0  0  0  0  0  0  0  0  0  0
    8.5900   -3.5415   -2.1922 C   0  0  0  0  0  0  0  0  0  0  0  0
    9.3884   -3.3364   -1.0517 C   0  0  0  0  0  0  0  0  0  0  0  0
   10.7947   -3.4139   -1.0892 C   0  0  0  0  0  0  0  0  0  0  0  0
   11.4550   -3.7233   -2.2698 C   0  0  0  0  0  0  0  0  0  0  0  0
   10.6694   -3.9682   -3.3717 C   0  0  0  0  0  0  0  0  0  0  0  0
    9.2450   -3.8956   -3.3703 C   0  0  0  0  0  0  0  0  0  0  0  0
    8.6440   -4.1971   -4.7577 C   0  0  0  0  0  0  0  0  0  0  0  0
    9.9169   -4.4352   -5.5007 C   0  0  0  0  0  0  0  0  0  0  0  0
   11.0538   -4.3036   -4.6980 C   0  0  0  0  0  0  0  0  0  0  0  0
   12.2007   -4.5104   -5.3270 N   0  0  0  0  0  0  0  0  0  0  0  0
   11.7767   -4.7844   -6.5841 N   0  0  0  0  0  0  0  0  0  0  0  0
   10.4031   -4.7552   -6.7431 C   0  0  0  0  0  0  0  0  0  0  0  0
    9.6728   -5.0179   -8.0126 C   0  0  0  0  0  0  0  0  0  0  0  0
   10.3187   -5.3684   -9.1797 C   0  0  0  0  0  0  0  0  0  0  0  0
    9.2339   -5.6013  -10.4803 S   0  0  0  0  0  0  0  0  0  0  0  0
    7.8894   -5.2265   -9.5000 C   0  0  0  0  0  0  0  0  0  0  0  0
    6.5601   -5.1852  -10.0132 C   0  0  0  0  0  0  0  0  0  0  0  0
    5.4677   -5.0894  -10.4955 C   0  0  0  0  0  0  0  0  0  0  0  0
    4.1574   -4.8632  -11.1154 C   0  0  0  0  0  0  0  0  0  0  0  0
    4.0001   -5.7138  -12.2536 O   0  0  0  0  0  0  0  0  0  0  0  0
    2.7854   -5.6087  -12.8808 C   0  0  0  0  0  0  0  0  0  0  0  0
    2.0191   -4.4421  -12.9388 C   0  0  0  0  0  0  0  0  0  0  0  0
    0.7812   -4.4433  -13.5845 C   0  0  0  0  0  0  0  0  0  0  0  0
    0.3106   -5.6053  -14.1904 C   0  0  0  0  0  0  0  0  0  0  0  0
    1.0880   -6.7620  -14.1699 C   0  0  0  0  0  0  0  0  0  0  0  0
    2.3270   -6.7606  -13.5238 C   0  0  0  0  0  0  0  0  0  0  0  0
    8.2587   -4.9418   -8.2000 C   0  0  0  0  0  0  0  0  0  0  0  0
    3.8261    2.3993   -1.2597 H   0  0  0  0  0  0  0  0  0  0  0  0
    5.0149    1.1064   -0.9677 H   0  0  0  0  0  0  0  0  0  0  0  0
    3.5456    1.1654   -0.0076 H   0  0  0  0  0  0  0  0  0  0  0  0
    3.5791    0.6612   -3.0413 H   0  0  0  0  0  0  0  0  0  0  0  0
    2.1600    0.6334   -1.9912 H   0  0  0  0  0  0  0  0  0  0  0  0
    4.6203   -3.6001   -1.8648 H   0  0  0  0  0  0  0  0  0  0  0  0
    4.5286   -2.6395   -0.3837 H   0  0  0  0  0  0  0  0  0  0  0  0
    6.6829   -3.6079   -3.0168 H   0  0  0  0  0  0  0  0  0  0  0  0
    8.9428   -3.1101   -0.0868 H   0  0  0  0  0  0  0  0  0  0  0  0
   11.3615   -3.2187   -0.1822 H   0  0  0  0  0  0  0  0  0  0  0  0
   12.5371   -3.7687   -2.3238 H   0  0  0  0  0  0  0  0  0  0  0  0
    8.1026   -3.3312   -5.1469 H   0  0  0  0  0  0  0  0  0  0  0  0
    8.0210   -5.0945   -4.7266 H   0  0  0  0  0  0  0  0  0  0  0  0
   12.4786   -4.9771   -7.2888 H   0  0  0  0  0  0  0  0  0  0  0  0
   11.3747   -5.5069   -9.3598 H   0  0  0  0  0  0  0  0  0  0  0  0
    4.1217   -3.8107  -11.4166 H   0  0  0  0  0  0  0  0  0  0  0  0
    3.3602   -5.0637  -10.3887 H   0  0  0  0  0  0  0  0  0  0  0  0
    2.3616   -3.5080  -12.5083 H   0  0  0  0  0  0  0  0  0  0  0  0
    0.1887   -3.5326  -13.6167 H   0  0  0  0  0  0  0  0  0  0  0  0
   -0.6565   -5.6050  -14.6862 H   0  0  0  0  0  0  0  0  0  0  0  0
    0.7288   -7.6656  -14.6555 H   0  0  0  0  0  0  0  0  0  0  0  0
    2.9288   -7.6660  -13.5114 H   0  0  0  0  0  0  0  0  0  0  0  0
    7.5450   -4.6737   -7.4334 H   0  0  0  0  0  0  0  0  0  0  0  0
  1  2  1  0  0  0  0
  1 37  1  0  0  0  0
  1 38  1  0  0  0  0
  1 39  1  0  0  0  0
  2  3  1  0  0  0  0
  2 40  1  0  0  0  0
  2 41  1  0  0  0  0
  3  4  1  0  0  0  0
  4  5  2  0  0  0  0
  4  6  1  0  0  0  0
  6  7  1  0  0  0  0
  6 42  1  0  0  0  0
  6 43  1  0  0  0  0
  7  8  2  0  0  0  0
  7  9  1  0  0  0  0
  9 10  1  0  0  0  0
  9 44  1  0  0  0  0
 10 11  1  0  0  0  0
 10 15  2  0  0  0  0
 11 12  2  0  0  0  0
 11 45  1  0  0  0  0
 12 13  1  0  0  0  0
 12 46  1  0  0  0  0
 13 14  2  0  0  0  0
 13 47  1  0  0  0  0
 14 15  1  0  0  0  0
 14 18  1  0  0  0  0
 15 16  1  0  0  0  0
 16 17  1  0  0  0  0
 16 48  1  0  0  0  0
 16 49  1  0  0  0  0
 17 18  1  0  0  0  0
 17 21  2  0  0  0  0
 18 19  2  0  0  0  0
 19 20  1  0  0  0  0
 20 21  1  0  0  0  0
 20 50  1  0  0  0  0
 21 22  1  0  0  0  0
 22 23  2  0  0  0  0
 22 36  1  0  0  0  0
 23 24  1  0  0  0  0
 23 51  1  0  0  0  0
 24 25  1  0  0  0  0
 25 26  1  0  0  0  0
 25 36  2  0  0  0  0
 26 27  3  0  0  0  0
 27 28  1  0  0  0  0
 28 29  1  0  0  0  0
 28 52  1  0  0  0  0
 28 53  1  0  0  0  0
 29 30  1  0  0  0  0
 30 31  1  0  0  0  0
 30 35  2  0  0  0  0
 31 32  2  0  0  0  0
 31 54  1  0  0  0  0
 32 33  1  0  0  0  0
 32 55  1  0  0  0  0
 33 34  2  0  0  0  0
 33 56  1  0  0  0  0
 34 35  1  0  0  0  0
 34 57  1  0  0  0  0
 35 58  1  0  0  0  0
 36 59  1  0  0  0  0
M  END
$$$$
