CHEMBL3702609
 OpenBabel04072215373D

 51 54  0  0  0  0  0  0  0  0999 V2000
    0.9731   -0.2143    0.2325 C   0  0  0  0  0  0  0  0  0  0  0  0
    2.4711    0.0253    0.0940 C   0  0  0  0  0  0  0  0  0  0  0  0
    2.8961    1.1864    0.9585 C   0  0  0  0  0  0  0  0  0  0  0  0
    2.8971    2.4764    0.4147 C   0  0  0  0  0  0  0  0  0  0  0  0
    3.1664    3.5729    1.2225 C   0  0  0  0  0  0  0  0  0  0  0  0
    3.4042    3.3924    2.5840 C   0  0  0  0  0  0  0  0  0  0  0  0
    3.3789    2.1174    3.1607 C   0  0  0  0  0  0  0  0  0  0  0  0
    3.5147    1.9093    4.5588 N   0  0  0  0  0  0  0  0  0  0  0  0
    3.2934    2.8910    5.5120 C   0  0  0  0  0  0  0  0  0  0  0  0
    2.9114    4.0383    5.2769 O   0  0  0  0  0  0  0  0  0  0  0  0
    3.4774    2.5368    6.9473 C   0  0  0  0  0  0  0  0  0  0  0  0
    4.3630    1.5585    7.3939 C   0  0  0  0  0  0  0  0  0  0  0  0
    4.5523    1.3968    8.7675 C   0  0  0  0  0  0  0  0  0  0  0  0
    3.8707    2.2116    9.6869 C   0  0  0  0  0  0  0  0  0  0  0  0
    2.9792    3.2063    9.2685 C   0  0  0  0  0  0  0  0  0  0  0  0
    2.3546    4.0553   10.1644 N   0  0  0  0  0  0  0  0  0  0  0  0
    1.9680    5.4234    9.7949 C   0  0  0  0  0  0  0  0  0  0  0  0
    0.4534    5.5156    9.6516 C   0  0  0  0  0  0  0  0  0  0  0  0
   -0.2363    4.9267   10.8532 C   0  0  0  0  0  0  0  0  0  0  0  0
   -1.5103    5.3262   11.0752 N   0  0  0  0  0  0  0  0  0  0  0  0
   -2.1369    4.8048   12.1325 C   0  0  0  0  0  0  0  0  0  0  0  0
   -3.4305    5.2164   12.3743 N   0  0  0  0  0  0  0  0  0  0  0  0
   -1.6154    3.8895   12.9520 N   0  0  0  0  0  0  0  0  0  0  0  0
   -0.3479    3.5096   12.6972 C   0  0  0  0  0  0  0  0  0  0  0  0
    0.4072    3.9957   11.6512 C   0  0  0  0  0  0  0  0  0  0  0  0
    1.8366    3.5763   11.4476 C   0  0  0  0  0  0  0  0  0  0  0  0
    2.7905    3.3294    7.8875 C   0  0  0  0  0  0  0  0  0  0  0  0
    3.1728    1.0101    2.3281 C   0  0  0  0  0  0  0  0  0  0  0  0
    0.6499   -1.0235   -0.4286 H   0  0  0  0  0  0  0  0  0  0  0  0
    0.4013    0.6845   -0.0270 H   0  0  0  0  0  0  0  0  0  0  0  0
    0.7113   -0.4873    1.2603 H   0  0  0  0  0  0  0  0  0  0  0  0
    2.7133    0.2337   -0.9560 H   0  0  0  0  0  0  0  0  0  0  0  0
    3.0298   -0.8762    0.3670 H   0  0  0  0  0  0  0  0  0  0  0  0
    2.6619    2.6362   -0.6350 H   0  0  0  0  0  0  0  0  0  0  0  0
    3.1607    4.5770    0.8063 H   0  0  0  0  0  0  0  0  0  0  0  0
    3.6037    4.2796    3.1763 H   0  0  0  0  0  0  0  0  0  0  0  0
    3.5848    0.9510    4.8718 H   0  0  0  0  0  0  0  0  0  0  0  0
    4.9478    0.9603    6.7027 H   0  0  0  0  0  0  0  0  0  0  0  0
    5.2683    0.6636    9.1345 H   0  0  0  0  0  0  0  0  0  0  0  0
    4.0991    2.0935   10.7442 H   0  0  0  0  0  0  0  0  0  0  0  0
    2.4650    5.7762    8.8836 H   0  0  0  0  0  0  0  0  0  0  0  0
    2.3057    6.1020   10.5903 H   0  0  0  0  0  0  0  0  0  0  0  0
    0.1191    4.9687    8.7626 H   0  0  0  0  0  0  0  0  0  0  0  0
    0.1603    6.5645    9.5305 H   0  0  0  0  0  0  0  0  0  0  0  0
   -3.8491    5.5396   11.5139 H   0  0  0  0  0  0  0  0  0  0  0  0
   -3.9217    4.5036   12.8940 H   0  0  0  0  0  0  0  0  0  0  0  0
    0.0521    2.7777   13.3930 H   0  0  0  0  0  0  0  0  0  0  0  0
    1.8905    2.4841   11.5239 H   0  0  0  0  0  0  0  0  0  0  0  0
    2.4466    4.0043   12.2528 H   0  0  0  0  0  0  0  0  0  0  0  0
    2.0896    4.0685    7.5063 H   0  0  0  0  0  0  0  0  0  0  0  0
    3.1562    0.0059    2.7443 H   0  0  0  0  0  0  0  0  0  0  0  0
  1  2  1  0  0  0  0
  1 29  1  0  0  0  0
  1 30  1  0  0  0  0
  1 31  1  0  0  0  0
  2  3  1  0  0  0  0
  2 32  1  0  0  0  0
  2 33  1  0  0  0  0
  3  4  1  0  0  0  0
  3 28  2  0  0  0  0
  4  5  2  0  0  0  0
  4 34  1  0  0  0  0
  5  6  1  0  0  0  0
  5 35  1  0  0  0  0
  6  7  2  0  0  0  0
  6 36  1  0  0  0  0
  7  8  1  0  0  0  0
  7 28  1  0  0  0  0
  8  9  1  0  0  0  0
  8 37  1  0  0  0  0
  9 10  2  0  0  0  0
  9 11  1  0  0  0  0
 11 12  1  0  0  0  0
 11 27  2  0  0  0  0
 12 13  2  0  0  0  0
 12 38  1  0  0  0  0
 13 14  1  0  0  0  0
 13 39  1  0  0  0  0
 14 15  2  0  0  0  0
 14 40  1  0  0  0  0
 15 16  1  0  0  0  0
 15 27  1  0  0  0  0
 16 17  1  0  0  0  0
 16 26  1  0  0  0  0
 17 18  1  0  0  0  0
 17 41  1  0  0  0  0
 17 42  1  0  0  0  0
 18 19  1  0  0  0  0
 18 43  1  0  0  0  0
 18 44  1  0  0  0  0
 19 20  1  0  0  0  0
 19 25  2  0  0  0  0
 20 21  2  0  0  0  0
 21 22  1  0  0  0  0
 21 23  1  0  0  0  0
 22 45  1  0  0  0  0
 22 46  1  0  0  0  0
 23 24  2  0  0  0  0
 24 25  1  0  0  0  0
 24 47  1  0  0  0  0
 25 26  1  0  0  0  0
 26 48  1  0  0  0  0
 26 49  1  0  0  0  0
 27 50  1  0  0  0  0
 28 51  1  0  0  0  0
M  END
$$$$
