CHEMBL1086676
 OpenBabel04072215363D

 56 61  0  0  0  0  0  0  0  0999 V2000
    0.3662    3.1188   -2.4247 C   0  0  0  0  0  0  0  0  0  0  0  0
    0.0983    1.7720   -2.8560 N   0  0  0  0  0  0  0  0  0  0  0  0
    0.9767    0.9163   -3.4522 C   0  0  0  0  0  0  0  0  0  0  0  0
    0.4434   -0.2738   -3.6243 N   0  0  0  0  0  0  0  0  0  0  0  0
   -0.8419   -0.1656   -3.1486 C   0  0  0  0  0  0  0  0  0  0  0  0
   -1.8133   -1.2916   -3.1147 C   0  0  0  0  0  0  0  0  0  0  0  0
   -1.4929   -2.5911   -3.4352 C   0  0  0  0  0  0  0  0  0  0  0  0
   -2.5943   -3.4776   -3.2557 C   0  0  0  0  0  0  0  0  0  0  0  0
   -2.5597   -4.8239   -3.4539 N   0  0  0  0  0  0  0  0  0  0  0  0
   -3.7053   -5.4825   -3.2017 C   0  0  0  0  0  0  0  0  0  0  0  0
   -4.8895   -4.8968   -2.7976 C   0  0  0  0  0  0  0  0  0  0  0  0
   -4.9434   -3.5079   -2.6714 C   0  0  0  0  0  0  0  0  0  0  0  0
   -6.0975   -2.8219   -2.3477 O   0  0  0  0  0  0  0  0  0  0  0  0
   -7.2574   -3.1504   -3.0124 C   0  0  0  0  0  0  0  0  0  0  0  0
   -7.2836   -3.7369   -4.2751 C   0  0  0  0  0  0  0  0  0  0  0  0
   -8.4877   -4.1928   -4.8018 C   0  0  0  0  0  0  0  0  0  0  0  0
   -9.6905   -4.0196   -4.1090 C   0  0  0  0  0  0  0  0  0  0  0  0
  -10.9078   -4.5634   -4.5743 N   0  0  0  0  0  0  0  0  0  0  0  0
  -10.9860   -5.6026   -5.4859 C   0  0  0  0  0  0  0  0  0  0  0  0
  -10.0232   -6.2458   -5.8956 O   0  0  0  0  0  0  0  0  0  0  0  0
  -12.3113   -5.9367   -5.9643 C   0  0  0  0  0  0  0  0  0  0  0  0
  -13.6114   -5.5172   -5.6384 C   0  0  0  0  0  0  0  0  0  0  0  0
  -14.5481   -6.0856   -6.4049 N   0  0  0  0  0  0  0  0  0  0  0  0
  -13.8580   -6.9175   -7.2323 N   0  0  0  0  0  0  0  0  0  0  0  0
  -14.5001   -7.7258   -8.2085 C   0  0  0  0  0  0  0  0  0  0  0  0
  -15.8757   -7.5897   -8.4304 C   0  0  0  0  0  0  0  0  0  0  0  0
  -16.5073   -8.3847   -9.3893 C   0  0  0  0  0  0  0  0  0  0  0  0
  -15.7785   -9.3209  -10.1220 C   0  0  0  0  0  0  0  0  0  0  0  0
  -14.4099   -9.4604   -9.9052 C   0  0  0  0  0  0  0  0  0  0  0  0
  -13.7669   -8.6628   -8.9553 C   0  0  0  0  0  0  0  0  0  0  0  0
  -12.5140   -6.8447   -6.9836 C   0  0  0  0  0  0  0  0  0  0  0  0
   -9.6852   -3.2862   -2.9228 C   0  0  0  0  0  0  0  0  0  0  0  0
   -8.4682   -2.8697   -2.3781 C   0  0  0  0  0  0  0  0  0  0  0  0
   -8.4793   -2.2178   -1.2059 F   0  0  0  0  0  0  0  0  0  0  0  0
   -3.7470   -2.8024   -2.8540 C   0  0  0  0  0  0  0  0  0  0  0  0
   -3.4453   -1.1257   -2.6593 S   0  0  0  0  0  0  0  0  0  0  0  0
   -1.0824    1.1102   -2.6882 C   0  0  0  0  0  0  0  0  0  0  0  0
    1.3413    3.4384   -2.7987 H   0  0  0  0  0  0  0  0  0  0  0  0
    0.3618    3.1303   -1.3312 H   0  0  0  0  0  0  0  0  0  0  0  0
   -0.4178    3.7732   -2.8136 H   0  0  0  0  0  0  0  0  0  0  0  0
    1.9852    1.1982   -3.7259 H   0  0  0  0  0  0  0  0  0  0  0  0
   -0.5064   -2.9064   -3.7507 H   0  0  0  0  0  0  0  0  0  0  0  0
   -3.6529   -6.5584   -3.3540 H   0  0  0  0  0  0  0  0  0  0  0  0
   -5.7645   -5.5146   -2.6258 H   0  0  0  0  0  0  0  0  0  0  0  0
   -6.3782   -3.8945   -4.8548 H   0  0  0  0  0  0  0  0  0  0  0  0
   -8.4447   -4.6893   -5.7674 H   0  0  0  0  0  0  0  0  0  0  0  0
  -11.7571   -4.2588   -4.1202 H   0  0  0  0  0  0  0  0  0  0  0  0
  -13.9337   -4.8156   -4.8800 H   0  0  0  0  0  0  0  0  0  0  0  0
  -16.4624   -6.8618   -7.8743 H   0  0  0  0  0  0  0  0  0  0  0  0
  -17.5744   -8.2738   -9.5645 H   0  0  0  0  0  0  0  0  0  0  0  0
  -16.2722   -9.9415  -10.8613 H   0  0  0  0  0  0  0  0  0  0  0  0
  -13.8360  -10.1912  -10.4693 H   0  0  0  0  0  0  0  0  0  0  0  0
  -12.7026   -8.8164   -8.8121 H   0  0  0  0  0  0  0  0  0  0  0  0
  -11.7843   -7.4043   -7.5484 H   0  0  0  0  0  0  0  0  0  0  0  0
  -10.5967   -3.0764   -2.3735 H   0  0  0  0  0  0  0  0  0  0  0  0
   -1.9500    1.5702   -2.2357 H   0  0  0  0  0  0  0  0  0  0  0  0
  1  2  1  0  0  0  0
  1 38  1  0  0  0  0
  1 39  1  0  0  0  0
  1 40  1  0  0  0  0
  2  3  1  0  0  0  0
  2 37  1  0  0  0  0
  3  4  2  0  0  0  0
  3 41  1  0  0  0  0
  4  5  1  0  0  0  0
  5  6  1  0  0  0  0
  5 37  2  0  0  0  0
  6  7  2  0  0  0  0
  6 36  1  0  0  0  0
  7  8  1  0  0  0  0
  7 42  1  0  0  0  0
  8  9  1  0  0  0  0
  8 35  2  0  0  0  0
  9 10  2  0  0  0  0
 10 11  1  0  0  0  0
 10 43  1  0  0  0  0
 11 12  2  0  0  0  0
 11 44  1  0  0  0  0
 12 13  1  0  0  0  0
 12 35  1  0  0  0  0
 13 14  1  0  0  0  0
 14 15  1  0  0  0  0
 14 33  2  0  0  0  0
 15 16  2  0  0  0  0
 15 45  1  0  0  0  0
 16 17  1  0  0  0  0
 16 46  1  0  0  0  0
 17 18  1  0  0  0  0
 17 32  2  0  0  0  0
 18 19  1  0  0  0  0
 18 47  1  0  0  0  0
 19 20  2  0  0  0  0
 19 21  1  0  0  0  0
 21 22  1  0  0  0  0
 21 31  2  0  0  0  0
 22 23  2  0  0  0  0
 22 48  1  0  0  0  0
 23 24  1  0  0  0  0
 24 25  1  0  0  0  0
 24 31  1  0  0  0  0
 25 26  1  0  0  0  0
 25 30  2  0  0  0  0
 26 27  2  0  0  0  0
 26 49  1  0  0  0  0
 27 28  1  0  0  0  0
 27 50  1  0  0  0  0
 28 29  2  0  0  0  0
 28 51  1  0  0  0  0
 29 30  1  0  0  0  0
 29 52  1  0  0  0  0
 30 53  1  0  0  0  0
 31 54  1  0  0  0  0
 32 33  1  0  0  0  0
 32 55  1  0  0  0  0
 33 34  1  0  0  0  0
 35 36  1  0  0  0  0
 37 56  1  0  0  0  0
M  END
$$$$
