CHEMBL1076193
 OpenBabel04072215353D

 67 72  0  0  0  0  0  0  0  0999 V2000
    1.4868   -0.7965    0.7652 C   0  0  0  0  0  0  0  0  0  0  0  0
    2.8420   -0.4689    0.2726 C   0  0  0  0  0  0  0  0  0  0  0  0
    3.6751    0.5460    0.6787 C   0  0  0  0  0  0  0  0  0  0  0  0
    4.8421    0.4153   -0.0474 N   0  0  0  0  0  0  0  0  0  0  0  0
    6.0267    1.1962    0.0700 C   0  0  0  0  0  0  0  0  0  0  0  0
    6.1032    2.1953    1.0479 C   0  0  0  0  0  0  0  0  0  0  0  0
    7.2871    2.8957    1.3002 C   0  0  0  0  0  0  0  0  0  0  0  0
    7.4043    3.8053    2.3763 N   0  0  0  0  0  0  0  0  0  0  0  0
    6.5400    3.8328    3.4678 C   0  0  0  0  0  0  0  0  0  0  0  0
    5.6229    3.0404    3.6638 O   0  0  0  0  0  0  0  0  0  0  0  0
    6.8015    4.8503    4.5146 C   0  0  0  0  0  0  0  0  0  0  0  0
    7.4014    6.0798    4.2781 C   0  0  0  0  0  0  0  0  0  0  0  0
    7.5468    6.9881    5.3337 C   0  0  0  0  0  0  0  0  0  0  0  0
    7.0928    6.6853    6.6360 C   0  0  0  0  0  0  0  0  0  0  0  0
    7.2150    7.7433    7.6989 C   0  0  0  0  0  0  0  0  0  0  0  0
    6.4480    5.4548    6.8652 C   0  0  0  0  0  0  0  0  0  0  0  0
    5.9661    5.0618    8.1389 N   0  0  0  0  0  0  0  0  0  0  0  0
    4.7926    4.3695    8.2283 C   0  0  0  0  0  0  0  0  0  0  0  0
    3.7954    4.4413    7.3700 N   0  0  0  0  0  0  0  0  0  0  0  0
    2.7453    3.8301    7.9780 C   0  0  0  0  0  0  0  0  0  0  0  0
    1.4041    3.8520    7.5885 C   0  0  0  0  0  0  0  0  0  0  0  0
    0.6447    4.2925    8.6722 C   0  0  0  0  0  0  0  0  0  0  0  0
    0.9128    3.8043    9.9509 C   0  0  0  0  0  0  0  0  0  0  0  0
    2.1239    3.1463   10.2260 C   0  0  0  0  0  0  0  0  0  0  0  0
    3.1062    3.3643    9.2436 C   0  0  0  0  0  0  0  0  0  0  0  0
    4.4894    3.4420    9.2335 N   0  0  0  0  0  0  0  0  0  0  0  0
    5.4399    2.7940   10.0881 C   0  0  0  0  0  0  0  0  0  0  0  0
    5.1009    1.6315   10.7663 C   0  0  0  0  0  0  0  0  0  0  0  0
    6.0945    1.0584   11.5157 C   0  0  0  0  0  0  0  0  0  0  0  0
    5.8827   -0.1541   12.1870 N   0  0  0  0  0  0  0  0  0  0  0  0
    7.3399    1.5695   11.6189 N   0  0  0  0  0  0  0  0  0  0  0  0
    7.5678    2.6592   10.9095 C   0  0  0  0  0  0  0  0  0  0  0  0
    6.6889    3.3182   10.1448 N   0  0  0  0  0  0  0  0  0  0  0  0
    6.3440    4.5489    5.7989 C   0  0  0  0  0  0  0  0  0  0  0  0
    8.3947    2.6614    0.4833 C   0  0  0  0  0  0  0  0  0  0  0  0
    8.3348    1.6862   -0.5300 C   0  0  0  0  0  0  0  0  0  0  0  0
    9.5364    1.3600   -1.3853 C   0  0  0  0  0  0  0  0  0  0  0  0
   10.6404    2.0974   -1.0842 F   0  0  0  0  0  0  0  0  0  0  0  0
    9.9119    0.0572   -1.2669 F   0  0  0  0  0  0  0  0  0  0  0  0
    9.2992    1.5614   -2.7104 F   0  0  0  0  0  0  0  0  0  0  0  0
    7.1476    0.9547   -0.7266 C   0  0  0  0  0  0  0  0  0  0  0  0
    4.6308   -0.6719   -0.8687 C   0  0  0  0  0  0  0  0  0  0  0  0
    3.4455   -1.2166   -0.6994 N   0  0  0  0  0  0  0  0  0  0  0  0
    1.1213   -0.0307    1.4560 H   0  0  0  0  0  0  0  0  0  0  0  0
    1.4970   -1.7554    1.2929 H   0  0  0  0  0  0  0  0  0  0  0  0
    0.7850   -0.8655   -0.0711 H   0  0  0  0  0  0  0  0  0  0  0  0
    3.5224    1.3154    1.4234 H   0  0  0  0  0  0  0  0  0  0  0  0
    5.2250    2.4266    1.6376 H   0  0  0  0  0  0  0  0  0  0  0  0
    8.2658    4.3291    2.4556 H   0  0  0  0  0  0  0  0  0  0  0  0
    7.7215    6.3729    3.2833 H   0  0  0  0  0  0  0  0  0  0  0  0
    7.9951    7.9589    5.1303 H   0  0  0  0  0  0  0  0  0  0  0  0
    7.9010    8.5370    7.3806 H   0  0  0  0  0  0  0  0  0  0  0  0
    7.6182    7.3271    8.6266 H   0  0  0  0  0  0  0  0  0  0  0  0
    6.2429    8.2078    7.8940 H   0  0  0  0  0  0  0  0  0  0  0  0
    6.7099    4.7548    8.7577 H   0  0  0  0  0  0  0  0  0  0  0  0
    1.0942    2.8454    7.2824 H   0  0  0  0  0  0  0  0  0  0  0  0
   -0.0179    5.1467    8.5300 H   0  0  0  0  0  0  0  0  0  0  0  0
    0.2476    4.0736   10.7654 H   0  0  0  0  0  0  0  0  0  0  0  0
    2.3590    2.8354   11.2358 H   0  0  0  0  0  0  0  0  0  0  0  0
    4.1447    1.1434   10.6567 H   0  0  0  0  0  0  0  0  0  0  0  0
    5.0478   -0.1653   12.7618 H   0  0  0  0  0  0  0  0  0  0  0  0
    6.7257   -0.3636   12.7303 H   0  0  0  0  0  0  0  0  0  0  0  0
    8.5701    3.0792   10.9724 H   0  0  0  0  0  0  0  0  0  0  0  0
    5.8515    3.5923    5.9650 H   0  0  0  0  0  0  0  0  0  0  0  0
    9.3237    3.2020    0.6517 H   0  0  0  0  0  0  0  0  0  0  0  0
    7.1400    0.1957   -1.5071 H   0  0  0  0  0  0  0  0  0  0  0  0
    5.3729   -1.0464   -1.5599 H   0  0  0  0  0  0  0  0  0  0  0  0
  1  2  1  0  0  0  0
  1 44  1  0  0  0  0
  1 45  1  0  0  0  0
  1 46  1  0  0  0  0
  2  3  2  0  0  0  0
  2 43  1  0  0  0  0
  3  4  1  0  0  0  0
  3 47  1  0  0  0  0
  4  5  1  0  0  0  0
  4 42  1  0  0  0  0
  5  6  1  0  0  0  0
  5 41  2  0  0  0  0
  6  7  2  0  0  0  0
  6 48  1  0  0  0  0
  7  8  1  0  0  0  0
  7 35  1  0  0  0  0
  8  9  1  0  0  0  0
  8 49  1  0  0  0  0
  9 10  2  0  0  0  0
  9 11  1  0  0  0  0
 11 12  1  0  0  0  0
 11 34  2  0  0  0  0
 12 13  2  0  0  0  0
 12 50  1  0  0  0  0
 13 14  1  0  0  0  0
 13 51  1  0  0  0  0
 14 15  1  0  0  0  0
 14 16  2  0  0  0  0
 15 52  1  0  0  0  0
 15 53  1  0  0  0  0
 15 54  1  0  0  0  0
 16 17  1  0  0  0  0
 16 34  1  0  0  0  0
 17 18  1  0  0  0  0
 17 55  1  0  0  0  0
 18 19  2  0  0  0  0
 18 26  1  0  0  0  0
 19 20  1  0  0  0  0
 20 21  1  0  0  0  0
 20 25  2  0  0  0  0
 21 22  2  0  0  0  0
 21 56  1  0  0  0  0
 22 23  1  0  0  0  0
 22 57  1  0  0  0  0
 23 24  2  0  0  0  0
 23 58  1  0  0  0  0
 24 25  1  0  0  0  0
 24 59  1  0  0  0  0
 25 26  1  0  0  0  0
 26 27  1  0  0  0  0
 27 28  1  0  0  0  0
 27 33  2  0  0  0  0
 28 29  2  0  0  0  0
 28 60  1  0  0  0  0
 29 30  1  0  0  0  0
 29 31  1  0  0  0  0
 30 61  1  0  0  0  0
 30 62  1  0  0  0  0
 31 32  2  0  0  0  0
 32 33  1  0  0  0  0
 32 63  1  0  0  0  0
 34 64  1  0  0  0  0
 35 36  2  0  0  0  0
 35 65  1  0  0  0  0
 36 37  1  0  0  0  0
 36 41  1  0  0  0  0
 37 38  1  0  0  0  0
 37 39  1  0  0  0  0
 37 40  1  0  0  0  0
 41 66  1  0  0  0  0
 42 43  2  0  0  0  0
 42 67  1  0  0  0  0
M  END
$$$$
