CHEMBL443268
 OpenBabel04072215383D

 65 69  0  0  0  0  0  0  0  0999 V2000
    2.1841    0.6664    0.0205 C   0  0  0  0  0  0  0  0  0  0  0  0
    0.7163    0.4238    0.0516 C   0  0  0  0  0  0  0  0  0  0  0  0
   -0.2457    1.4621    0.0306 C   0  0  0  0  0  0  0  0  0  0  0  0
   -1.5094    0.9119    0.0859 C   0  0  0  0  0  0  0  0  0  0  0  0
   -2.7384    1.6766    0.0649 C   0  0  0  0  0  0  0  0  0  0  0  0
   -2.7774    2.8077   -0.4155 O   0  0  0  0  0  0  0  0  0  0  0  0
   -3.8471    1.1168    0.6697 N   0  0  0  0  0  0  0  0  0  0  0  0
   -5.0910    1.8777    0.7248 C   0  0  0  0  0  0  0  0  0  0  0  0
   -5.9222    1.6264    2.0012 C   0  0  0  0  0  0  0  0  0  0  0  0
   -7.1778    2.4028    2.0408 N   0  0  0  0  0  0  0  0  0  0  0  0
   -6.9742    3.8647    2.1805 C   0  0  0  0  0  0  0  0  0  0  0  0
   -6.5492    4.2995    3.5913 C   0  0  0  0  0  0  0  0  0  0  0  0
   -7.5372    3.9115    4.5522 O   0  0  0  0  0  0  0  0  0  0  0  0
   -7.7236    2.4916    4.5360 C   0  0  0  0  0  0  0  0  0  0  0  0
   -8.0781    1.9630    3.1318 C   0  0  0  0  0  0  0  0  0  0  0  0
   -1.3256   -0.4529    0.1239 N   0  0  0  0  0  0  0  0  0  0  0  0
    0.0193   -0.7834    0.0761 C   0  0  0  0  0  0  0  0  0  0  0  0
    0.4995   -2.1333    0.0414 C   0  0  0  0  0  0  0  0  0  0  0  0
   -0.1749   -3.2986    0.0221 C   0  0  0  0  0  0  0  0  0  0  0  0
   -1.6680   -3.5334    0.0549 C   0  0  0  0  0  0  0  0  0  0  0  0
   -2.5438   -2.7059    0.2427 O   0  0  0  0  0  0  0  0  0  0  0  0
   -1.8322   -4.8919   -0.1455 N   0  0  0  0  0  0  0  0  0  0  0  0
   -3.0878   -5.5927   -0.1490 C   0  0  0  0  0  0  0  0  0  0  0  0
   -0.6075   -5.5550   -0.1970 C   0  0  0  0  0  0  0  0  0  0  0  0
   -0.4946   -6.8862   -0.2890 N   0  0  0  0  0  0  0  0  0  0  0  0
    0.7638   -7.3208   -0.2416 C   0  0  0  0  0  0  0  0  0  0  0  0
    1.8541   -6.5508   -0.0909 N   0  0  0  0  0  0  0  0  0  0  0  0
    1.6872   -5.2076    0.0082 C   0  0  0  0  0  0  0  0  0  0  0  0
    2.8380   -4.4173    0.2061 N   0  0  0  0  0  0  0  0  0  0  0  0
    3.9460   -4.8118    0.9953 C   0  0  0  0  0  0  0  0  0  0  0  0
    5.2249   -4.3076    0.7205 C   0  0  0  0  0  0  0  0  0  0  0  0
    6.3113   -4.6376    1.5406 C   0  0  0  0  0  0  0  0  0  0  0  0
    6.1172   -5.4497    2.6539 C   0  0  0  0  0  0  0  0  0  0  0  0
    7.1717   -5.7481    3.4267 F   0  0  0  0  0  0  0  0  0  0  0  0
    4.8503   -5.9298    2.9630 C   0  0  0  0  0  0  0  0  0  0  0  0
    4.5919   -6.9120    4.3533 Cl  0  0  0  0  0  0  0  0  0  0  0  0
    3.7699   -5.6034    2.1441 C   0  0  0  0  0  0  0  0  0  0  0  0
    0.4317   -4.6436   -0.0856 C   0  0  0  0  0  0  0  0  0  0  0  0
    2.3988    1.7305    0.1841 H   0  0  0  0  0  0  0  0  0  0  0  0
    2.6014    0.3905   -0.9520 H   0  0  0  0  0  0  0  0  0  0  0  0
    2.6953    0.1044    0.8065 H   0  0  0  0  0  0  0  0  0  0  0  0
   -0.0497    2.5277   -0.0137 H   0  0  0  0  0  0  0  0  0  0  0  0
   -3.8312    0.1501    0.9628 H   0  0  0  0  0  0  0  0  0  0  0  0
   -5.6693    1.6190   -0.1695 H   0  0  0  0  0  0  0  0  0  0  0  0
   -4.8419    2.9403    0.6558 H   0  0  0  0  0  0  0  0  0  0  0  0
   -5.3056    1.8074    2.8892 H   0  0  0  0  0  0  0  0  0  0  0  0
   -6.1695    0.5568    2.0103 H   0  0  0  0  0  0  0  0  0  0  0  0
   -7.9349    4.3459    1.9518 H   0  0  0  0  0  0  0  0  0  0  0  0
   -6.2712    4.2519    1.4384 H   0  0  0  0  0  0  0  0  0  0  0  0
   -6.4586    5.3898    3.6323 H   0  0  0  0  0  0  0  0  0  0  0  0
   -5.5782    3.8793    3.8770 H   0  0  0  0  0  0  0  0  0  0  0  0
   -8.5463    2.2695    5.2244 H   0  0  0  0  0  0  0  0  0  0  0  0
   -6.8227    2.0100    4.9306 H   0  0  0  0  0  0  0  0  0  0  0  0
   -9.0822    2.3284    2.8792 H   0  0  0  0  0  0  0  0  0  0  0  0
   -8.1561    0.8698    3.1555 H   0  0  0  0  0  0  0  0  0  0  0  0
   -2.0833   -1.1271    0.1334 H   0  0  0  0  0  0  0  0  0  0  0  0
    1.5855   -2.1910   -0.0035 H   0  0  0  0  0  0  0  0  0  0  0  0
   -3.9179   -4.8834   -0.1753 H   0  0  0  0  0  0  0  0  0  0  0  0
   -3.1661   -6.1958    0.7607 H   0  0  0  0  0  0  0  0  0  0  0  0
   -3.1408   -6.2405   -1.0293 H   0  0  0  0  0  0  0  0  0  0  0  0
    0.9225   -8.3932   -0.3177 H   0  0  0  0  0  0  0  0  0  0  0  0
    3.1137   -3.9968   -0.6768 H   0  0  0  0  0  0  0  0  0  0  0  0
    5.3957   -3.6627   -0.1372 H   0  0  0  0  0  0  0  0  0  0  0  0
    7.3054   -4.2628    1.3220 H   0  0  0  0  0  0  0  0  0  0  0  0
    2.7811   -5.9695    2.4090 H   0  0  0  0  0  0  0  0  0  0  0  0
  1  2  1  0  0  0  0
  1 39  1  0  0  0  0
  1 40  1  0  0  0  0
  1 41  1  0  0  0  0
  2  3  1  0  0  0  0
  2 17  2  0  0  0  0
  3  4  2  0  0  0  0
  3 42  1  0  0  0  0
  4  5  1  0  0  0  0
  4 16  1  0  0  0  0
  5  6  2  0  0  0  0
  5  7  1  0  0  0  0
  7  8  1  0  0  0  0
  7 43  1  0  0  0  0
  8  9  1  0  0  0  0
  8 44  1  0  0  0  0
  8 45  1  0  0  0  0
  9 10  1  0  0  0  0
  9 46  1  0  0  0  0
  9 47  1  0  0  0  0
 10 11  1  0  0  0  0
 10 15  1  0  0  0  0
 11 12  1  0  0  0  0
 11 48  1  0  0  0  0
 11 49  1  0  0  0  0
 12 13  1  0  0  0  0
 12 50  1  0  0  0  0
 12 51  1  0  0  0  0
 13 14  1  0  0  0  0
 14 15  1  0  0  0  0
 14 52  1  0  0  0  0
 14 53  1  0  0  0  0
 15 54  1  0  0  0  0
 15 55  1  0  0  0  0
 16 17  1  0  0  0  0
 16 56  1  0  0  0  0
 17 18  1  0  0  0  0
 18 19  2  0  0  0  0
 18 57  1  0  0  0  0
 19 20  1  0  0  0  0
 19 38  1  0  0  0  0
 20 21  2  0  0  0  0
 20 22  1  0  0  0  0
 22 23  1  0  0  0  0
 22 24  1  0  0  0  0
 23 58  1  0  0  0  0
 23 59  1  0  0  0  0
 23 60  1  0  0  0  0
 24 25  1  0  0  0  0
 24 38  2  0  0  0  0
 25 26  2  0  0  0  0
 26 27  1  0  0  0  0
 26 61  1  0  0  0  0
 27 28  2  0  0  0  0
 28 29  1  0  0  0  0
 28 38  1  0  0  0  0
 29 30  1  0  0  0  0
 29 62  1  0  0  0  0
 30 31  1  0  0  0  0
 30 37  2  0  0  0  0
 31 32  2  0  0  0  0
 31 63  1  0  0  0  0
 32 33  1  0  0  0  0
 32 64  1  0  0  0  0
 33 34  1  0  0  0  0
 33 35  2  0  0  0  0
 35 36  1  0  0  0  0
 35 37  1  0  0  0  0
 37 65  1  0  0  0  0
M  END
$$$$
