CHEMBL3321892
 OpenBabel04072215363D

 41 45  0  0  0  0  0  0  0  0999 V2000
    1.0061    0.1432   -0.4514 C   0  0  0  0  0  0  0  0  0  0  0  0
    0.3096    1.1992   -1.0350 C   0  0  0  0  0  0  0  0  0  0  0  0
   -1.0932    1.1983   -1.0618 C   0  0  0  0  0  0  0  0  0  0  0  0
   -1.8235    0.1398   -0.5058 C   0  0  0  0  0  0  0  0  0  0  0  0
   -3.3005    0.1470   -0.5316 C   0  0  0  0  0  0  0  0  0  0  0  0
   -4.1163    1.0135   -1.1226 N   0  0  0  0  0  0  0  0  0  0  0  0
   -5.4062    0.6314   -0.7918 C   0  0  0  0  0  0  0  0  0  0  0  0
   -6.6679    1.1667   -1.1179 C   0  0  0  0  0  0  0  0  0  0  0  0
   -7.8411    0.5845   -0.5651 C   0  0  0  0  0  0  0  0  0  0  0  0
   -7.7666   -0.4931    0.3198 C   0  0  0  0  0  0  0  0  0  0  0  0
   -8.8464   -1.1240    0.9788 N   0  0  0  0  0  0  0  0  0  0  0  0
  -10.2497   -0.9159    1.0625 C   0  0  0  0  0  0  0  0  0  0  0  0
  -10.8443    0.0723    0.3765 N   0  0  0  0  0  0  0  0  0  0  0  0
  -12.1668    0.1989    0.5519 C   0  0  0  0  0  0  0  0  0  0  0  0
  -12.9480   -0.5427    1.3512 N   0  0  0  0  0  0  0  0  0  0  0  0
  -12.3569   -1.5424    2.0085 C   0  0  0  0  0  0  0  0  0  0  0  0
  -13.1281   -2.3454    2.8473 C   0  0  0  0  0  0  0  0  0  0  0  0
  -12.5892   -3.4306    3.5450 C   0  0  0  0  0  0  0  0  0  0  0  0
  -11.2451   -3.7343    3.4015 C   0  0  0  0  0  0  0  0  0  0  0  0
  -10.4537   -2.9374    2.5796 C   0  0  0  0  0  0  0  0  0  0  0  0
  -10.9885   -1.8143    1.8864 C   0  0  0  0  0  0  0  0  0  0  0  0
   -6.5078   -1.0820    0.5600 C   0  0  0  0  0  0  0  0  0  0  0  0
   -5.3729   -0.4902    0.0141 C   0  0  0  0  0  0  0  0  0  0  0  0
   -4.0507   -0.8084    0.1138 N   0  0  0  0  0  0  0  0  0  0  0  0
   -1.0978   -0.9129    0.0879 C   0  0  0  0  0  0  0  0  0  0  0  0
    0.3012   -0.9135    0.1142 C   0  0  0  0  0  0  0  0  0  0  0  0
    2.0927    0.1421   -0.4351 H   0  0  0  0  0  0  0  0  0  0  0  0
    0.8601    2.0289   -1.4724 H   0  0  0  0  0  0  0  0  0  0  0  0
   -1.6152    2.0374   -1.5184 H   0  0  0  0  0  0  0  0  0  0  0  0
   -6.7360    2.0290   -1.7736 H   0  0  0  0  0  0  0  0  0  0  0  0
   -8.8034    1.0233   -0.8182 H   0  0  0  0  0  0  0  0  0  0  0  0
   -8.5266   -1.3528    1.9159 H   0  0  0  0  0  0  0  0  0  0  0  0
  -12.6653    0.9828   -0.0084 H   0  0  0  0  0  0  0  0  0  0  0  0
  -14.1875   -2.1221    2.9615 H   0  0  0  0  0  0  0  0  0  0  0  0
  -13.2238   -4.0382    4.1862 H   0  0  0  0  0  0  0  0  0  0  0  0
  -10.8152   -4.5877    3.9203 H   0  0  0  0  0  0  0  0  0  0  0  0
   -9.4043   -3.2070    2.4693 H   0  0  0  0  0  0  0  0  0  0  0  0
   -6.4205   -1.9697    1.1769 H   0  0  0  0  0  0  0  0  0  0  0  0
   -3.6863   -1.5939    0.6258 H   0  0  0  0  0  0  0  0  0  0  0  0
   -1.5956   -1.7621    0.5443 H   0  0  0  0  0  0  0  0  0  0  0  0
    0.8368   -1.7401    0.5750 H   0  0  0  0  0  0  0  0  0  0  0  0
  1  2  1  0  0  0  0
  1 26  2  0  0  0  0
  1 27  1  0  0  0  0
  2  3  2  0  0  0  0
  2 28  1  0  0  0  0
  3  4  1  0  0  0  0
  3 29  1  0  0  0  0
  4  5  1  0  0  0  0
  4 25  2  0  0  0  0
  5  6  2  0  0  0  0
  5 24  1  0  0  0  0
  6  7  1  0  0  0  0
  7  8  1  0  0  0  0
  7 23  2  0  0  0  0
  8  9  2  0  0  0  0
  8 30  1  0  0  0  0
  9 10  1  0  0  0  0
  9 31  1  0  0  0  0
 10 11  1  0  0  0  0
 10 22  2  0  0  0  0
 11 12  1  0  0  0  0
 11 32  1  0  0  0  0
 12 13  1  0  0  0  0
 12 21  2  0  0  0  0
 13 14  2  0  0  0  0
 14 15  1  0  0  0  0
 14 33  1  0  0  0  0
 15 16  2  0  0  0  0
 16 17  1  0  0  0  0
 16 21  1  0  0  0  0
 17 18  2  0  0  0  0
 17 34  1  0  0  0  0
 18 19  1  0  0  0  0
 18 35  1  0  0  0  0
 19 20  2  0  0  0  0
 19 36  1  0  0  0  0
 20 21  1  0  0  0  0
 20 37  1  0  0  0  0
 22 23  1  0  0  0  0
 22 38  1  0  0  0  0
 23 24  1  0  0  0  0
 24 39  1  0  0  0  0
 25 26  1  0  0  0  0
 25 40  1  0  0  0  0
 26 41  1  0  0  0  0
M  END
$$$$
