CHEMBL3984709
 OpenBabel04072215373D

 51 54  0  0  0  0  0  0  0  0999 V2000
    1.0278    1.0703   -1.4466 O   0  0  0  0  0  0  0  0  0  0  0  0
    2.2195    1.1747   -1.7293 C   0  0  0  0  0  0  0  0  0  0  0  0
    2.7625    2.0691   -2.6086 N   0  0  0  0  0  0  0  0  0  0  0  0
    2.0903    3.0478   -3.3554 C   0  0  0  0  0  0  0  0  0  0  0  0
    0.8029    3.4812   -3.0578 C   0  0  0  0  0  0  0  0  0  0  0  0
    0.1681    4.4130   -3.8797 C   0  0  0  0  0  0  0  0  0  0  0  0
    0.8075    4.9160   -5.0179 C   0  0  0  0  0  0  0  0  0  0  0  0
   -0.1016    6.0195   -5.9805 Cl  0  0  0  0  0  0  0  0  0  0  0  0
    2.1119    4.5152   -5.3261 C   0  0  0  0  0  0  0  0  0  0  0  0
    2.8874    4.9787   -6.5294 C   0  0  0  0  0  0  0  0  0  0  0  0
    2.2327    5.7814   -7.4068 F   0  0  0  0  0  0  0  0  0  0  0  0
    4.0097    5.6668   -6.1705 F   0  0  0  0  0  0  0  0  0  0  0  0
    3.3376    3.9258   -7.2748 F   0  0  0  0  0  0  0  0  0  0  0  0
    2.7499    3.5930   -4.4621 C   0  0  0  0  0  0  0  0  0  0  0  0
    3.0830    0.2910   -1.1474 N   0  0  0  0  0  0  0  0  0  0  0  0
    4.4745    0.2407   -1.2172 C   0  0  0  0  0  0  0  0  0  0  0  0
    5.1160   -0.7447   -0.4778 C   0  0  0  0  0  0  0  0  0  0  0  0
    6.5089   -0.7801   -0.4692 C   0  0  0  0  0  0  0  0  0  0  0  0
    7.2253    0.1277   -1.2464 C   0  0  0  0  0  0  0  0  0  0  0  0
    8.5956    0.1688   -1.3429 O   0  0  0  0  0  0  0  0  0  0  0  0
    9.2969   -1.0179   -1.3137 C   0  0  0  0  0  0  0  0  0  0  0  0
    8.8093   -2.2051   -1.8509 C   0  0  0  0  0  0  0  0  0  0  0  0
    9.5626   -3.3413   -1.6746 C   0  0  0  0  0  0  0  0  0  0  0  0
   10.7654   -3.3406   -1.0766 N   0  0  0  0  0  0  0  0  0  0  0  0
   11.2774   -2.1780   -0.6400 C   0  0  0  0  0  0  0  0  0  0  0  0
   12.5648   -2.1569   -0.0851 N   0  0  0  0  0  0  0  0  0  0  0  0
   13.3284   -3.2850    0.1166 C   0  0  0  0  0  0  0  0  0  0  0  0
   13.0134   -4.4512   -0.0567 O   0  0  0  0  0  0  0  0  0  0  0  0
   14.7194   -2.9865    0.5831 C   0  0  0  0  0  0  0  0  0  0  0  0
   15.8805   -3.3618   -0.3120 C   0  0  0  0  0  0  0  0  0  0  0  0
   15.6566   -4.1135    0.9666 C   0  0  0  0  0  0  0  0  0  0  0  0
   10.5707   -0.9864   -0.7408 C   0  0  0  0  0  0  0  0  0  0  0  0
    6.5028    1.0814   -1.9452 C   0  0  0  0  0  0  0  0  0  0  0  0
    5.1481    1.1494   -1.9588 N   0  0  0  0  0  0  0  0  0  0  0  0
    3.7496    1.9092   -2.8037 H   0  0  0  0  0  0  0  0  0  0  0  0
    0.2724    3.1225   -2.1797 H   0  0  0  0  0  0  0  0  0  0  0  0
   -0.8397    4.7324   -3.6244 H   0  0  0  0  0  0  0  0  0  0  0  0
    3.7635    3.2666   -4.6978 H   0  0  0  0  0  0  0  0  0  0  0  0
    2.6072   -0.3704   -0.5508 H   0  0  0  0  0  0  0  0  0  0  0  0
    4.5570   -1.4772    0.0957 H   0  0  0  0  0  0  0  0  0  0  0  0
    7.0126   -1.5292    0.1357 H   0  0  0  0  0  0  0  0  0  0  0  0
    7.8571   -2.2683   -2.3626 H   0  0  0  0  0  0  0  0  0  0  0  0
    9.2140   -4.3133   -2.0088 H   0  0  0  0  0  0  0  0  0  0  0  0
   12.9605   -1.2603    0.1491 H   0  0  0  0  0  0  0  0  0  0  0  0
   14.8254   -2.0784    1.1678 H   0  0  0  0  0  0  0  0  0  0  0  0
   16.7272   -2.6891   -0.3655 H   0  0  0  0  0  0  0  0  0  0  0  0
   15.6657   -3.8843   -1.2392 H   0  0  0  0  0  0  0  0  0  0  0  0
   16.3482   -3.9507    1.7840 H   0  0  0  0  0  0  0  0  0  0  0  0
   15.2915   -5.1341    0.8975 H   0  0  0  0  0  0  0  0  0  0  0  0
   10.9771   -0.0493   -0.3769 H   0  0  0  0  0  0  0  0  0  0  0  0
    7.0080    1.8410   -2.5358 H   0  0  0  0  0  0  0  0  0  0  0  0
  1  2  2  0  0  0  0
  2  3  1  0  0  0  0
  2 15  1  0  0  0  0
  3  4  1  0  0  0  0
  3 35  1  0  0  0  0
  4  5  1  0  0  0  0
  4 14  2  0  0  0  0
  5  6  2  0  0  0  0
  5 36  1  0  0  0  0
  6  7  1  0  0  0  0
  6 37  1  0  0  0  0
  7  8  1  0  0  0  0
  7  9  2  0  0  0  0
  9 10  1  0  0  0  0
  9 14  1  0  0  0  0
 10 11  1  0  0  0  0
 10 12  1  0  0  0  0
 10 13  1  0  0  0  0
 14 38  1  0  0  0  0
 15 16  1  0  0  0  0
 15 39  1  0  0  0  0
 16 17  1  0  0  0  0
 16 34  2  0  0  0  0
 17 18  2  0  0  0  0
 17 40  1  0  0  0  0
 18 19  1  0  0  0  0
 18 41  1  0  0  0  0
 19 20  1  0  0  0  0
 19 33  2  0  0  0  0
 20 21  1  0  0  0  0
 21 22  1  0  0  0  0
 21 32  2  0  0  0  0
 22 23  2  0  0  0  0
 22 42  1  0  0  0  0
 23 24  1  0  0  0  0
 23 43  1  0  0  0  0
 24 25  2  0  0  0  0
 25 26  1  0  0  0  0
 25 32  1  0  0  0  0
 26 27  1  0  0  0  0
 26 44  1  0  0  0  0
 27 28  2  0  0  0  0
 27 29  1  0  0  0  0
 29 30  1  0  0  0  0
 29 31  1  0  0  0  0
 29 45  1  0  0  0  0
 30 31  1  0  0  0  0
 30 46  1  0  0  0  0
 30 47  1  0  0  0  0
 31 48  1  0  0  0  0
 31 49  1  0  0  0  0
 32 50  1  0  0  0  0
 33 34  1  0  0  0  0
 33 51  1  0  0  0  0
M  END
$$$$
