CHEMBL3660304
 OpenBabel04072215373D

 45 48  0  0  0  0  0  0  0  0999 V2000
    2.4956   -0.3881    1.3380 O   0  0  0  0  0  0  0  0  0  0  0  0
    2.1210   -0.6106    0.1939 C   0  0  0  0  0  0  0  0  0  0  0  0
    0.7929   -0.6825   -0.1945 N   0  0  0  0  0  0  0  0  0  0  0  0
   -0.3305   -0.5387    0.6512 C   0  0  0  0  0  0  0  0  0  0  0  0
   -0.2636   -0.0436    1.9557 C   0  0  0  0  0  0  0  0  0  0  0  0
   -1.4107    0.0241    2.7521 C   0  0  0  0  0  0  0  0  0  0  0  0
   -2.6370   -0.3934    2.2452 C   0  0  0  0  0  0  0  0  0  0  0  0
   -2.7200   -0.8641    0.9376 C   0  0  0  0  0  0  0  0  0  0  0  0
   -1.5736   -0.9290    0.1401 C   0  0  0  0  0  0  0  0  0  0  0  0
    2.9673   -0.8541   -0.8782 N   0  0  0  0  0  0  0  0  0  0  0  0
    4.3734   -0.9708   -0.8278 C   0  0  0  0  0  0  0  0  0  0  0  0
    5.1101   -0.9126    0.3517 C   0  0  0  0  0  0  0  0  0  0  0  0
    6.5047   -0.9974    0.3302 C   0  0  0  0  0  0  0  0  0  0  0  0
    7.2155   -1.1700   -0.8665 C   0  0  0  0  0  0  0  0  0  0  0  0
    8.6907   -1.2330   -0.8658 C   0  0  0  0  0  0  0  0  0  0  0  0
    9.4084   -1.7661    0.2132 C   0  0  0  0  0  0  0  0  0  0  0  0
   10.8010   -1.7883    0.2039 C   0  0  0  0  0  0  0  0  0  0  0  0
   11.4671   -1.2893   -0.9039 C   0  0  0  0  0  0  0  0  0  0  0  0
   12.9198   -1.3071   -1.0057 C   0  0  0  0  0  0  0  0  0  0  0  0
   13.9012   -1.7938   -0.1575 C   0  0  0  0  0  0  0  0  0  0  0  0
   15.1610   -1.5592   -0.7577 C   0  0  0  0  0  0  0  0  0  0  0  0
   14.9272   -0.9337   -1.9601 C   0  0  0  0  0  0  0  0  0  0  0  0
   13.5736   -0.7875   -2.1015 N   0  0  0  0  0  0  0  0  0  0  0  0
   10.8256   -0.7622   -1.9720 N   0  0  0  0  0  0  0  0  0  0  0  0
    9.4682   -0.7434   -1.9191 C   0  0  0  0  0  0  0  0  0  0  0  0
    6.4586   -1.2689   -2.0462 C   0  0  0  0  0  0  0  0  0  0  0  0
    5.0591   -1.1629   -2.0295 C   0  0  0  0  0  0  0  0  0  0  0  0
    0.6097   -1.0358   -1.1193 H   0  0  0  0  0  0  0  0  0  0  0  0
    0.6676    0.3010    2.3937 H   0  0  0  0  0  0  0  0  0  0  0  0
   -1.3357    0.3985    3.7697 H   0  0  0  0  0  0  0  0  0  0  0  0
   -3.5245   -0.3511    2.8705 H   0  0  0  0  0  0  0  0  0  0  0  0
   -3.6764   -1.1927    0.5402 H   0  0  0  0  0  0  0  0  0  0  0  0
   -1.6656   -1.3125   -0.8718 H   0  0  0  0  0  0  0  0  0  0  0  0
    2.5505   -0.8690   -1.7953 H   0  0  0  0  0  0  0  0  0  0  0  0
    4.6421   -0.7890    1.3224 H   0  0  0  0  0  0  0  0  0  0  0  0
    7.0221   -0.9058    1.2830 H   0  0  0  0  0  0  0  0  0  0  0  0
    8.8963   -2.1794    1.0788 H   0  0  0  0  0  0  0  0  0  0  0  0
   11.3388   -2.1930    1.0530 H   0  0  0  0  0  0  0  0  0  0  0  0
   13.7320   -2.2744    0.7970 H   0  0  0  0  0  0  0  0  0  0  0  0
   16.1296   -1.8219   -0.3542 H   0  0  0  0  0  0  0  0  0  0  0  0
   15.6046   -0.5827   -2.7265 H   0  0  0  0  0  0  0  0  0  0  0  0
   13.0882   -0.3660   -2.8842 H   0  0  0  0  0  0  0  0  0  0  0  0
    9.0065   -0.2834   -2.7896 H   0  0  0  0  0  0  0  0  0  0  0  0
    6.9459   -1.4380   -3.0044 H   0  0  0  0  0  0  0  0  0  0  0  0
    4.5233   -1.2358   -2.9722 H   0  0  0  0  0  0  0  0  0  0  0  0
  1  2  2  0  0  0  0
  2  3  1  0  0  0  0
  2 10  1  0  0  0  0
  3  4  1  0  0  0  0
  3 28  1  0  0  0  0
  4  5  1  0  0  0  0
  4  9  2  0  0  0  0
  5  6  2  0  0  0  0
  5 29  1  0  0  0  0
  6  7  1  0  0  0  0
  6 30  1  0  0  0  0
  7  8  2  0  0  0  0
  7 31  1  0  0  0  0
  8  9  1  0  0  0  0
  8 32  1  0  0  0  0
  9 33  1  0  0  0  0
 10 11  1  0  0  0  0
 10 34  1  0  0  0  0
 11 12  1  0  0  0  0
 11 27  2  0  0  0  0
 12 13  2  0  0  0  0
 12 35  1  0  0  0  0
 13 14  1  0  0  0  0
 13 36  1  0  0  0  0
 14 15  1  0  0  0  0
 14 26  2  0  0  0  0
 15 16  1  0  0  0  0
 15 25  2  0  0  0  0
 16 17  2  0  0  0  0
 16 37  1  0  0  0  0
 17 18  1  0  0  0  0
 17 38  1  0  0  0  0
 18 19  1  0  0  0  0
 18 24  2  0  0  0  0
 19 20  2  0  0  0  0
 19 23  1  0  0  0  0
 20 21  1  0  0  0  0
 20 39  1  0  0  0  0
 21 22  2  0  0  0  0
 21 40  1  0  0  0  0
 22 23  1  0  0  0  0
 22 41  1  0  0  0  0
 23 42  1  0  0  0  0
 24 25  1  0  0  0  0
 25 43  1  0  0  0  0
 26 27  1  0  0  0  0
 26 44  1  0  0  0  0
 27 45  1  0  0  0  0
M  END
$$$$
