CHEMBL3914411
 OpenBabel04072215373D

 55 58  0  0  0  0  0  0  0  0999 V2000
    2.2009   -0.6874    1.1080 C   0  0  0  0  0  0  0  0  0  0  0  0
    0.8934   -0.3044    0.5129 C   0  0  0  0  0  0  0  0  0  0  0  0
    0.5070    1.0110    0.1302 C   0  0  0  0  0  0  0  0  0  0  0  0
   -0.7646    0.9142   -0.3756 C   0  0  0  0  0  0  0  0  0  0  0  0
   -1.1947   -0.3706   -0.3438 O   0  0  0  0  0  0  0  0  0  0  0  0
   -0.1900   -1.1255    0.2073 C   0  0  0  0  0  0  0  0  0  0  0  0
   -0.4036   -2.5573    0.3700 C   0  0  0  0  0  0  0  0  0  0  0  0
    0.4348   -3.2740    0.9107 O   0  0  0  0  0  0  0  0  0  0  0  0
   -1.6015   -3.0135   -0.1803 N   0  0  0  0  0  0  0  0  0  0  0  0
   -2.0587   -4.3523   -0.2059 C   0  0  0  0  0  0  0  0  0  0  0  0
   -1.5310   -5.3398    0.6300 C   0  0  0  0  0  0  0  0  0  0  0  0
   -1.9317   -6.6710    0.5069 C   0  0  0  0  0  0  0  0  0  0  0  0
   -2.8634   -7.0323   -0.4639 C   0  0  0  0  0  0  0  0  0  0  0  0
   -3.4276   -6.0512   -1.2878 C   0  0  0  0  0  0  0  0  0  0  0  0
   -4.3157   -6.4569   -2.3460 C   0  0  0  0  0  0  0  0  0  0  0  0
   -4.9749   -6.8524   -3.2672 C   0  0  0  0  0  0  0  0  0  0  0  0
   -5.6920   -7.3666   -4.4052 C   0  0  0  0  0  0  0  0  0  0  0  0
   -6.3883   -6.4846   -5.2391 C   0  0  0  0  0  0  0  0  0  0  0  0
   -7.0655   -6.9844   -6.3549 C   0  0  0  0  0  0  0  0  0  0  0  0
   -7.8901   -6.1165   -7.2362 C   0  0  0  0  0  0  0  0  0  0  0  0
   -8.0601   -6.4897   -8.3920 O   0  0  0  0  0  0  0  0  0  0  0  0
   -8.5392   -4.9905   -6.6973 N   0  0  0  0  0  0  0  0  0  0  0  0
   -8.8533   -3.7704   -7.5777 S   0  0  0  0  0  0  0  0  0  0  0  0
   -7.8945   -3.1134   -8.4397 O   0  0  0  0  0  0  0  0  0  0  0  0
   -9.5662   -2.5054   -6.5509 C   0  0  0  0  0  0  0  0  0  0  0  0
  -10.7725   -1.9319   -7.2996 C   0  0  0  0  0  0  0  0  0  0  0  0
  -10.9435   -2.6453   -8.6439 C   0  0  0  0  0  0  0  0  0  0  0  0
  -10.3420   -4.0379   -8.5117 C   0  0  0  0  0  0  0  0  0  0  0  0
   -6.9856   -8.3440   -6.6110 C   0  0  0  0  0  0  0  0  0  0  0  0
   -6.3206   -9.2236   -5.8190 N   0  0  0  0  0  0  0  0  0  0  0  0
   -5.6960   -8.7338   -4.7257 C   0  0  0  0  0  0  0  0  0  0  0  0
   -5.1372   -9.6983   -3.8905 N   0  0  0  0  0  0  0  0  0  0  0  0
   -3.0537   -4.7109   -1.1311 C   0  0  0  0  0  0  0  0  0  0  0  0
    2.8767    0.1755    1.1413 H   0  0  0  0  0  0  0  0  0  0  0  0
    2.6898   -1.4649    0.5127 H   0  0  0  0  0  0  0  0  0  0  0  0
    2.0756   -1.0500    2.1326 H   0  0  0  0  0  0  0  0  0  0  0  0
    1.0929    1.9165    0.2141 H   0  0  0  0  0  0  0  0  0  0  0  0
   -1.4625    1.6330   -0.7812 H   0  0  0  0  0  0  0  0  0  0  0  0
   -2.1108   -2.3282   -0.7281 H   0  0  0  0  0  0  0  0  0  0  0  0
   -0.7984   -5.1032    1.3960 H   0  0  0  0  0  0  0  0  0  0  0  0
   -1.4898   -7.4238    1.1549 H   0  0  0  0  0  0  0  0  0  0  0  0
   -3.1278   -8.0806   -0.5796 H   0  0  0  0  0  0  0  0  0  0  0  0
   -6.4047   -5.4199   -5.0221 H   0  0  0  0  0  0  0  0  0  0  0  0
   -8.8078   -1.7477   -6.3422 H   0  0  0  0  0  0  0  0  0  0  0  0
   -9.8917   -2.9593   -5.6093 H   0  0  0  0  0  0  0  0  0  0  0  0
  -10.6463   -0.8543   -7.4580 H   0  0  0  0  0  0  0  0  0  0  0  0
  -11.6754   -2.0496   -6.6896 H   0  0  0  0  0  0  0  0  0  0  0  0
  -10.4039   -2.0846   -9.4174 H   0  0  0  0  0  0  0  0  0  0  0  0
  -11.9948   -2.6817   -8.9472 H   0  0  0  0  0  0  0  0  0  0  0  0
  -10.1044   -4.4847   -9.4788 H   0  0  0  0  0  0  0  0  0  0  0  0
  -11.0029   -4.6967   -7.9408 H   0  0  0  0  0  0  0  0  0  0  0  0
   -7.4901   -8.7925   -7.4645 H   0  0  0  0  0  0  0  0  0  0  0  0
   -5.1803  -10.5932   -4.3702 H   0  0  0  0  0  0  0  0  0  0  0  0
   -4.2079   -9.4587   -3.5685 H   0  0  0  0  0  0  0  0  0  0  0  0
   -3.5000   -3.9601   -1.7786 H   0  0  0  0  0  0  0  0  0  0  0  0
  1  2  1  0  0  0  0
  1 34  1  0  0  0  0
  1 35  1  0  0  0  0
  1 36  1  0  0  0  0
  2  3  1  0  0  0  0
  2  6  2  0  0  0  0
  3  4  2  0  0  0  0
  3 37  1  0  0  0  0
  4  5  1  0  0  0  0
  4 38  1  0  0  0  0
  5  6  1  0  0  0  0
  6  7  1  0  0  0  0
  7  8  2  0  0  0  0
  7  9  1  0  0  0  0
  9 10  1  0  0  0  0
  9 39  1  0  0  0  0
 10 11  1  0  0  0  0
 10 33  2  0  0  0  0
 11 12  2  0  0  0  0
 11 40  1  0  0  0  0
 12 13  1  0  0  0  0
 12 41  1  0  0  0  0
 13 14  2  0  0  0  0
 13 42  1  0  0  0  0
 14 15  1  0  0  0  0
 14 33  1  0  0  0  0
 15 16  3  0  0  0  0
 16 17  1  0  0  0  0
 17 18  1  0  0  0  0
 17 31  2  0  0  0  0
 18 19  2  0  0  0  0
 18 43  1  0  0  0  0
 19 20  1  0  0  0  0
 19 29  1  0  0  0  0
 20 21  2  0  0  0  0
 20 22  1  0  0  0  0
 22 23  2  0  0  0  0
 23 24  2  0  0  0  0
 23 25  1  0  0  0  0
 23 28  1  0  0  0  0
 25 26  1  0  0  0  0
 25 44  1  0  0  0  0
 25 45  1  0  0  0  0
 26 27  1  0  0  0  0
 26 46  1  0  0  0  0
 26 47  1  0  0  0  0
 27 28  1  0  0  0  0
 27 48  1  0  0  0  0
 27 49  1  0  0  0  0
 28 50  1  0  0  0  0
 28 51  1  0  0  0  0
 29 30  2  0  0  0  0
 29 52  1  0  0  0  0
 30 31  1  0  0  0  0
 31 32  1  0  0  0  0
 32 53  1  0  0  0  0
 32 54  1  0  0  0  0
 33 55  1  0  0  0  0
M  END
$$$$
