CHEMBL3690539
 OpenBabel04072215373D

 53 56  0  0  0  0  0  0  0  0999 V2000
    0.7501   -0.6387    0.5549 C   0  0  0  0  0  0  0  0  0  0  0  0
    2.0916   -0.2605    0.2202 O   0  0  0  0  0  0  0  0  0  0  0  0
    2.8879   -1.3628   -0.0243 C   0  0  0  0  0  0  0  0  0  0  0  0
    2.2777   -2.4583   -0.5326 N   0  0  0  0  0  0  0  0  0  0  0  0
    3.0259   -3.5798   -0.6610 C   0  0  0  0  0  0  0  0  0  0  0  0
    4.3746   -3.6649   -0.3405 C   0  0  0  0  0  0  0  0  0  0  0  0
    5.1258   -4.9281   -0.4683 C   0  0  0  0  0  0  0  0  0  0  0  0
    5.7692   -5.3137   -1.7150 C   0  0  0  0  0  0  0  0  0  0  0  0
    6.4108   -6.5041   -1.7935 C   0  0  0  0  0  0  0  0  0  0  0  0
    6.4432   -7.3540   -0.6874 N   0  0  0  0  0  0  0  0  0  0  0  0
    6.9972   -8.6183   -0.5216 C   0  0  0  0  0  0  0  0  0  0  0  0
    7.7136   -9.4177   -1.5236 C   0  0  0  0  0  0  0  0  0  0  0  0
    8.7105  -10.3066   -1.0933 C   0  0  0  0  0  0  0  0  0  0  0  0
    9.4080  -11.0851   -2.0099 C   0  0  0  0  0  0  0  0  0  0  0  0
    9.0958  -11.0045   -3.3680 C   0  0  0  0  0  0  0  0  0  0  0  0
    8.0705  -10.1843   -3.8274 C   0  0  0  0  0  0  0  0  0  0  0  0
    7.6533  -10.1568   -5.1897 N   0  0  0  0  0  0  0  0  0  0  0  0
    8.1856  -10.9318   -6.1975 C   0  0  0  0  0  0  0  0  0  0  0  0
    9.0987  -11.7420   -6.0749 O   0  0  0  0  0  0  0  0  0  0  0  0
    7.6520  -10.7006   -7.4367 N   0  0  0  0  0  0  0  0  0  0  0  0
    8.1857  -11.4907   -8.5598 C   0  0  0  0  0  0  0  0  0  0  0  0
    7.5478  -12.8657   -8.8049 C   0  0  0  0  0  0  0  0  0  0  0  0
    6.5251  -13.1156   -7.9573 F   0  0  0  0  0  0  0  0  0  0  0  0
    7.0392  -12.9221  -10.0625 F   0  0  0  0  0  0  0  0  0  0  0  0
    8.4432  -13.8701   -8.6938 F   0  0  0  0  0  0  0  0  0  0  0  0
    7.4040   -9.3781   -2.9007 C   0  0  0  0  0  0  0  0  0  0  0  0
    6.7416   -8.9196    0.8106 C   0  0  0  0  0  0  0  0  0  0  0  0
    6.0458   -7.9277    1.4446 N   0  0  0  0  0  0  0  0  0  0  0  0
    5.8701   -6.9995    0.5325 C   0  0  0  0  0  0  0  0  0  0  0  0
    5.1962   -5.7425    0.6105 C   0  0  0  0  0  0  0  0  0  0  0  0
    4.9889   -2.5001    0.1187 C   0  0  0  0  0  0  0  0  0  0  0  0
    4.2472   -1.3194    0.2968 C   0  0  0  0  0  0  0  0  0  0  0  0
    4.9379   -0.1085    0.8491 C   0  0  0  0  0  0  0  0  0  0  0  0
    0.2883    0.1976    1.0901 H   0  0  0  0  0  0  0  0  0  0  0  0
    0.7177   -1.5054    1.2285 H   0  0  0  0  0  0  0  0  0  0  0  0
    0.1444   -0.8318   -0.3401 H   0  0  0  0  0  0  0  0  0  0  0  0
    2.4700   -4.4407   -1.0212 H   0  0  0  0  0  0  0  0  0  0  0  0
    5.7485   -4.6471   -2.5644 H   0  0  0  0  0  0  0  0  0  0  0  0
    6.9041   -6.8068   -2.7021 H   0  0  0  0  0  0  0  0  0  0  0  0
    8.9553  -10.4155   -0.0401 H   0  0  0  0  0  0  0  0  0  0  0  0
   10.1838  -11.7632   -1.6813 H   0  0  0  0  0  0  0  0  0  0  0  0
    9.6829  -11.6249   -4.0276 H   0  0  0  0  0  0  0  0  0  0  0  0
    6.8731   -9.5669   -5.4242 H   0  0  0  0  0  0  0  0  0  0  0  0
    6.7286  -10.3039   -7.5187 H   0  0  0  0  0  0  0  0  0  0  0  0
    9.2591  -11.6437   -8.3957 H   0  0  0  0  0  0  0  0  0  0  0  0
    8.0936  -10.8713   -9.4570 H   0  0  0  0  0  0  0  0  0  0  0  0
    6.6036   -8.7350   -3.2490 H   0  0  0  0  0  0  0  0  0  0  0  0
    7.0256   -9.8193    1.3452 H   0  0  0  0  0  0  0  0  0  0  0  0
    4.7342   -5.4913    1.5596 H   0  0  0  0  0  0  0  0  0  0  0  0
    6.0470   -2.5211    0.3768 H   0  0  0  0  0  0  0  0  0  0  0  0
    5.9253   -0.3749    1.2564 H   0  0  0  0  0  0  0  0  0  0  0  0
    4.3666    0.3265    1.6744 H   0  0  0  0  0  0  0  0  0  0  0  0
    5.1013    0.6422    0.0697 H   0  0  0  0  0  0  0  0  0  0  0  0
  1  2  1  0  0  0  0
  1 34  1  0  0  0  0
  1 35  1  0  0  0  0
  1 36  1  0  0  0  0
  2  3  1  0  0  0  0
  3  4  1  0  0  0  0
  3 32  2  0  0  0  0
  4  5  2  0  0  0  0
  5  6  1  0  0  0  0
  5 37  1  0  0  0  0
  6  7  1  0  0  0  0
  6 31  2  0  0  0  0
  7  8  1  0  0  0  0
  7 30  2  0  0  0  0
  8  9  2  0  0  0  0
  8 38  1  0  0  0  0
  9 10  1  0  0  0  0
  9 39  1  0  0  0  0
 10 11  1  0  0  0  0
 10 29  1  0  0  0  0
 11 12  1  0  0  0  0
 11 27  2  0  0  0  0
 12 13  1  0  0  0  0
 12 26  2  0  0  0  0
 13 14  2  0  0  0  0
 13 40  1  0  0  0  0
 14 15  1  0  0  0  0
 14 41  1  0  0  0  0
 15 16  2  0  0  0  0
 15 42  1  0  0  0  0
 16 17  1  0  0  0  0
 16 26  1  0  0  0  0
 17 18  1  0  0  0  0
 17 43  1  0  0  0  0
 18 19  2  0  0  0  0
 18 20  1  0  0  0  0
 20 21  1  0  0  0  0
 20 44  1  0  0  0  0
 21 22  1  0  0  0  0
 21 45  1  0  0  0  0
 21 46  1  0  0  0  0
 22 23  1  0  0  0  0
 22 24  1  0  0  0  0
 22 25  1  0  0  0  0
 26 47  1  0  0  0  0
 27 28  1  0  0  0  0
 27 48  1  0  0  0  0
 28 29  2  0  0  0  0
 29 30  1  0  0  0  0
 30 49  1  0  0  0  0
 31 32  1  0  0  0  0
 31 50  1  0  0  0  0
 32 33  1  0  0  0  0
 33 51  1  0  0  0  0
 33 52  1  0  0  0  0
 33 53  1  0  0  0  0
M  END
$$$$
