CHEMBL3690466
 OpenBabel04072215373D

 46 49  0  0  0  0  0  0  0  0999 V2000
    2.4091   -0.7545    1.2522 O   0  0  0  0  0  0  0  0  0  0  0  0
    2.1187   -0.5255    0.0862 C   0  0  0  0  0  0  0  0  0  0  0  0
    0.8164   -0.2566   -0.2816 N   0  0  0  0  0  0  0  0  0  0  0  0
   -0.2417   -0.4071    0.7257 C   0  0  0  0  0  0  0  0  0  0  0  0
   -0.7548   -1.8413    0.9169 C   0  0  0  0  0  0  0  0  0  0  0  0
   -0.1798   -2.7026    0.0447 F   0  0  0  0  0  0  0  0  0  0  0  0
   -0.5439   -2.3035    2.1656 F   0  0  0  0  0  0  0  0  0  0  0  0
   -2.0907   -1.8887    0.6855 F   0  0  0  0  0  0  0  0  0  0  0  0
    2.9701   -0.4751   -0.9958 N   0  0  0  0  0  0  0  0  0  0  0  0
    4.3709   -0.6606   -0.9843 C   0  0  0  0  0  0  0  0  0  0  0  0
    5.0900   -0.9250    0.1804 C   0  0  0  0  0  0  0  0  0  0  0  0
    6.4781   -1.0005    0.1487 C   0  0  0  0  0  0  0  0  0  0  0  0
    7.1545   -0.8428   -1.0564 C   0  0  0  0  0  0  0  0  0  0  0  0
    6.4578   -0.7086   -2.2656 C   0  0  0  0  0  0  0  0  0  0  0  0
    7.1725   -0.7366   -3.5516 C   0  0  0  0  0  0  0  0  0  0  0  0
    6.9343   -0.0595   -4.7374 C   0  0  0  0  0  0  0  0  0  0  0  0
    7.8494   -0.3737   -5.7119 N   0  0  0  0  0  0  0  0  0  0  0  0
    8.6604   -1.2482   -5.1571 C   0  0  0  0  0  0  0  0  0  0  0  0
    9.8151   -1.9226   -5.6743 C   0  0  0  0  0  0  0  0  0  0  0  0
   10.4873   -2.8319   -4.9266 C   0  0  0  0  0  0  0  0  0  0  0  0
   11.6940   -3.5119   -5.4642 C   0  0  0  0  0  0  0  0  0  0  0  0
   12.0124   -4.8025   -5.0583 C   0  0  0  0  0  0  0  0  0  0  0  0
   13.2159   -5.3424   -5.4750 C   0  0  0  0  0  0  0  0  0  0  0  0
   13.5654   -6.5655   -5.0550 F   0  0  0  0  0  0  0  0  0  0  0  0
   14.0686   -4.6309   -6.2954 C   0  0  0  0  0  0  0  0  0  0  0  0
   13.6592   -3.3729   -6.6876 C   0  0  0  0  0  0  0  0  0  0  0  0
   12.4978   -2.8010   -6.2914 N   0  0  0  0  0  0  0  0  0  0  0  0
   10.0225   -3.1029   -3.5594 C   0  0  0  0  0  0  0  0  0  0  0  0
    8.9333   -2.4917   -3.0807 C   0  0  0  0  0  0  0  0  0  0  0  0
    8.2688   -1.5441   -3.8545 N   0  0  0  0  0  0  0  0  0  0  0  0
    5.0611   -0.5685   -2.2063 C   0  0  0  0  0  0  0  0  0  0  0  0
    0.5664   -0.5130   -1.2258 H   0  0  0  0  0  0  0  0  0  0  0  0
   -1.0639    0.2395    0.4036 H   0  0  0  0  0  0  0  0  0  0  0  0
    0.1186   -0.0184    1.6855 H   0  0  0  0  0  0  0  0  0  0  0  0
    2.5620   -0.1934   -1.8734 H   0  0  0  0  0  0  0  0  0  0  0  0
    4.6060   -1.0558    1.1415 H   0  0  0  0  0  0  0  0  0  0  0  0
    7.0304   -1.1801    1.0673 H   0  0  0  0  0  0  0  0  0  0  0  0
    8.2408   -0.8487   -1.0302 H   0  0  0  0  0  0  0  0  0  0  0  0
    6.1479    0.6588   -4.9361 H   0  0  0  0  0  0  0  0  0  0  0  0
   10.1229   -1.6769   -6.6876 H   0  0  0  0  0  0  0  0  0  0  0  0
   11.3654   -5.3858   -4.4151 H   0  0  0  0  0  0  0  0  0  0  0  0
   15.0155   -5.0496   -6.6094 H   0  0  0  0  0  0  0  0  0  0  0  0
   14.2758   -2.7624   -7.3412 H   0  0  0  0  0  0  0  0  0  0  0  0
   10.5749   -3.7921   -2.9298 H   0  0  0  0  0  0  0  0  0  0  0  0
    8.5658   -2.7137   -2.0905 H   0  0  0  0  0  0  0  0  0  0  0  0
    4.5048   -0.4095   -3.1286 H   0  0  0  0  0  0  0  0  0  0  0  0
  1  2  2  0  0  0  0
  2  3  1  0  0  0  0
  2  9  1  0  0  0  0
  3  4  1  0  0  0  0
  3 32  1  0  0  0  0
  4  5  1  0  0  0  0
  4 33  1  0  0  0  0
  4 34  1  0  0  0  0
  5  6  1  0  0  0  0
  5  7  1  0  0  0  0
  5  8  1  0  0  0  0
  9 10  1  0  0  0  0
  9 35  1  0  0  0  0
 10 11  1  0  0  0  0
 10 31  2  0  0  0  0
 11 12  2  0  0  0  0
 11 36  1  0  0  0  0
 12 13  1  0  0  0  0
 12 37  1  0  0  0  0
 13 14  2  0  0  0  0
 13 38  1  0  0  0  0
 14 15  1  0  0  0  0
 14 31  1  0  0  0  0
 15 16  2  0  0  0  0
 15 30  1  0  0  0  0
 16 17  1  0  0  0  0
 16 39  1  0  0  0  0
 17 18  2  0  0  0  0
 18 19  1  0  0  0  0
 18 30  1  0  0  0  0
 19 20  2  0  0  0  0
 19 40  1  0  0  0  0
 20 21  1  0  0  0  0
 20 28  1  0  0  0  0
 21 22  1  0  0  0  0
 21 27  2  0  0  0  0
 22 23  2  0  0  0  0
 22 41  1  0  0  0  0
 23 24  1  0  0  0  0
 23 25  1  0  0  0  0
 25 26  2  0  0  0  0
 25 42  1  0  0  0  0
 26 27  1  0  0  0  0
 26 43  1  0  0  0  0
 28 29  2  0  0  0  0
 28 44  1  0  0  0  0
 29 30  1  0  0  0  0
 29 45  1  0  0  0  0
 31 46  1  0  0  0  0
M  END
$$$$
