CHEMBL3759232
 OpenBabel04072215373D

 47 49  0  0  0  0  0  0  0  0999 V2000
    3.5268    1.2368   -0.0910 C   0  0  0  0  0  0  0  0  0  0  0  0
    2.6145    0.1400   -0.1402 O   0  0  0  0  0  0  0  0  0  0  0  0
    3.1134   -1.0757    0.2459 C   0  0  0  0  0  0  0  0  0  0  0  0
    4.1603   -1.1772    1.1719 C   0  0  0  0  0  0  0  0  0  0  0  0
    4.7240   -2.3900    1.5233 C   0  0  0  0  0  0  0  0  0  0  0  0
    5.7707   -2.3742    2.3509 N   0  0  0  0  0  0  0  0  0  0  0  0
    6.3180   -3.5555    2.6413 C   0  0  0  0  0  0  0  0  0  0  0  0
    5.9103   -4.7378    2.1803 N   0  0  0  0  0  0  0  0  0  0  0  0
    4.8503   -4.7435    1.3487 C   0  0  0  0  0  0  0  0  0  0  0  0
    4.4203   -5.9855    0.8039 N   0  0  0  0  0  0  0  0  0  0  0  0
    4.8400   -7.2434    1.2880 C   0  0  0  0  0  0  0  0  0  0  0  0
    4.8292   -7.5179    2.6634 C   0  0  0  0  0  0  0  0  0  0  0  0
    5.3023   -8.7335    3.1572 C   0  0  0  0  0  0  0  0  0  0  0  0
    5.7770   -9.6932    2.2694 C   0  0  0  0  0  0  0  0  0  0  0  0
    6.4643  -11.3225    2.9362 Br  0  0  0  0  0  0  0  0  0  0  0  0
    5.7617   -9.4573    0.8964 C   0  0  0  0  0  0  0  0  0  0  0  0
    5.2842   -8.2380    0.4067 C   0  0  0  0  0  0  0  0  0  0  0  0
    4.1883   -3.5625    0.9795 C   0  0  0  0  0  0  0  0  0  0  0  0
    3.0596   -3.4844    0.1296 C   0  0  0  0  0  0  0  0  0  0  0  0
    2.5386   -2.2495   -0.2650 C   0  0  0  0  0  0  0  0  0  0  0  0
    1.4774   -2.3421   -1.1345 O   0  0  0  0  0  0  0  0  0  0  0  0
    1.4702   -1.3594   -2.1661 C   0  0  0  0  0  0  0  0  0  0  0  0
    0.5071   -1.7537   -3.2860 C   0  0  0  0  0  0  0  0  0  0  0  0
    0.5338   -0.6643   -4.3551 C   0  0  0  0  0  0  0  0  0  0  0  0
   -0.4233   -0.8903   -5.5011 C   0  0  0  0  0  0  0  0  0  0  0  0
   -1.1881   -1.8428   -5.5993 O   0  0  0  0  0  0  0  0  0  0  0  0
   -0.3519    0.1029   -6.4516 N   0  0  0  0  0  0  0  0  0  0  0  0
   -1.2769    0.0239   -7.5144 O   0  0  0  0  0  0  0  0  0  0  0  0
    3.2026    1.9777   -0.8277 H   0  0  0  0  0  0  0  0  0  0  0  0
    4.5506    0.9470   -0.3545 H   0  0  0  0  0  0  0  0  0  0  0  0
    3.4968    1.7017    0.8992 H   0  0  0  0  0  0  0  0  0  0  0  0
    4.5756   -0.2890    1.6413 H   0  0  0  0  0  0  0  0  0  0  0  0
    7.1767   -3.5542    3.3028 H   0  0  0  0  0  0  0  0  0  0  0  0
    4.4399   -5.9322   -0.2080 H   0  0  0  0  0  0  0  0  0  0  0  0
    4.4689   -6.7664    3.3609 H   0  0  0  0  0  0  0  0  0  0  0  0
    5.3017   -8.9085    4.2284 H   0  0  0  0  0  0  0  0  0  0  0  0
    6.1317  -10.2056    0.2000 H   0  0  0  0  0  0  0  0  0  0  0  0
    5.2948   -8.0616   -0.6639 H   0  0  0  0  0  0  0  0  0  0  0  0
    2.5917   -4.3908   -0.2493 H   0  0  0  0  0  0  0  0  0  0  0  0
    2.4785   -1.2496   -2.5859 H   0  0  0  0  0  0  0  0  0  0  0  0
    1.1188   -0.4072   -1.7637 H   0  0  0  0  0  0  0  0  0  0  0  0
   -0.5041   -1.8814   -2.8806 H   0  0  0  0  0  0  0  0  0  0  0  0
    0.7862   -2.7272   -3.7077 H   0  0  0  0  0  0  0  0  0  0  0  0
    1.5448   -0.5855   -4.7723 H   0  0  0  0  0  0  0  0  0  0  0  0
    0.2803    0.3007   -3.8991 H   0  0  0  0  0  0  0  0  0  0  0  0
    0.1092    0.9948   -6.3116 H   0  0  0  0  0  0  0  0  0  0  0  0
   -1.7675   -0.8019   -7.3074 H   0  0  0  0  0  0  0  0  0  0  0  0
  1  2  1  0  0  0  0
  1 29  1  0  0  0  0
  1 30  1  0  0  0  0
  1 31  1  0  0  0  0
  2  3  1  0  0  0  0
  3  4  1  0  0  0  0
  3 20  2  0  0  0  0
  4  5  2  0  0  0  0
  4 32  1  0  0  0  0
  5  6  1  0  0  0  0
  5 18  1  0  0  0  0
  6  7  2  0  0  0  0
  7  8  1  0  0  0  0
  7 33  1  0  0  0  0
  8  9  2  0  0  0  0
  9 10  1  0  0  0  0
  9 18  1  0  0  0  0
 10 11  1  0  0  0  0
 10 34  1  0  0  0  0
 11 12  1  0  0  0  0
 11 17  2  0  0  0  0
 12 13  2  0  0  0  0
 12 35  1  0  0  0  0
 13 14  1  0  0  0  0
 13 36  1  0  0  0  0
 14 15  1  0  0  0  0
 14 16  2  0  0  0  0
 16 17  1  0  0  0  0
 16 37  1  0  0  0  0
 17 38  1  0  0  0  0
 18 19  2  0  0  0  0
 19 20  1  0  0  0  0
 19 39  1  0  0  0  0
 20 21  1  0  0  0  0
 21 22  1  0  0  0  0
 22 23  1  0  0  0  0
 22 40  1  0  0  0  0
 22 41  1  0  0  0  0
 23 24  1  0  0  0  0
 23 42  1  0  0  0  0
 23 43  1  0  0  0  0
 24 25  1  0  0  0  0
 24 44  1  0  0  0  0
 24 45  1  0  0  0  0
 25 26  2  0  0  0  0
 25 27  1  0  0  0  0
 27 28  1  0  0  0  0
 27 46  1  0  0  0  0
 28 47  1  0  0  0  0
M  END
$$$$
