CHEMBL3895337
 OpenBabel04072215373D

 46 50  0  0  0  0  0  0  0  0999 V2000
    1.3134    1.0204   -3.2545 C   0  0  0  0  0  0  0  0  0  0  0  0
    2.6744    0.7714   -2.6696 C   0  0  0  0  0  0  0  0  0  0  0  0
    3.1598   -0.5339   -2.5358 C   0  0  0  0  0  0  0  0  0  0  0  0
    4.4411   -0.7817   -2.0275 C   0  0  0  0  0  0  0  0  0  0  0  0
    5.2598    0.3036   -1.6695 C   0  0  0  0  0  0  0  0  0  0  0  0
    6.5957    0.4192   -1.1975 C   0  0  0  0  0  0  0  0  0  0  0  0
    6.9049    1.7649   -1.0958 C   0  0  0  0  0  0  0  0  0  0  0  0
    8.1281    2.4563   -0.7463 C   0  0  0  0  0  0  0  0  0  0  0  0
    8.1057    3.5695   -0.2222 O   0  0  0  0  0  0  0  0  0  0  0  0
    9.3825    1.8105   -1.1143 C   0  0  0  0  0  0  0  0  0  0  0  0
    9.6772    0.9170   -2.1678 C   0  0  0  0  0  0  0  0  0  0  0  0
   10.9786    0.6450   -2.2857 N   0  0  0  0  0  0  0  0  0  0  0  0
   11.5490    1.2703   -1.2206 N   0  0  0  0  0  0  0  0  0  0  0  0
   12.9366    1.1117   -0.9432 C   0  0  0  0  0  0  0  0  0  0  0  0
   13.3963    1.2050    0.3807 C   0  0  0  0  0  0  0  0  0  0  0  0
   14.7623    1.1254    0.6766 C   0  0  0  0  0  0  0  0  0  0  0  0
   15.6698    0.9711   -0.3780 C   0  0  0  0  0  0  0  0  0  0  0  0
   17.0391    0.9212   -0.3440 N   0  0  0  0  0  0  0  0  0  0  0  0
   17.4200    0.7922   -1.5967 C   0  0  0  0  0  0  0  0  0  0  0  0
   18.8165    0.7252   -2.0845 C   0  0  0  0  0  0  0  0  0  0  0  0
   16.3334    0.7350   -2.4371 N   0  0  0  0  0  0  0  0  0  0  0  0
   15.1943    0.8502   -1.6781 C   0  0  0  0  0  0  0  0  0  0  0  0
   13.8308    0.8774   -2.0055 C   0  0  0  0  0  0  0  0  0  0  0  0
   10.6165    2.0672   -0.5438 C   0  0  0  0  0  0  0  0  0  0  0  0
   10.9327    2.9673    0.4305 N   0  0  0  0  0  0  0  0  0  0  0  0
    5.7349    2.4504   -1.3505 N   0  0  0  0  0  0  0  0  0  0  0  0
    4.7509    1.5941   -1.7833 C   0  0  0  0  0  0  0  0  0  0  0  0
    3.4626    1.8609   -2.2640 C   0  0  0  0  0  0  0  0  0  0  0  0
    0.8444    0.0892   -3.5897 H   0  0  0  0  0  0  0  0  0  0  0  0
    1.3948    1.6803   -4.1248 H   0  0  0  0  0  0  0  0  0  0  0  0
    0.6580    1.4825   -2.5102 H   0  0  0  0  0  0  0  0  0  0  0  0
    2.5474   -1.3801   -2.8401 H   0  0  0  0  0  0  0  0  0  0  0  0
    4.8056   -1.8008   -1.9406 H   0  0  0  0  0  0  0  0  0  0  0  0
    7.2659   -0.4062   -0.9916 H   0  0  0  0  0  0  0  0  0  0  0  0
    8.9991    0.4892   -2.8964 H   0  0  0  0  0  0  0  0  0  0  0  0
   12.7010    1.3031    1.2116 H   0  0  0  0  0  0  0  0  0  0  0  0
   15.1221    1.1967    1.6968 H   0  0  0  0  0  0  0  0  0  0  0  0
   19.5159    0.7263   -1.2432 H   0  0  0  0  0  0  0  0  0  0  0  0
   19.0455    1.5900   -2.7160 H   0  0  0  0  0  0  0  0  0  0  0  0
   18.9827   -0.1875   -2.6642 H   0  0  0  0  0  0  0  0  0  0  0  0
   16.3689    0.6494   -3.4423 H   0  0  0  0  0  0  0  0  0  0  0  0
   13.4931    0.7941   -3.0344 H   0  0  0  0  0  0  0  0  0  0  0  0
   11.8747    3.3584    0.4670 H   0  0  0  0  0  0  0  0  0  0  0  0
   10.2314    3.6786    0.6541 H   0  0  0  0  0  0  0  0  0  0  0  0
    5.6465    3.4571   -1.2961 H   0  0  0  0  0  0  0  0  0  0  0  0
    3.0938    2.8791   -2.3462 H   0  0  0  0  0  0  0  0  0  0  0  0
  1  2  1  0  0  0  0
  1 29  1  0  0  0  0
  1 30  1  0  0  0  0
  1 31  1  0  0  0  0
  2  3  1  0  0  0  0
  2 28  2  0  0  0  0
  3  4  2  0  0  0  0
  3 32  1  0  0  0  0
  4  5  1  0  0  0  0
  4 33  1  0  0  0  0
  5  6  1  0  0  0  0
  5 27  2  0  0  0  0
  6  7  2  0  0  0  0
  6 34  1  0  0  0  0
  7  8  1  0  0  0  0
  7 26  1  0  0  0  0
  8  9  2  0  0  0  0
  8 10  1  0  0  0  0
 10 11  1  0  0  0  0
 10 24  2  0  0  0  0
 11 12  2  0  0  0  0
 11 35  1  0  0  0  0
 12 13  1  0  0  0  0
 13 14  1  0  0  0  0
 13 24  1  0  0  0  0
 14 15  1  0  0  0  0
 14 23  2  0  0  0  0
 15 16  2  0  0  0  0
 15 36  1  0  0  0  0
 16 17  1  0  0  0  0
 16 37  1  0  0  0  0
 17 18  1  0  0  0  0
 17 22  2  0  0  0  0
 18 19  2  0  0  0  0
 19 20  1  0  0  0  0
 19 21  1  0  0  0  0
 20 38  1  0  0  0  0
 20 39  1  0  0  0  0
 20 40  1  0  0  0  0
 21 22  1  0  0  0  0
 21 41  1  0  0  0  0
 22 23  1  0  0  0  0
 23 42  1  0  0  0  0
 24 25  1  0  0  0  0
 25 43  1  0  0  0  0
 25 44  1  0  0  0  0
 26 27  1  0  0  0  0
 26 45  1  0  0  0  0
 27 28  1  0  0  0  0
 28 46  1  0  0  0  0
M  END
$$$$
