CHEMBL469261
 OpenBabel04072215383D

 48 52  0  0  0  0  0  0  0  0999 V2000
    3.2209    0.3529    0.9874 O   0  0  0  0  0  0  0  0  0  0  0  0
    2.6224    0.1682   -0.0836 C   0  0  0  0  0  0  0  0  0  0  0  0
    3.1225   -0.7984   -1.0972 C   0  0  0  0  0  0  0  0  0  0  0  0
    2.7720   -0.6025   -2.4485 C   0  0  0  0  0  0  0  0  0  0  0  0
    3.4465   -1.2931   -3.4558 C   0  0  0  0  0  0  0  0  0  0  0  0
    4.4764   -2.1568   -3.1164 C   0  0  0  0  0  0  0  0  0  0  0  0
    4.7739   -2.4057   -1.7716 C   0  0  0  0  0  0  0  0  0  0  0  0
    4.0809   -1.7699   -0.7267 C   0  0  0  0  0  0  0  0  0  0  0  0
    4.3632   -2.0589    0.6197 N   0  0  0  0  0  0  0  0  0  0  0  0
    5.5388   -2.8099    0.9956 C   0  0  0  0  0  0  0  0  0  0  0  0
    5.8069   -2.8650    2.4874 C   0  0  0  0  0  0  0  0  0  0  0  0
    6.4810   -3.9878    2.9779 C   0  0  0  0  0  0  0  0  0  0  0  0
    6.8707   -4.0717    4.3185 C   0  0  0  0  0  0  0  0  0  0  0  0
    6.6575   -3.0377    5.1986 C   0  0  0  0  0  0  0  0  0  0  0  0
    7.1035   -3.1760    6.4616 N   0  0  0  0  0  0  0  0  0  0  0  0
    6.9630   -2.1324    7.3018 C   0  0  0  0  0  0  0  0  0  0  0  0
    6.3829   -0.9353    6.9411 C   0  0  0  0  0  0  0  0  0  0  0  0
    5.8917   -0.8045    5.6397 C   0  0  0  0  0  0  0  0  0  0  0  0
    6.0127   -1.8707    4.7286 C   0  0  0  0  0  0  0  0  0  0  0  0
    5.5745   -1.7981    3.3791 C   0  0  0  0  0  0  0  0  0  0  0  0
    1.4672    0.9755   -0.3871 C   0  0  0  0  0  0  0  0  0  0  0  0
    1.4716    2.3730   -0.4328 C   0  0  0  0  0  0  0  0  0  0  0  0
    0.1911    2.7692   -0.6818 N   0  0  0  0  0  0  0  0  0  0  0  0
   -0.6415    1.7642   -0.2682 C   0  0  0  0  0  0  0  0  0  0  0  0
   -1.9372    1.7745    0.2538 C   0  0  0  0  0  0  0  0  0  0  0  0
   -2.5250    0.5253    0.4864 C   0  0  0  0  0  0  0  0  0  0  0  0
   -1.8890   -0.6382    0.0775 C   0  0  0  0  0  0  0  0  0  0  0  0
   -2.5264   -1.8193    0.2262 F   0  0  0  0  0  0  0  0  0  0  0  0
   -0.5815   -0.6450   -0.4116 C   0  0  0  0  0  0  0  0  0  0  0  0
    0.0914    0.5880   -0.4372 C   0  0  0  0  0  0  0  0  0  0  0  0
    2.0146    0.1140   -2.7484 H   0  0  0  0  0  0  0  0  0  0  0  0
    3.2033   -1.1148   -4.5015 H   0  0  0  0  0  0  0  0  0  0  0  0
    5.0546   -2.6474   -3.8928 H   0  0  0  0  0  0  0  0  0  0  0  0
    5.5680   -3.1147   -1.5654 H   0  0  0  0  0  0  0  0  0  0  0  0
    3.5277   -2.2521    1.1722 H   0  0  0  0  0  0  0  0  0  0  0  0
    6.4252   -2.3633    0.5346 H   0  0  0  0  0  0  0  0  0  0  0  0
    5.4268   -3.8368    0.6292 H   0  0  0  0  0  0  0  0  0  0  0  0
    6.7356   -4.8121    2.3127 H   0  0  0  0  0  0  0  0  0  0  0  0
    7.3997   -4.9549    4.6638 H   0  0  0  0  0  0  0  0  0  0  0  0
    7.3511   -2.2952    8.3032 H   0  0  0  0  0  0  0  0  0  0  0  0
    6.3207   -0.1180    7.6523 H   0  0  0  0  0  0  0  0  0  0  0  0
    5.4384    0.1339    5.3365 H   0  0  0  0  0  0  0  0  0  0  0  0
    5.0826   -0.8967    3.0147 H   0  0  0  0  0  0  0  0  0  0  0  0
    2.2861    3.0826   -0.3187 H   0  0  0  0  0  0  0  0  0  0  0  0
   -0.0930    3.6857   -1.0042 H   0  0  0  0  0  0  0  0  0  0  0  0
   -2.4233    2.6962    0.5524 H   0  0  0  0  0  0  0  0  0  0  0  0
   -3.4814    0.4601    0.9887 H   0  0  0  0  0  0  0  0  0  0  0  0
   -0.0969   -1.5689   -0.6566 H   0  0  0  0  0  0  0  0  0  0  0  0
  1  2  2  0  0  0  0
  2  3  1  0  0  0  0
  2 21  1  0  0  0  0
  3  4  1  0  0  0  0
  3  8  2  0  0  0  0
  4  5  2  0  0  0  0
  4 31  1  0  0  0  0
  5  6  1  0  0  0  0
  5 32  1  0  0  0  0
  6  7  2  0  0  0  0
  6 33  1  0  0  0  0
  7  8  1  0  0  0  0
  7 34  1  0  0  0  0
  8  9  1  0  0  0  0
  9 10  1  0  0  0  0
  9 35  1  0  0  0  0
 10 11  1  0  0  0  0
 10 36  1  0  0  0  0
 10 37  1  0  0  0  0
 11 12  1  0  0  0  0
 11 20  2  0  0  0  0
 12 13  2  0  0  0  0
 12 38  1  0  0  0  0
 13 14  1  0  0  0  0
 13 39  1  0  0  0  0
 14 15  1  0  0  0  0
 14 19  2  0  0  0  0
 15 16  2  0  0  0  0
 16 17  1  0  0  0  0
 16 40  1  0  0  0  0
 17 18  2  0  0  0  0
 17 41  1  0  0  0  0
 18 19  1  0  0  0  0
 18 42  1  0  0  0  0
 19 20  1  0  0  0  0
 20 43  1  0  0  0  0
 21 22  2  0  0  0  0
 21 30  1  0  0  0  0
 22 23  1  0  0  0  0
 22 44  1  0  0  0  0
 23 24  1  0  0  0  0
 23 45  1  0  0  0  0
 24 25  1  0  0  0  0
 24 30  2  0  0  0  0
 25 26  2  0  0  0  0
 25 46  1  0  0  0  0
 26 27  1  0  0  0  0
 26 47  1  0  0  0  0
 27 28  1  0  0  0  0
 27 29  2  0  0  0  0
 29 30  1  0  0  0  0
 29 48  1  0  0  0  0
M  END
$$$$
