CHEMBL25579
 OpenBabel04072215363D

 53 56  0  0  0  0  0  0  0  0999 V2000
    2.4458   -0.3817   -1.2045 C   0  0  0  0  0  0  0  0  0  0  0  0
    2.3458   -0.1688    0.2041 O   0  0  0  0  0  0  0  0  0  0  0  0
    3.0470    0.8513    0.7805 C   0  0  0  0  0  0  0  0  0  0  0  0
    4.2247    1.3394    0.2235 C   0  0  0  0  0  0  0  0  0  0  0  0
    4.8899    2.4544    0.7638 C   0  0  0  0  0  0  0  0  0  0  0  0
    5.9964    3.0654    0.1551 C   0  0  0  0  0  0  0  0  0  0  0  0
    6.4274    2.6327   -1.1280 N   0  0  0  0  0  0  0  0  0  0  0  0
    7.2529    3.4015   -1.9756 C   0  0  0  0  0  0  0  0  0  0  0  0
    7.0063    4.7633   -2.1633 C   0  0  0  0  0  0  0  0  0  0  0  0
    7.9083    5.5629   -2.8633 C   0  0  0  0  0  0  0  0  0  0  0  0
    9.0521    4.9897   -3.4028 C   0  0  0  0  0  0  0  0  0  0  0  0
   10.2198    5.9981   -4.1721 Cl  0  0  0  0  0  0  0  0  0  0  0  0
    9.2767    3.6228   -3.3102 C   0  0  0  0  0  0  0  0  0  0  0  0
    8.3671    2.8347   -2.6051 C   0  0  0  0  0  0  0  0  0  0  0  0
    8.5933    1.5201   -2.4902 F   0  0  0  0  0  0  0  0  0  0  0  0
    6.6148    4.1183    0.7226 N   0  0  0  0  0  0  0  0  0  0  0  0
    6.1139    4.5698    1.8716 C   0  0  0  0  0  0  0  0  0  0  0  0
    5.0365    4.0961    2.5029 N   0  0  0  0  0  0  0  0  0  0  0  0
    4.4216    3.0484    1.9380 C   0  0  0  0  0  0  0  0  0  0  0  0
    3.2842    2.5171    2.5331 C   0  0  0  0  0  0  0  0  0  0  0  0
    2.6075    1.4093    1.9935 C   0  0  0  0  0  0  0  0  0  0  0  0
    1.5491    0.9934    2.7705 O   0  0  0  0  0  0  0  0  0  0  0  0
    1.1945   -0.3900    2.6502 C   0  0  0  0  0  0  0  0  0  0  0  0
    0.6089   -0.9431    3.9589 C   0  0  0  0  0  0  0  0  0  0  0  0
   -0.7603   -0.4782    4.2341 N   0  0  0  0  0  0  0  0  0  0  0  0
   -0.9022    0.5698    5.2410 C   0  0  0  0  0  0  0  0  0  0  0  0
   -1.8759   -1.0273    3.6110 C   0  0  0  0  0  0  0  0  0  0  0  0
   -1.7765   -2.0022    2.6093 C   0  0  0  0  0  0  0  0  0  0  0  0
   -2.9175   -2.4860    1.9798 C   0  0  0  0  0  0  0  0  0  0  0  0
   -4.1673   -2.0902    2.2785 N   0  0  0  0  0  0  0  0  0  0  0  0
   -4.2686   -1.1709    3.2551 C   0  0  0  0  0  0  0  0  0  0  0  0
   -3.1806   -0.6306    3.9330 C   0  0  0  0  0  0  0  0  0  0  0  0
    2.6052   -1.4509   -1.3710 H   0  0  0  0  0  0  0  0  0  0  0  0
    3.2395    0.1551   -1.7268 H   0  0  0  0  0  0  0  0  0  0  0  0
    1.5006   -0.0940   -1.6731 H   0  0  0  0  0  0  0  0  0  0  0  0
    4.6650    0.8588   -0.6409 H   0  0  0  0  0  0  0  0  0  0  0  0
    6.7093    1.6531   -1.1076 H   0  0  0  0  0  0  0  0  0  0  0  0
    6.1168    5.2226   -1.7245 H   0  0  0  0  0  0  0  0  0  0  0  0
    7.7220    6.6313   -2.9426 H   0  0  0  0  0  0  0  0  0  0  0  0
   10.1598    3.1626   -3.7418 H   0  0  0  0  0  0  0  0  0  0  0  0
    6.6287    5.4052    2.3307 H   0  0  0  0  0  0  0  0  0  0  0  0
    2.9117    2.9737    3.4463 H   0  0  0  0  0  0  0  0  0  0  0  0
    2.0884   -0.9926    2.4526 H   0  0  0  0  0  0  0  0  0  0  0  0
    0.4829   -0.4911    1.8259 H   0  0  0  0  0  0  0  0  0  0  0  0
    1.2707   -0.6662    4.7894 H   0  0  0  0  0  0  0  0  0  0  0  0
    0.6259   -2.0392    3.9298 H   0  0  0  0  0  0  0  0  0  0  0  0
    0.0663    0.9982    5.5220 H   0  0  0  0  0  0  0  0  0  0  0  0
   -1.3545    0.1636    6.1542 H   0  0  0  0  0  0  0  0  0  0  0  0
   -1.5123    1.4000    4.8718 H   0  0  0  0  0  0  0  0  0  0  0  0
   -0.8242   -2.3982    2.2815 H   0  0  0  0  0  0  0  0  0  0  0  0
   -2.8422   -3.2273    1.1892 H   0  0  0  0  0  0  0  0  0  0  0  0
   -5.2809   -0.8582    3.4932 H   0  0  0  0  0  0  0  0  0  0  0  0
   -3.3830    0.1006    4.7060 H   0  0  0  0  0  0  0  0  0  0  0  0
  1  2  1  0  0  0  0
  1 33  1  0  0  0  0
  1 34  1  0  0  0  0
  1 35  1  0  0  0  0
  2  3  1  0  0  0  0
  3  4  1  0  0  0  0
  3 21  2  0  0  0  0
  4  5  2  0  0  0  0
  4 36  1  0  0  0  0
  5  6  1  0  0  0  0
  5 19  1  0  0  0  0
  6  7  1  0  0  0  0
  6 16  2  0  0  0  0
  7  8  1  0  0  0  0
  7 37  1  0  0  0  0
  8  9  1  0  0  0  0
  8 14  2  0  0  0  0
  9 10  2  0  0  0  0
  9 38  1  0  0  0  0
 10 11  1  0  0  0  0
 10 39  1  0  0  0  0
 11 12  1  0  0  0  0
 11 13  2  0  0  0  0
 13 14  1  0  0  0  0
 13 40  1  0  0  0  0
 14 15  1  0  0  0  0
 16 17  1  0  0  0  0
 17 18  2  0  0  0  0
 17 41  1  0  0  0  0
 18 19  1  0  0  0  0
 19 20  2  0  0  0  0
 20 21  1  0  0  0  0
 20 42  1  0  0  0  0
 21 22  1  0  0  0  0
 22 23  1  0  0  0  0
 23 24  1  0  0  0  0
 23 43  1  0  0  0  0
 23 44  1  0  0  0  0
 24 25  1  0  0  0  0
 24 45  1  0  0  0  0
 24 46  1  0  0  0  0
 25 26  1  0  0  0  0
 25 27  1  0  0  0  0
 26 47  1  0  0  0  0
 26 48  1  0  0  0  0
 26 49  1  0  0  0  0
 27 28  1  0  0  0  0
 27 32  2  0  0  0  0
 28 29  2  0  0  0  0
 28 50  1  0  0  0  0
 29 30  1  0  0  0  0
 29 51  1  0  0  0  0
 30 31  2  0  0  0  0
 31 32  1  0  0  0  0
 31 52  1  0  0  0  0
 32 53  1  0  0  0  0
M  END
$$$$
