CHEMBL3909529
 OpenBabel04072215373D

 66 69  0  0  0  0  0  0  0  0999 V2000
    0.6087   -3.3082   -2.3465 C   0  0  0  0  0  0  0  0  0  0  0  0
    1.9119   -3.8132   -2.0462 O   0  0  0  0  0  0  0  0  0  0  0  0
    2.8716   -2.8947   -1.6978 C   0  0  0  0  0  0  0  0  0  0  0  0
    2.6828   -1.5122   -1.7298 C   0  0  0  0  0  0  0  0  0  0  0  0
    3.7004   -0.6633   -1.3041 C   0  0  0  0  0  0  0  0  0  0  0  0
    3.6245    0.7041   -1.2547 O   0  0  0  0  0  0  0  0  0  0  0  0
    2.4408    1.3061   -1.7665 C   0  0  0  0  0  0  0  0  0  0  0  0
    4.9070   -1.2042   -0.8403 C   0  0  0  0  0  0  0  0  0  0  0  0
    5.1393   -2.5832   -0.7789 C   0  0  0  0  0  0  0  0  0  0  0  0
    6.2612   -3.1518   -0.1178 N   0  0  0  0  0  0  0  0  0  0  0  0
    6.7848   -2.3882    1.0897 C   0  0  0  0  0  0  0  0  0  0  0  0
    5.8077   -2.0177    2.2256 C   0  0  0  0  0  0  0  0  0  0  0  0
    5.3283   -3.1409    3.1467 C   0  0  0  0  0  0  0  0  0  0  0  0
    4.6126   -2.5312    4.3000 N   0  0  0  0  0  0  0  0  0  0  0  0
    3.9796   -3.4702    5.2393 C   0  0  0  0  0  0  0  0  0  0  0  0
    4.9917   -4.3254    6.0043 C   0  0  0  0  0  0  0  0  0  0  0  0
    3.1498   -2.6719    6.2602 C   0  0  0  0  0  0  0  0  0  0  0  0
    7.4015   -3.8380   -0.7057 C   0  0  0  0  0  0  0  0  0  0  0  0
    7.9884   -4.7874    0.1294 C   0  0  0  0  0  0  0  0  0  0  0  0
    9.3295   -5.1001    0.0018 C   0  0  0  0  0  0  0  0  0  0  0  0
   10.0780   -4.6329   -1.0476 C   0  0  0  0  0  0  0  0  0  0  0  0
   11.3886   -4.8816   -0.9249 N   0  0  0  0  0  0  0  0  0  0  0  0
   12.1489   -4.6201   -1.9942 C   0  0  0  0  0  0  0  0  0  0  0  0
   11.6112   -4.2036   -3.1932 C   0  0  0  0  0  0  0  0  0  0  0  0
   12.4867   -4.3422   -4.3563 C   0  0  0  0  0  0  0  0  0  0  0  0
   12.5711   -5.4043   -5.2979 C   0  0  0  0  0  0  0  0  0  0  0  0
   13.6597   -5.3331   -6.0764 N   0  0  0  0  0  0  0  0  0  0  0  0
   14.2875   -4.2316   -5.6335 N   0  0  0  0  0  0  0  0  0  0  0  0
   15.3768   -3.6562   -6.3891 C   0  0  0  0  0  0  0  0  0  0  0  0
   13.7133   -3.7097   -4.5042 C   0  0  0  0  0  0  0  0  0  0  0  0
   10.2826   -3.8312   -3.2839 N   0  0  0  0  0  0  0  0  0  0  0  0
    9.4763   -3.9813   -2.1468 C   0  0  0  0  0  0  0  0  0  0  0  0
    8.1086   -3.5270   -1.9046 C   0  0  0  0  0  0  0  0  0  0  0  0
    4.1039   -3.4225   -1.2461 C   0  0  0  0  0  0  0  0  0  0  0  0
   -0.0518   -4.1578   -2.5545 H   0  0  0  0  0  0  0  0  0  0  0  0
    0.6295   -2.6846   -3.2456 H   0  0  0  0  0  0  0  0  0  0  0  0
    0.1815   -2.7583   -1.4988 H   0  0  0  0  0  0  0  0  0  0  0  0
    1.7428   -1.0992   -2.0687 H   0  0  0  0  0  0  0  0  0  0  0  0
    2.5650    2.3915   -1.7105 H   0  0  0  0  0  0  0  0  0  0  0  0
    1.5674    1.0398   -1.1609 H   0  0  0  0  0  0  0  0  0  0  0  0
    2.2864    1.0432   -2.8184 H   0  0  0  0  0  0  0  0  0  0  0  0
    5.6607   -0.5076   -0.4826 H   0  0  0  0  0  0  0  0  0  0  0  0
    7.2640   -1.4751    0.7262 H   0  0  0  0  0  0  0  0  0  0  0  0
    7.5879   -2.9420    1.5912 H   0  0  0  0  0  0  0  0  0  0  0  0
    4.9541   -1.4576    1.8494 H   0  0  0  0  0  0  0  0  0  0  0  0
    6.3771   -1.3159    2.8659 H   0  0  0  0  0  0  0  0  0  0  0  0
    6.1807   -3.7193    3.5201 H   0  0  0  0  0  0  0  0  0  0  0  0
    4.6541   -3.8251    2.6098 H   0  0  0  0  0  0  0  0  0  0  0  0
    3.8946   -1.9027    3.9361 H   0  0  0  0  0  0  0  0  0  0  0  0
    3.2911   -4.1253    4.6936 H   0  0  0  0  0  0  0  0  0  0  0  0
    5.7036   -3.7032    6.5599 H   0  0  0  0  0  0  0  0  0  0  0  0
    5.5527   -4.9790    5.3362 H   0  0  0  0  0  0  0  0  0  0  0  0
    4.4776   -4.9674    6.7342 H   0  0  0  0  0  0  0  0  0  0  0  0
    3.7800   -2.0099    6.8665 H   0  0  0  0  0  0  0  0  0  0  0  0
    2.6279   -3.3482    6.9486 H   0  0  0  0  0  0  0  0  0  0  0  0
    2.3880   -2.0575    5.7687 H   0  0  0  0  0  0  0  0  0  0  0  0
    7.4479   -5.1569    0.9995 H   0  0  0  0  0  0  0  0  0  0  0  0
    9.8126   -5.6891    0.7747 H   0  0  0  0  0  0  0  0  0  0  0  0
   13.2065   -4.8291   -1.8717 H   0  0  0  0  0  0  0  0  0  0  0  0
   11.9099   -6.2526   -5.4240 H   0  0  0  0  0  0  0  0  0  0  0  0
   15.5466   -4.2360   -7.3010 H   0  0  0  0  0  0  0  0  0  0  0  0
   16.2816   -3.6413   -5.7770 H   0  0  0  0  0  0  0  0  0  0  0  0
   15.0821   -2.6379   -6.6580 H   0  0  0  0  0  0  0  0  0  0  0  0
   14.2109   -2.9360   -3.9365 H   0  0  0  0  0  0  0  0  0  0  0  0
    7.6519   -2.8785   -2.6476 H   0  0  0  0  0  0  0  0  0  0  0  0
    4.2143   -4.5005   -1.1833 H   0  0  0  0  0  0  0  0  0  0  0  0
  1  2  1  0  0  0  0
  1 35  1  0  0  0  0
  1 36  1  0  0  0  0
  1 37  1  0  0  0  0
  2  3  1  0  0  0  0
  3  4  1  0  0  0  0
  3 34  2  0  0  0  0
  4  5  2  0  0  0  0
  4 38  1  0  0  0  0
  5  6  1  0  0  0  0
  5  8  1  0  0  0  0
  6  7  1  0  0  0  0
  7 39  1  0  0  0  0
  7 40  1  0  0  0  0
  7 41  1  0  0  0  0
  8  9  2  0  0  0  0
  8 42  1  0  0  0  0
  9 10  1  0  0  0  0
  9 34  1  0  0  0  0
 10 11  1  0  0  0  0
 10 18  1  0  0  0  0
 11 12  1  0  0  0  0
 11 43  1  0  0  0  0
 11 44  1  0  0  0  0
 12 13  1  0  0  0  0
 12 45  1  0  0  0  0
 12 46  1  0  0  0  0
 13 14  1  0  0  0  0
 13 47  1  0  0  0  0
 13 48  1  0  0  0  0
 14 15  1  0  0  0  0
 14 49  1  0  0  0  0
 15 16  1  0  0  0  0
 15 17  1  0  0  0  0
 15 50  1  0  0  0  0
 16 51  1  0  0  0  0
 16 52  1  0  0  0  0
 16 53  1  0  0  0  0
 17 54  1  0  0  0  0
 17 55  1  0  0  0  0
 17 56  1  0  0  0  0
 18 19  1  0  0  0  0
 18 33  2  0  0  0  0
 19 20  2  0  0  0  0
 19 57  1  0  0  0  0
 20 21  1  0  0  0  0
 20 58  1  0  0  0  0
 21 22  1  0  0  0  0
 21 32  2  0  0  0  0
 22 23  2  0  0  0  0
 23 24  1  0  0  0  0
 23 59  1  0  0  0  0
 24 25  1  0  0  0  0
 24 31  2  0  0  0  0
 25 26  1  0  0  0  0
 25 30  2  0  0  0  0
 26 27  2  0  0  0  0
 26 60  1  0  0  0  0
 27 28  1  0  0  0  0
 28 29  1  0  0  0  0
 28 30  1  0  0  0  0
 29 61  1  0  0  0  0
 29 62  1  0  0  0  0
 29 63  1  0  0  0  0
 30 64  1  0  0  0  0
 31 32  1  0  0  0  0
 32 33  1  0  0  0  0
 33 65  1  0  0  0  0
 34 66  1  0  0  0  0
M  END
$$$$
