CHEMBL75232
 OpenBabel04072215383D

 54 56  0  0  0  0  0  0  0  0999 V2000
   -1.5840   -0.7471    1.4649 Cl  0  0  0  0  0  0  0  0  0  0  0  0
    0.0287   -0.4870    0.9277 C   0  0  0  0  0  0  0  0  0  0  0  0
    0.5370    1.1966    0.5853 C   0  0  0  0  0  0  0  0  0  0  0  0
    2.1559    1.5035   -0.1013 C   0  0  0  0  0  0  0  0  0  0  0  0
    3.3430    0.1569   -0.3997 C   0  0  0  0  0  0  0  0  0  0  0  0
    4.6892    0.4244   -0.9056 N   0  0  0  0  0  0  0  0  0  0  0  0
    5.2578    1.7058   -0.6383 C   0  0  0  0  0  0  0  0  0  0  0  0
    4.3640    2.6923   -0.6220 N   0  0  0  0  0  0  0  0  0  0  0  0
    4.4923    3.7928    0.1119 N   0  0  0  0  0  0  0  0  0  0  0  0
    5.6899    4.1045    0.6013 C   0  0  0  0  0  0  0  0  0  0  0  0
    5.7600    5.5741    0.9200 C   0  0  0  0  0  0  0  0  0  0  0  0
    6.1054    6.3145   -0.3567 C   0  0  0  0  0  0  0  0  0  0  0  0
    5.2313    6.2937   -1.4592 C   0  0  0  0  0  0  0  0  0  0  0  0
    5.6926    6.7413   -2.6836 C   0  0  0  0  0  0  0  0  0  0  0  0
    6.9322    7.2365   -2.8730 N   0  0  0  0  0  0  0  0  0  0  0  0
    7.7408    7.2802   -1.7919 C   0  0  0  0  0  0  0  0  0  0  0  0
    7.3789    6.8480   -0.5284 C   0  0  0  0  0  0  0  0  0  0  0  0
    6.7778    3.2334    0.4614 C   0  0  0  0  0  0  0  0  0  0  0  0
    8.0507    3.5649    0.9674 C   0  0  0  0  0  0  0  0  0  0  0  0
    9.1474    2.7405    0.7530 C   0  0  0  0  0  0  0  0  0  0  0  0
    8.9833    1.5516    0.0531 C   0  0  0  0  0  0  0  0  0  0  0  0
    7.7122    1.1583   -0.3965 C   0  0  0  0  0  0  0  0  0  0  0  0
    6.5756    1.9883   -0.2125 C   0  0  0  0  0  0  0  0  0  0  0  0
    2.7768   -1.5611   -0.1375 C   0  0  0  0  0  0  0  0  0  0  0  0
    1.0997   -1.8627    0.4952 C   0  0  0  0  0  0  0  0  0  0  0  0
    0.1178   -0.2048   -1.2072 O   0  0  0  0  0  0  0  0  0  0  0  0
    1.3085   -0.2344   -0.7920 C   0  0  0  0  0  0  0  0  0  0  0  0
    1.9846   -0.4013   -2.0392 O   0  0  0  0  0  0  0  0  0  0  0  0
    2.1378   -0.1355    1.2201 C   0  0  0  0  0  0  0  0  0  0  0  0
    3.5180    0.5411    2.0362 C   0  0  0  0  0  0  0  0  0  0  0  0
    4.9289   -0.0613    1.9443 C   0  0  0  0  0  0  0  0  0  0  0  0
    5.2696   -1.0642    1.3347 O   0  0  0  0  0  0  0  0  0  0  0  0
    5.8514    0.6928    2.5967 O   0  0  0  0  0  0  0  0  0  0  0  0
   -0.1704    2.0196    0.6660 H   0  0  0  0  0  0  0  0  0  0  0  0
    2.2983    2.5160   -0.4676 H   0  0  0  0  0  0  0  0  0  0  0  0
    5.3089   -0.3219   -0.5670 H   0  0  0  0  0  0  0  0  0  0  0  0
    6.4535    5.7901    1.7368 H   0  0  0  0  0  0  0  0  0  0  0  0
    4.7759    5.9180    1.2729 H   0  0  0  0  0  0  0  0  0  0  0  0
    4.2369    5.8529   -1.3989 H   0  0  0  0  0  0  0  0  0  0  0  0
    5.0723    6.6785   -3.5737 H   0  0  0  0  0  0  0  0  0  0  0  0
    8.7404    7.6567   -1.9783 H   0  0  0  0  0  0  0  0  0  0  0  0
    8.0977    6.8573    0.2804 H   0  0  0  0  0  0  0  0  0  0  0  0
    8.2076    4.4747    1.5417 H   0  0  0  0  0  0  0  0  0  0  0  0
   10.1257    3.0355    1.1267 H   0  0  0  0  0  0  0  0  0  0  0  0
    9.8545    0.9299   -0.1436 H   0  0  0  0  0  0  0  0  0  0  0  0
    7.6317    0.2192   -0.9393 H   0  0  0  0  0  0  0  0  0  0  0  0
    3.4143   -2.4104   -0.3711 H   0  0  0  0  0  0  0  0  0  0  0  0
    0.7134   -2.8714    0.6156 H   0  0  0  0  0  0  0  0  0  0  0  0
    2.9416   -0.4304   -2.2216 H   0  0  0  0  0  0  0  0  0  0  0  0
    2.2696   -1.0902    1.8039 H   0  0  0  0  0  0  0  0  0  0  0  0
    1.5039    0.3434    2.0204 H   0  0  0  0  0  0  0  0  0  0  0  0
    3.2907    0.3712    3.1023 H   0  0  0  0  0  0  0  0  0  0  0  0
    3.5600    1.6281    1.9146 H   0  0  0  0  0  0  0  0  0  0  0  0
    5.5062    1.5227    2.9773 H   0  0  0  0  0  0  0  0  0  0  0  0
  1  2  1  0  0  0  0
  2  3  1  0  0  0  0
  2 25  2  0  0  0  0
  3  4  2  0  0  0  0
  3 34  1  0  0  0  0
  4  5  1  0  0  0  0
  4 35  1  0  0  0  0
  5  6  1  0  0  0  0
  5 24  2  0  0  0  0
  6  7  1  0  0  0  0
  6 36  1  0  0  0  0
  7  8  1  0  0  0  0
  7 23  2  0  0  0  0
  8  9  2  0  0  0  0
  9 10  1  0  0  0  0
 10 11  1  0  0  0  0
 10 18  2  0  0  0  0
 11 12  1  0  0  0  0
 11 37  1  0  0  0  0
 11 38  1  0  0  0  0
 12 13  1  0  0  0  0
 12 17  2  0  0  0  0
 13 14  2  0  0  0  0
 13 39  1  0  0  0  0
 14 15  1  0  0  0  0
 14 40  1  0  0  0  0
 15 16  2  0  0  0  0
 16 17  1  0  0  0  0
 16 41  1  0  0  0  0
 17 42  1  0  0  0  0
 18 19  1  0  0  0  0
 18 23  1  0  0  0  0
 19 20  2  0  0  0  0
 19 43  1  0  0  0  0
 20 21  1  0  0  0  0
 20 44  1  0  0  0  0
 21 22  2  0  0  0  0
 21 45  1  0  0  0  0
 22 23  1  0  0  0  0
 22 46  1  0  0  0  0
 24 25  1  0  0  0  0
 24 47  1  0  0  0  0
 25 48  1  0  0  0  0
 26 27  2  0  0  0  0
 27 28  1  0  0  0  0
 27 29  1  0  0  0  0
 28 49  1  0  0  0  0
 29 30  1  0  0  0  0
 29 50  1  0  0  0  0
 29 51  1  0  0  0  0
 30 31  1  0  0  0  0
 30 52  1  0  0  0  0
 30 53  1  0  0  0  0
 31 32  2  0  0  0  0
 31 33  1  0  0  0  0
 33 54  1  0  0  0  0
M  END
$$$$
