CHEMBL427325
 OpenBabel04072215383D

 41 44  0  0  0  0  0  0  0  0999 V2000
    2.9366   -0.9808    0.6826 C   0  0  0  0  0  0  0  0  0  0  0  0
    3.3651    0.3691    0.8162 O   0  0  0  0  0  0  0  0  0  0  0  0
    3.6657    1.0344   -0.3393 C   0  0  0  0  0  0  0  0  0  0  0  0
    3.5708    0.5149   -1.6281 C   0  0  0  0  0  0  0  0  0  0  0  0
    3.9578    1.2876   -2.7281 C   0  0  0  0  0  0  0  0  0  0  0  0
    4.4540    2.5890   -2.5622 C   0  0  0  0  0  0  0  0  0  0  0  0
    4.9807    3.3242   -3.7074 C   0  0  0  0  0  0  0  0  0  0  0  0
    5.1622    3.0092   -5.0407 C   0  0  0  0  0  0  0  0  0  0  0  0
    5.8587    4.0970   -5.6265 C   0  0  0  0  0  0  0  0  0  0  0  0
    6.3939    4.4226   -6.8736 C   0  0  0  0  0  0  0  0  0  0  0  0
    6.2780    3.5086   -7.9337 N   0  0  0  0  0  0  0  0  0  0  0  0
    6.7677    3.7090   -9.2062 C   0  0  0  0  0  0  0  0  0  0  0  0
    7.4036    4.6799   -9.6014 O   0  0  0  0  0  0  0  0  0  0  0  0
    6.5092    2.6091  -10.1822 C   0  0  0  0  0  0  0  0  0  0  0  0
    5.3986    1.7537  -10.0884 C   0  0  0  0  0  0  0  0  0  0  0  0
    5.1925    0.7608  -11.0528 C   0  0  0  0  0  0  0  0  0  0  0  0
    6.0853    0.6262  -12.1153 C   0  0  0  0  0  0  0  0  0  0  0  0
    7.1763    1.4824  -12.2083 C   0  0  0  0  0  0  0  0  0  0  0  0
    8.0248    1.3559  -13.2362 F   0  0  0  0  0  0  0  0  0  0  0  0
    7.3959    2.4693  -11.2564 C   0  0  0  0  0  0  0  0  0  0  0  0
    7.0164    5.6093   -7.0145 N   0  0  0  0  0  0  0  0  0  0  0  0
    7.1081    6.4274   -5.9507 C   0  0  0  0  0  0  0  0  0  0  0  0
    6.6361    6.2222   -4.7149 N   0  0  0  0  0  0  0  0  0  0  0  0
    6.0241    5.0359   -4.6201 C   0  0  0  0  0  0  0  0  0  0  0  0
    5.4817    4.5705   -3.4605 O   0  0  0  0  0  0  0  0  0  0  0  0
    4.4984    3.1187   -1.2673 C   0  0  0  0  0  0  0  0  0  0  0  0
    4.1121    2.3452   -0.1673 C   0  0  0  0  0  0  0  0  0  0  0  0
    2.7524   -1.3760    1.6855 H   0  0  0  0  0  0  0  0  0  0  0  0
    3.7114   -1.6005    0.2175 H   0  0  0  0  0  0  0  0  0  0  0  0
    1.9972   -1.0379    0.1227 H   0  0  0  0  0  0  0  0  0  0  0  0
    3.2185   -0.4938   -1.8149 H   0  0  0  0  0  0  0  0  0  0  0  0
    3.8859    0.8402   -3.7160 H   0  0  0  0  0  0  0  0  0  0  0  0
    4.8733    2.0843   -5.5170 H   0  0  0  0  0  0  0  0  0  0  0  0
    5.8515    2.6246   -7.7090 H   0  0  0  0  0  0  0  0  0  0  0  0
    4.6598    1.8642   -9.3003 H   0  0  0  0  0  0  0  0  0  0  0  0
    4.3280    0.1043  -10.9874 H   0  0  0  0  0  0  0  0  0  0  0  0
    5.9323   -0.1300  -12.8793 H   0  0  0  0  0  0  0  0  0  0  0  0
    8.2536    3.1296  -11.3628 H   0  0  0  0  0  0  0  0  0  0  0  0
    7.6326    7.3638   -6.1181 H   0  0  0  0  0  0  0  0  0  0  0  0
    4.8619    4.1299   -1.0931 H   0  0  0  0  0  0  0  0  0  0  0  0
    4.1818    2.7647    0.8335 H   0  0  0  0  0  0  0  0  0  0  0  0
  1  2  1  0  0  0  0
  1 28  1  0  0  0  0
  1 29  1  0  0  0  0
  1 30  1  0  0  0  0
  2  3  1  0  0  0  0
  3  4  1  0  0  0  0
  3 27  2  0  0  0  0
  4  5  2  0  0  0  0
  4 31  1  0  0  0  0
  5  6  1  0  0  0  0
  5 32  1  0  0  0  0
  6  7  1  0  0  0  0
  6 26  2  0  0  0  0
  7  8  2  0  0  0  0
  7 25  1  0  0  0  0
  8  9  1  0  0  0  0
  8 33  1  0  0  0  0
  9 10  1  0  0  0  0
  9 24  2  0  0  0  0
 10 11  1  0  0  0  0
 10 21  2  0  0  0  0
 11 12  1  0  0  0  0
 11 34  1  0  0  0  0
 12 13  2  0  0  0  0
 12 14  1  0  0  0  0
 14 15  1  0  0  0  0
 14 20  2  0  0  0  0
 15 16  2  0  0  0  0
 15 35  1  0  0  0  0
 16 17  1  0  0  0  0
 16 36  1  0  0  0  0
 17 18  2  0  0  0  0
 17 37  1  0  0  0  0
 18 19  1  0  0  0  0
 18 20  1  0  0  0  0
 20 38  1  0  0  0  0
 21 22  1  0  0  0  0
 22 23  2  0  0  0  0
 22 39  1  0  0  0  0
 23 24  1  0  0  0  0
 24 25  1  0  0  0  0
 26 27  1  0  0  0  0
 26 40  1  0  0  0  0
 27 41  1  0  0  0  0
M  END
$$$$
