CHEMBL497958
 OpenBabel04072215383D

 44 47  0  0  0  0  0  0  0  0999 V2000
    0.3475   -1.5871   -2.1469 C   0  0  0  0  0  0  0  0  0  0  0  0
   -0.2448   -0.8333   -0.9945 C   0  0  0  0  0  0  0  0  0  0  0  0
   -1.5286   -0.2693   -1.0632 C   0  0  0  0  0  0  0  0  0  0  0  0
   -2.0644    0.4528    0.0173 C   0  0  0  0  0  0  0  0  0  0  0  0
   -3.3934    0.9773   -0.0399 N   0  0  0  0  0  0  0  0  0  0  0  0
   -4.2849    0.8130    1.0167 C   0  0  0  0  0  0  0  0  0  0  0  0
   -5.3667    1.5924    1.1412 C   0  0  0  0  0  0  0  0  0  0  0  0
   -5.8465    2.3542    0.0148 C   0  0  0  0  0  0  0  0  0  0  0  0
   -7.2767    2.8314    0.0048 C   0  0  0  0  0  0  0  0  0  0  0  0
   -5.0376    2.4770   -1.0569 C   0  0  0  0  0  0  0  0  0  0  0  0
   -5.5527    3.0684   -2.2774 C   0  0  0  0  0  0  0  0  0  0  0  0
   -5.4312    4.4395   -2.3224 C   0  0  0  0  0  0  0  0  0  0  0  0
   -5.8233    5.0311   -3.4594 C   0  0  0  0  0  0  0  0  0  0  0  0
   -6.6884    4.3587   -4.2324 C   0  0  0  0  0  0  0  0  0  0  0  0
   -7.4913    5.2894   -4.5797 N   0  0  0  0  0  0  0  0  0  0  0  0
   -8.2068    5.4840   -5.6306 C   0  0  0  0  0  0  0  0  0  0  0  0
   -7.9332    6.7557   -5.1918 N   0  0  0  0  0  0  0  0  0  0  0  0
   -8.4393    4.2401   -6.0154 N   0  0  0  0  0  0  0  0  0  0  0  0
   -7.9088    3.0369   -5.3910 C   0  0  0  0  0  0  0  0  0  0  0  0
   -6.9491    3.0537   -4.3386 C   0  0  0  0  0  0  0  0  0  0  0  0
   -6.1590    2.3226   -3.3481 C   0  0  0  0  0  0  0  0  0  0  0  0
   -3.6738    1.8713   -1.0821 C   0  0  0  0  0  0  0  0  0  0  0  0
   -2.9136    2.1269   -2.0152 O   0  0  0  0  0  0  0  0  0  0  0  0
   -1.2948    0.6284    1.1740 C   0  0  0  0  0  0  0  0  0  0  0  0
   -0.0278    0.0518    1.2561 C   0  0  0  0  0  0  0  0  0  0  0  0
    0.4864   -0.6685    0.1802 C   0  0  0  0  0  0  0  0  0  0  0  0
    1.7111   -1.2046    0.2848 F   0  0  0  0  0  0  0  0  0  0  0  0
   -0.3444   -1.6340   -2.9939 H   0  0  0  0  0  0  0  0  0  0  0  0
    0.5876   -2.6143   -1.8517 H   0  0  0  0  0  0  0  0  0  0  0  0
    1.2627   -1.0931   -2.4902 H   0  0  0  0  0  0  0  0  0  0  0  0
   -2.1169   -0.4012   -1.9692 H   0  0  0  0  0  0  0  0  0  0  0  0
   -4.0091    0.0971    1.7873 H   0  0  0  0  0  0  0  0  0  0  0  0
   -5.9011    1.6725    2.0813 H   0  0  0  0  0  0  0  0  0  0  0  0
   -7.7776    2.6795    0.9624 H   0  0  0  0  0  0  0  0  0  0  0  0
   -7.8601    2.3047   -0.7638 H   0  0  0  0  0  0  0  0  0  0  0  0
   -7.3187    3.9030   -0.2156 H   0  0  0  0  0  0  0  0  0  0  0  0
   -5.0965    5.0917   -1.5252 H   0  0  0  0  0  0  0  0  0  0  0  0
   -5.6814    6.0931   -3.6094 H   0  0  0  0  0  0  0  0  0  0  0  0
   -7.4705    6.6662   -4.2847 H   0  0  0  0  0  0  0  0  0  0  0  0
   -8.0062    7.7201   -5.4187 H   0  0  0  0  0  0  0  0  0  0  0  0
   -8.3277    2.0917   -5.7538 H   0  0  0  0  0  0  0  0  0  0  0  0
   -6.0447    1.2420   -3.3420 H   0  0  0  0  0  0  0  0  0  0  0  0
   -1.6951    1.1780    2.0214 H   0  0  0  0  0  0  0  0  0  0  0  0
    0.5611    0.1414    2.1620 H   0  0  0  0  0  0  0  0  0  0  0  0
  1  2  1  0  0  0  0
  1 28  1  0  0  0  0
  1 29  1  0  0  0  0
  1 30  1  0  0  0  0
  2  3  1  0  0  0  0
  2 26  2  0  0  0  0
  3  4  2  0  0  0  0
  3 31  1  0  0  0  0
  4  5  1  0  0  0  0
  4 24  1  0  0  0  0
  5  6  1  0  0  0  0
  5 22  1  0  0  0  0
  6  7  2  0  0  0  0
  6 32  1  0  0  0  0
  7  8  1  0  0  0  0
  7 33  1  0  0  0  0
  8  9  1  0  0  0  0
  8 10  2  0  0  0  0
  9 34  1  0  0  0  0
  9 35  1  0  0  0  0
  9 36  1  0  0  0  0
 10 11  1  0  0  0  0
 10 22  1  0  0  0  0
 11 12  1  0  0  0  0
 11 21  2  0  0  0  0
 12 13  2  0  0  0  0
 12 37  1  0  0  0  0
 13 14  1  0  0  0  0
 13 38  1  0  0  0  0
 14 15  1  0  0  0  0
 14 20  2  0  0  0  0
 15 16  2  0  0  0  0
 16 17  1  0  0  0  0
 16 18  1  0  0  0  0
 17 39  1  0  0  0  0
 17 40  1  0  0  0  0
 18 19  2  0  0  0  0
 19 20  1  0  0  0  0
 19 41  1  0  0  0  0
 20 21  1  0  0  0  0
 21 42  1  0  0  0  0
 22 23  2  0  0  0  0
 24 25  2  0  0  0  0
 24 43  1  0  0  0  0
 25 26  1  0  0  0  0
 25 44  1  0  0  0  0
 26 27  1  0  0  0  0
M  END
$$$$
