CHEMBL1488812
 OpenBabel04072215363D

 37 39  0  0  0  0  0  0  0  0999 V2000
    1.9481    0.0821    2.5136 C   0  0  0  0  0  0  0  0  0  0  0  0
    0.6007    0.0272    1.8575 C   0  0  0  0  0  0  0  0  0  0  0  0
   -0.5559   -0.2222    2.6041 C   0  0  0  0  0  0  0  0  0  0  0  0
   -1.8090   -0.2456    1.9853 C   0  0  0  0  0  0  0  0  0  0  0  0
   -1.9291   -0.0253    0.6072 C   0  0  0  0  0  0  0  0  0  0  0  0
   -3.2917    0.0118   -0.0498 C   0  0  0  0  0  0  0  0  0  0  0  0
   -3.8951    1.3912   -0.0793 C   0  0  0  0  0  0  0  0  0  0  0  0
   -3.6124    2.2721   -1.1284 C   0  0  0  0  0  0  0  0  0  0  0  0
   -4.0738    3.5863   -1.0826 C   0  0  0  0  0  0  0  0  0  0  0  0
   -3.7011    4.6012   -2.0880 C   0  0  0  0  0  0  0  0  0  0  0  0
   -3.4708    4.2630   -3.4375 C   0  0  0  0  0  0  0  0  0  0  0  0
   -3.0419    5.2192   -4.3630 C   0  0  0  0  0  0  0  0  0  0  0  0
   -2.8469    6.5303   -3.9510 C   0  0  0  0  0  0  0  0  0  0  0  0
   -2.4195    7.4418   -4.8341 F   0  0  0  0  0  0  0  0  0  0  0  0
   -3.0841    6.9059   -2.6381 C   0  0  0  0  0  0  0  0  0  0  0  0
   -3.5126    5.9471   -1.7133 C   0  0  0  0  0  0  0  0  0  0  0  0
   -4.8342    4.0065   -0.0422 N   0  0  0  0  0  0  0  0  0  0  0  0
   -5.1498    3.1477    0.9762 N   0  0  0  0  0  0  0  0  0  0  0  0
   -4.6745    1.8884    0.9426 C   0  0  0  0  0  0  0  0  0  0  0  0
   -5.0172    1.1291    2.0169 O   0  0  0  0  0  0  0  0  0  0  0  0
   -0.7686    0.2120   -0.1402 C   0  0  0  0  0  0  0  0  0  0  0  0
    0.4843    0.2334    0.4786 C   0  0  0  0  0  0  0  0  0  0  0  0
    1.8731   -0.0449    3.5988 H   0  0  0  0  0  0  0  0  0  0  0  0
    2.4196    1.0530    2.3256 H   0  0  0  0  0  0  0  0  0  0  0  0
    2.5928   -0.7117    2.1240 H   0  0  0  0  0  0  0  0  0  0  0  0
   -0.4923   -0.3904    3.6770 H   0  0  0  0  0  0  0  0  0  0  0  0
   -2.6947   -0.4278    2.5913 H   0  0  0  0  0  0  0  0  0  0  0  0
   -3.9721   -0.6938    0.4474 H   0  0  0  0  0  0  0  0  0  0  0  0
   -3.2079   -0.3679   -1.0765 H   0  0  0  0  0  0  0  0  0  0  0  0
   -2.9869    1.9386   -1.9487 H   0  0  0  0  0  0  0  0  0  0  0  0
   -3.6240    3.2448   -3.7883 H   0  0  0  0  0  0  0  0  0  0  0  0
   -2.8554    4.9462   -5.3970 H   0  0  0  0  0  0  0  0  0  0  0  0
   -2.9238    7.9345   -2.3329 H   0  0  0  0  0  0  0  0  0  0  0  0
   -3.6811    6.2558   -0.6822 H   0  0  0  0  0  0  0  0  0  0  0  0
   -5.5304    1.7702    2.5411 H   0  0  0  0  0  0  0  0  0  0  0  0
   -0.8288    0.3895   -1.2114 H   0  0  0  0  0  0  0  0  0  0  0  0
    1.3718    0.4222   -0.1216 H   0  0  0  0  0  0  0  0  0  0  0  0
  1  2  1  0  0  0  0
  1 23  1  0  0  0  0
  1 24  1  0  0  0  0
  1 25  1  0  0  0  0
  2  3  1  0  0  0  0
  2 22  2  0  0  0  0
  3  4  2  0  0  0  0
  3 26  1  0  0  0  0
  4  5  1  0  0  0  0
  4 27  1  0  0  0  0
  5  6  1  0  0  0  0
  5 21  2  0  0  0  0
  6  7  1  0  0  0  0
  6 28  1  0  0  0  0
  6 29  1  0  0  0  0
  7  8  1  0  0  0  0
  7 19  2  0  0  0  0
  8  9  2  0  0  0  0
  8 30  1  0  0  0  0
  9 10  1  0  0  0  0
  9 17  1  0  0  0  0
 10 11  1  0  0  0  0
 10 16  2  0  0  0  0
 11 12  2  0  0  0  0
 11 31  1  0  0  0  0
 12 13  1  0  0  0  0
 12 32  1  0  0  0  0
 13 14  1  0  0  0  0
 13 15  2  0  0  0  0
 15 16  1  0  0  0  0
 15 33  1  0  0  0  0
 16 34  1  0  0  0  0
 17 18  2  0  0  0  0
 18 19  1  0  0  0  0
 19 20  1  0  0  0  0
 20 35  1  0  0  0  0
 21 22  1  0  0  0  0
 21 36  1  0  0  0  0
 22 37  1  0  0  0  0
M  END
$$$$
