CHEMBL1083386
 OpenBabel04072215363D

 67 73  0  0  1  0  0  0  0  0999 V2000
    1.3883   -1.0102   -2.4416 C   0  0  0  0  0  0  0  0  0  0  0  0
    2.3158   -1.8948   -1.6128 C   0  0  0  0  0  0  0  0  0  0  0  0
    3.6092   -1.1664   -1.2366 C   0  0  0  0  0  0  0  0  0  0  0  0
    4.5998   -2.0111   -0.4025 C   0  0  0  0  0  0  0  0  0  0  0  0
    5.1261   -3.1986   -1.0612 N   0  0  0  0  0  0  0  0  0  0  0  0
    5.8465   -3.1940   -2.2687 C   0  0  0  0  0  0  0  0  0  0  0  0
    6.4191   -2.1356   -3.0081 C   0  0  0  0  0  0  0  0  0  0  0  0
    7.0733   -2.4449   -4.2172 C   0  0  0  0  0  0  0  0  0  0  0  0
    7.1446   -3.7540   -4.7100 C   0  0  0  0  0  0  0  0  0  0  0  0
    7.9136   -4.1687   -5.9595 C   0  0  3  0  0  0  0  0  0  0  0  0
    8.5461   -3.0797   -6.8226 C   0  0  0  0  0  0  0  0  0  0  0  0
    7.5062   -2.3246   -7.6411 C   0  0  0  0  0  0  0  0  0  0  0  0
    6.5980   -3.2872   -8.3940 C   0  0  0  0  0  0  0  0  0  0  0  0
    6.0857   -4.4105   -7.5032 C   0  0  0  0  0  0  0  0  0  0  0  0
    7.1401   -5.0544   -6.7897 O   0  0  0  0  0  0  0  0  0  0  0  0
    6.5286   -4.7781   -3.9762 C   0  0  0  0  0  0  0  0  0  0  0  0
    5.8942   -4.5008   -2.7553 C   0  0  0  0  0  0  0  0  0  0  0  0
    5.1996   -5.2036   -1.8027 C   0  0  0  0  0  0  0  0  0  0  0  0
    4.7527   -6.5249   -1.9286 C   0  0  0  0  0  0  0  0  0  0  0  0
    3.7711   -6.9138   -0.9945 C   0  0  0  0  0  0  0  0  0  0  0  0
    3.3616   -6.0767    0.0718 C   0  0  0  0  0  0  0  0  0  0  0  0
    4.3982   -5.1850    0.4710 C   0  0  0  0  0  0  0  0  0  0  0  0
    4.9200   -4.5119   -0.6547 C   0  0  0  0  0  0  0  0  0  0  0  0
    5.3817   -5.9948    1.4423 C   0  0  0  0  0  0  0  0  0  0  0  0
    4.7489   -7.1499    2.3220 C   0  0  0  0  0  0  0  0  0  0  0  0
    3.2683   -7.1344    2.2148 C   0  0  0  0  0  0  0  0  0  0  0  0
    2.5809   -6.6211    1.1430 C   0  0  0  0  0  0  0  0  0  0  0  0
    1.2503   -6.5420    1.5621 C   0  0  0  0  0  0  0  0  0  0  0  0
    1.0696   -7.1640    2.7345 N   0  0  0  0  0  0  0  0  0  0  0  0
    2.3058   -7.6227    3.0480 N   0  0  0  0  0  0  0  0  0  0  0  0
    2.4512   -8.5920    4.1039 C   0  0  0  0  0  0  0  0  0  0  0  0
    3.4585   -8.2970   -1.2438 C   0  0  0  0  0  0  0  0  0  0  0  0
    2.7365   -9.1137   -0.6905 O   0  0  0  0  0  0  0  0  0  0  0  0
    4.2750   -8.6425   -2.3196 N   0  0  0  0  0  0  0  0  0  0  0  0
    5.1129   -7.5881   -2.8599 C   0  0  0  0  0  0  0  0  0  0  0  0
    0.4864   -1.5639   -2.7234 H   0  0  0  0  0  0  0  0  0  0  0  0
    1.8768   -0.6756   -3.3629 H   0  0  0  0  0  0  0  0  0  0  0  0
    1.0761   -0.1236   -1.8796 H   0  0  0  0  0  0  0  0  0  0  0  0
    2.5447   -2.7953   -2.1921 H   0  0  0  0  0  0  0  0  0  0  0  0
    1.7894   -2.2106   -0.7054 H   0  0  0  0  0  0  0  0  0  0  0  0
    3.3511   -0.2696   -0.6574 H   0  0  0  0  0  0  0  0  0  0  0  0
    4.0898   -0.8034   -2.1516 H   0  0  0  0  0  0  0  0  0  0  0  0
    4.1213   -2.3191    0.5330 H   0  0  0  0  0  0  0  0  0  0  0  0
    5.4667   -1.3931   -0.1403 H   0  0  0  0  0  0  0  0  0  0  0  0
    6.3733   -1.1079   -2.6648 H   0  0  0  0  0  0  0  0  0  0  0  0
    7.5272   -1.6188   -4.7582 H   0  0  0  0  0  0  0  0  0  0  0  0
    8.7434   -4.7819   -5.5815 H   0  0  0  0  0  0  0  0  0  0  0  0
    9.2332   -3.5669   -7.5278 H   0  0  0  0  0  0  0  0  0  0  0  0
    9.1490   -2.3906   -6.2220 H   0  0  0  0  0  0  0  0  0  0  0  0
    8.0104   -1.6571   -8.3483 H   0  0  0  0  0  0  0  0  0  0  0  0
    6.8980   -1.6892   -6.9893 H   0  0  0  0  0  0  0  0  0  0  0  0
    7.1681   -3.7230   -9.2228 H   0  0  0  0  0  0  0  0  0  0  0  0
    5.7541   -2.7423   -8.8312 H   0  0  0  0  0  0  0  0  0  0  0  0
    5.6058   -5.1728   -8.1280 H   0  0  0  0  0  0  0  0  0  0  0  0
    5.3260   -4.0516   -6.8011 H   0  0  0  0  0  0  0  0  0  0  0  0
    6.5846   -5.7942   -4.3466 H   0  0  0  0  0  0  0  0  0  0  0  0
    5.9370   -5.2913    2.0692 H   0  0  0  0  0  0  0  0  0  0  0  0
    6.1324   -6.4852    0.7994 H   0  0  0  0  0  0  0  0  0  0  0  0
    5.0861   -7.0539    3.3582 H   0  0  0  0  0  0  0  0  0  0  0  0
    5.1148   -8.1207    1.9581 H   0  0  0  0  0  0  0  0  0  0  0  0
    0.4142   -6.0463    1.0891 H   0  0  0  0  0  0  0  0  0  0  0  0
    1.4989   -8.7016    4.6303 H   0  0  0  0  0  0  0  0  0  0  0  0
    3.2253   -8.2541    4.7954 H   0  0  0  0  0  0  0  0  0  0  0  0
    2.7274   -9.5470    3.6476 H   0  0  0  0  0  0  0  0  0  0  0  0
    4.3307   -9.6061   -2.6097 H   0  0  0  0  0  0  0  0  0  0  0  0
    4.8181   -7.3803   -3.8887 H   0  0  0  0  0  0  0  0  0  0  0  0
    6.1628   -7.8739   -2.7754 H   0  0  0  0  0  0  0  0  0  0  0  0
  1  2  1  0  0  0  0
  1 36  1  0  0  0  0
  1 37  1  0  0  0  0
  1 38  1  0  0  0  0
  2  3  1  0  0  0  0
  2 39  1  0  0  0  0
  2 40  1  0  0  0  0
  3  4  1  0  0  0  0
  3 41  1  0  0  0  0
  3 42  1  0  0  0  0
  4  5  1  0  0  0  0
  4 43  1  0  0  0  0
  4 44  1  0  0  0  0
  5  6  1  0  0  0  0
  5 23  1  0  0  0  0
  6  7  1  0  0  0  0
  6 17  2  0  0  0  0
  7  8  2  0  0  0  0
  7 45  1  0  0  0  0
  8  9  1  0  0  0  0
  8 46  1  0  0  0  0
  9 10  1  0  0  0  0
  9 16  2  0  0  0  0
 10 11  1  0  0  0  0
 10 15  1  0  0  0  0
 10 47  1  0  0  0  0
 11 12  1  0  0  0  0
 11 48  1  0  0  0  0
 11 49  1  0  0  0  0
 12 13  1  0  0  0  0
 12 50  1  0  0  0  0
 12 51  1  0  0  0  0
 13 14  1  0  0  0  0
 13 52  1  0  0  0  0
 13 53  1  0  0  0  0
 14 15  1  0  0  0  0
 14 54  1  0  0  0  0
 14 55  1  0  0  0  0
 16 17  1  0  0  0  0
 16 56  1  0  0  0  0
 17 18  1  0  0  0  0
 18 19  1  0  0  0  0
 18 23  2  0  0  0  0
 19 20  2  0  0  0  0
 19 35  1  0  0  0  0
 20 21  1  0  0  0  0
 20 32  1  0  0  0  0
 21 22  2  0  0  0  0
 21 27  1  0  0  0  0
 22 23  1  0  0  0  0
 22 24  1  0  0  0  0
 24 25  1  0  0  0  0
 24 57  1  0  0  0  0
 24 58  1  0  0  0  0
 25 26  1  0  0  0  0
 25 59  1  0  0  0  0
 25 60  1  0  0  0  0
 26 27  2  0  0  0  0
 26 30  1  0  0  0  0
 27 28  1  0  0  0  0
 28 29  2  0  0  0  0
 28 61  1  0  0  0  0
 29 30  1  0  0  0  0
 30 31  1  0  0  0  0
 31 62  1  0  0  0  0
 31 63  1  0  0  0  0
 31 64  1  0  0  0  0
 32 33  2  0  0  0  0
 32 34  1  0  0  0  0
 34 35  1  0  0  0  0
 34 65  1  0  0  0  0
 35 66  1  0  0  0  0
 35 67  1  0  0  0  0
M  END
$$$$
