CHEMBL2385600
 OpenBabel04072215363D

 35 38  0  0  0  0  0  0  0  0999 V2000
    2.8149    0.5629    1.0549 C   0  0  0  0  0  0  0  0  0  0  0  0
    2.2216    0.1013   -0.1540 O   0  0  0  0  0  0  0  0  0  0  0  0
    3.0420   -0.5766   -1.0133 C   0  0  0  0  0  0  0  0  0  0  0  0
    4.4091   -0.7912   -0.8315 C   0  0  0  0  0  0  0  0  0  0  0  0
    5.1464   -1.4951   -1.7895 C   0  0  0  0  0  0  0  0  0  0  0  0
    4.5199   -1.9969   -2.9358 C   0  0  0  0  0  0  0  0  0  0  0  0
    5.2983   -2.7214   -3.9335 C   0  0  0  0  0  0  0  0  0  0  0  0
    5.9830   -2.0239   -5.0667 C   0  0  0  0  0  0  0  0  0  0  0  0
    6.7438   -2.5767   -5.9649 N   0  0  0  0  0  0  0  0  0  0  0  0
    6.9144   -3.9338   -5.8513 C   0  0  0  0  0  0  0  0  0  0  0  0
    7.6779   -4.8396   -6.5567 C   0  0  0  0  0  0  0  0  0  0  0  0
    8.5890   -4.6002   -7.6628 C   0  0  0  0  0  0  0  0  0  0  0  0
    8.8904   -3.3497   -8.2402 C   0  0  0  0  0  0  0  0  0  0  0  0
    9.7829   -3.4498   -9.2300 N   0  0  0  0  0  0  0  0  0  0  0  0
   10.0504   -4.7655   -9.2814 N   0  0  0  0  0  0  0  0  0  0  0  0
    9.3577   -5.5014   -8.3638 C   0  0  0  0  0  0  0  0  0  0  0  0
    7.4086   -6.0861   -5.9646 C   0  0  0  0  0  0  0  0  0  0  0  0
    6.5546   -6.0021   -4.9438 N   0  0  0  0  0  0  0  0  0  0  0  0
    6.2701   -4.6790   -4.8530 N   0  0  0  0  0  0  0  0  0  0  0  0
    5.4739   -4.0519   -3.9033 C   0  0  0  0  0  0  0  0  0  0  0  0
    3.1492   -1.7954   -3.1116 C   0  0  0  0  0  0  0  0  0  0  0  0
    2.4182   -1.0804   -2.1573 C   0  0  0  0  0  0  0  0  0  0  0  0
    2.0381    1.0567    1.6465 H   0  0  0  0  0  0  0  0  0  0  0  0
    3.5982    1.3007    0.8515 H   0  0  0  0  0  0  0  0  0  0  0  0
    3.2032   -0.2731    1.6463 H   0  0  0  0  0  0  0  0  0  0  0  0
    4.9366   -0.4211    0.0417 H   0  0  0  0  0  0  0  0  0  0  0  0
    6.2100   -1.6498   -1.6257 H   0  0  0  0  0  0  0  0  0  0  0  0
    5.8115   -0.9347   -5.1252 H   0  0  0  0  0  0  0  0  0  0  0  0
    8.5038   -2.3725   -7.9793 H   0  0  0  0  0  0  0  0  0  0  0  0
   10.7217   -5.0906   -9.9690 H   0  0  0  0  0  0  0  0  0  0  0  0
    9.4818   -6.5720   -8.2958 H   0  0  0  0  0  0  0  0  0  0  0  0
    7.8033   -7.0584   -6.2297 H   0  0  0  0  0  0  0  0  0  0  0  0
    5.0412   -4.6998   -3.1516 H   0  0  0  0  0  0  0  0  0  0  0  0
    2.6368   -2.1875   -3.9870 H   0  0  0  0  0  0  0  0  0  0  0  0
    1.3530   -0.9198   -2.3041 H   0  0  0  0  0  0  0  0  0  0  0  0
  1  2  1  0  0  0  0
  1 23  1  0  0  0  0
  1 24  1  0  0  0  0
  1 25  1  0  0  0  0
  2  3  1  0  0  0  0
  3  4  1  0  0  0  0
  3 22  2  0  0  0  0
  4  5  2  0  0  0  0
  4 26  1  0  0  0  0
  5  6  1  0  0  0  0
  5 27  1  0  0  0  0
  6  7  1  0  0  0  0
  6 21  2  0  0  0  0
  7  8  1  0  0  0  0
  7 20  2  0  0  0  0
  8  9  2  0  0  0  0
  8 28  1  0  0  0  0
  9 10  1  0  0  0  0
 10 11  2  0  0  0  0
 10 19  1  0  0  0  0
 11 12  1  0  0  0  0
 11 17  1  0  0  0  0
 12 13  1  0  0  0  0
 12 16  2  0  0  0  0
 13 14  2  0  0  0  0
 13 29  1  0  0  0  0
 14 15  1  0  0  0  0
 15 16  1  0  0  0  0
 15 30  1  0  0  0  0
 16 31  1  0  0  0  0
 17 18  2  0  0  0  0
 17 32  1  0  0  0  0
 18 19  1  0  0  0  0
 19 20  1  0  0  0  0
 20 33  1  0  0  0  0
 21 22  1  0  0  0  0
 21 34  1  0  0  0  0
 22 35  1  0  0  0  0
M  END
$$$$
