CHEMBL3702662
 OpenBabel04072215373D

 51 54  0  0  0  0  0  0  0  0999 V2000
    2.4491   -0.0692    0.0365 C   0  0  0  0  0  0  0  0  0  0  0  0
    0.9488   -0.0267    0.0889 C   0  0  0  0  0  0  0  0  0  0  0  0
    0.2647    1.1990    0.0923 C   0  0  0  0  0  0  0  0  0  0  0  0
   -1.1291    1.2089    0.0844 C   0  0  0  0  0  0  0  0  0  0  0  0
   -1.9398    2.4596    0.1404 C   0  0  0  0  0  0  0  0  0  0  0  0
   -3.0355    2.3786    0.6923 O   0  0  0  0  0  0  0  0  0  0  0  0
   -1.4350    3.5901   -0.4933 N   0  0  0  0  0  0  0  0  0  0  0  0
   -2.1095    4.8418   -0.5645 C   0  0  0  0  0  0  0  0  0  0  0  0
   -3.1560    5.1815    0.3015 C   0  0  0  0  0  0  0  0  0  0  0  0
   -3.8433    6.3883    0.1698 C   0  0  0  0  0  0  0  0  0  0  0  0
   -3.4988    7.2785   -0.8395 C   0  0  0  0  0  0  0  0  0  0  0  0
   -2.4463    6.9772   -1.7151 C   0  0  0  0  0  0  0  0  0  0  0  0
   -2.1097    7.9222   -2.8429 C   0  0  0  0  0  0  0  0  0  0  0  0
   -2.9239    9.0136   -2.9039 F   0  0  0  0  0  0  0  0  0  0  0  0
   -0.8405    8.4086   -2.7561 F   0  0  0  0  0  0  0  0  0  0  0  0
   -2.1991    7.3267   -4.0648 F   0  0  0  0  0  0  0  0  0  0  0  0
   -1.7352    5.7665   -1.5493 C   0  0  0  0  0  0  0  0  0  0  0  0
   -1.8275   -0.0128    0.0552 C   0  0  0  0  0  0  0  0  0  0  0  0
   -1.1739   -1.2527    0.0192 C   0  0  0  0  0  0  0  0  0  0  0  0
   -1.8543   -2.4360   -0.2066 N   0  0  0  0  0  0  0  0  0  0  0  0
   -3.0309   -2.4275   -1.0776 C   0  0  0  0  0  0  0  0  0  0  0  0
   -2.8866   -3.5823   -2.0634 C   0  0  0  0  0  0  0  0  0  0  0  0
   -2.6165   -4.8722   -1.3422 C   0  0  0  0  0  0  0  0  0  0  0  0
   -2.9133   -6.0096   -2.0206 N   0  0  0  0  0  0  0  0  0  0  0  0
   -2.6893   -7.1658   -1.3998 C   0  0  0  0  0  0  0  0  0  0  0  0
   -2.9856   -8.3174   -2.0926 N   0  0  0  0  0  0  0  0  0  0  0  0
   -2.1688   -7.2778   -0.1734 N   0  0  0  0  0  0  0  0  0  0  0  0
   -1.8735   -6.1257    0.4679 C   0  0  0  0  0  0  0  0  0  0  0  0
   -2.0614   -4.8706   -0.0715 C   0  0  0  0  0  0  0  0  0  0  0  0
   -1.7459   -3.6012    0.6807 C   0  0  0  0  0  0  0  0  0  0  0  0
    0.2241   -1.2349    0.0799 C   0  0  0  0  0  0  0  0  0  0  0  0
    2.8770    0.9384    0.0383 H   0  0  0  0  0  0  0  0  0  0  0  0
    2.7738   -0.5667   -0.8840 H   0  0  0  0  0  0  0  0  0  0  0  0
    2.8479   -0.6103    0.8992 H   0  0  0  0  0  0  0  0  0  0  0  0
    0.8255    2.1278    0.1234 H   0  0  0  0  0  0  0  0  0  0  0  0
   -0.6271    3.4761   -1.0911 H   0  0  0  0  0  0  0  0  0  0  0  0
   -3.4636    4.5203    1.1044 H   0  0  0  0  0  0  0  0  0  0  0  0
   -4.6593    6.6165    0.8510 H   0  0  0  0  0  0  0  0  0  0  0  0
   -4.0637    8.2036   -0.9444 H   0  0  0  0  0  0  0  0  0  0  0  0
   -0.9169    5.5438   -2.2330 H   0  0  0  0  0  0  0  0  0  0  0  0
   -2.9165    0.0171    0.0484 H   0  0  0  0  0  0  0  0  0  0  0  0
   -3.1175   -1.5030   -1.6605 H   0  0  0  0  0  0  0  0  0  0  0  0
   -3.9384   -2.5273   -0.4719 H   0  0  0  0  0  0  0  0  0  0  0  0
   -2.0467   -3.3900   -2.7420 H   0  0  0  0  0  0  0  0  0  0  0  0
   -3.7976   -3.6698   -2.6653 H   0  0  0  0  0  0  0  0  0  0  0  0
   -2.9519   -8.1318   -3.0846 H   0  0  0  0  0  0  0  0  0  0  0  0
   -2.4353   -9.0873   -1.7425 H   0  0  0  0  0  0  0  0  0  0  0  0
   -1.4738   -6.2595    1.4700 H   0  0  0  0  0  0  0  0  0  0  0  0
   -0.7487   -3.6798    1.1303 H   0  0  0  0  0  0  0  0  0  0  0  0
   -2.4741   -3.4913    1.4948 H   0  0  0  0  0  0  0  0  0  0  0  0
    0.7687   -2.1765    0.0330 H   0  0  0  0  0  0  0  0  0  0  0  0
  1  2  1  0  0  0  0
  1 32  1  0  0  0  0
  1 33  1  0  0  0  0
  1 34  1  0  0  0  0
  2  3  1  0  0  0  0
  2 31  2  0  0  0  0
  3  4  2  0  0  0  0
  3 35  1  0  0  0  0
  4  5  1  0  0  0  0
  4 18  1  0  0  0  0
  5  6  2  0  0  0  0
  5  7  1  0  0  0  0
  7  8  1  0  0  0  0
  7 36  1  0  0  0  0
  8  9  1  0  0  0  0
  8 17  2  0  0  0  0
  9 10  2  0  0  0  0
  9 37  1  0  0  0  0
 10 11  1  0  0  0  0
 10 38  1  0  0  0  0
 11 12  2  0  0  0  0
 11 39  1  0  0  0  0
 12 13  1  0  0  0  0
 12 17  1  0  0  0  0
 13 14  1  0  0  0  0
 13 15  1  0  0  0  0
 13 16  1  0  0  0  0
 17 40  1  0  0  0  0
 18 19  2  0  0  0  0
 18 41  1  0  0  0  0
 19 20  1  0  0  0  0
 19 31  1  0  0  0  0
 20 21  1  0  0  0  0
 20 30  1  0  0  0  0
 21 22  1  0  0  0  0
 21 42  1  0  0  0  0
 21 43  1  0  0  0  0
 22 23  1  0  0  0  0
 22 44  1  0  0  0  0
 22 45  1  0  0  0  0
 23 24  1  0  0  0  0
 23 29  2  0  0  0  0
 24 25  2  0  0  0  0
 25 26  1  0  0  0  0
 25 27  1  0  0  0  0
 26 46  1  0  0  0  0
 26 47  1  0  0  0  0
 27 28  2  0  0  0  0
 28 29  1  0  0  0  0
 28 48  1  0  0  0  0
 29 30  1  0  0  0  0
 30 49  1  0  0  0  0
 30 50  1  0  0  0  0
 31 51  1  0  0  0  0
M  END
$$$$
