CHEMBL3596893
 OpenBabel04072215363D

 58 61  0  0  0  0  0  0  0  0999 V2000
   -0.2761   -6.4077    1.5457 C   0  0  0  0  0  0  0  0  0  0  0  0
    0.3811   -5.4343    0.7060 N   0  0  0  0  0  0  0  0  0  0  0  0
    1.4919   -4.6961    1.0031 C   0  0  0  0  0  0  0  0  0  0  0  0
    1.7784   -3.9462   -0.1258 C   0  0  0  0  0  0  0  0  0  0  0  0
    2.8986   -3.0338   -0.2695 C   0  0  0  0  0  0  0  0  0  0  0  0
    3.0895   -2.2983   -1.4347 C   0  0  0  0  0  0  0  0  0  0  0  0
    4.1291   -1.4469   -1.6130 N   0  0  0  0  0  0  0  0  0  0  0  0
    4.9914   -1.3695   -0.5724 C   0  0  0  0  0  0  0  0  0  0  0  0
    4.8429   -2.1063    0.6003 C   0  0  0  0  0  0  0  0  0  0  0  0
    5.8002   -2.0497    1.7206 C   0  0  0  0  0  0  0  0  0  0  0  0
    5.3415   -2.1783    3.0361 C   0  0  0  0  0  0  0  0  0  0  0  0
    6.2208   -2.1618    4.1235 C   0  0  0  0  0  0  0  0  0  0  0  0
    7.6001   -2.0237    3.9405 C   0  0  0  0  0  0  0  0  0  0  0  0
    8.5272   -2.0039    5.0140 N   0  0  0  0  0  0  0  0  0  0  0  0
    8.1870   -2.2214    6.3237 C   0  0  0  0  0  0  0  0  0  0  0  0
    7.1130   -2.5502    6.7859 O   0  0  0  0  0  0  0  0  0  0  0  0
    9.2711   -1.9554    7.2149 N   0  0  0  0  0  0  0  0  0  0  0  0
    9.0321   -2.0313    8.5858 C   0  0  0  0  0  0  0  0  0  0  0  0
    9.3702   -1.0446    9.4829 C   0  0  0  0  0  0  0  0  0  0  0  0
    8.7793   -1.4383   10.7165 C   0  0  0  0  0  0  0  0  0  0  0  0
    8.7032   -0.6920   12.0423 C   0  0  0  0  0  0  0  0  0  0  0  0
    9.3323    0.7120   11.9445 C   0  0  0  0  0  0  0  0  0  0  0  0
    7.2307   -0.5174   12.4774 C   0  0  0  0  0  0  0  0  0  0  0  0
    9.4500   -1.4799   13.1367 C   0  0  0  0  0  0  0  0  0  0  0  0
    8.2181   -2.6504   10.6096 N   0  0  0  0  0  0  0  0  0  0  0  0
    8.3729   -2.9909    9.3177 N   0  0  0  0  0  0  0  0  0  0  0  0
    7.9832   -4.3189    8.9050 C   0  0  0  0  0  0  0  0  0  0  0  0
    8.0755   -1.8824    2.6336 C   0  0  0  0  0  0  0  0  0  0  0  0
    7.1871   -1.8957    1.5410 C   0  0  0  0  0  0  0  0  0  0  0  0
    3.7746   -2.9387    0.7656 N   0  0  0  0  0  0  0  0  0  0  0  0
    0.7571   -4.3087   -1.0325 C   0  0  0  0  0  0  0  0  0  0  0  0
   -0.0907   -5.2112   -0.5308 N   0  0  0  0  0  0  0  0  0  0  0  0
    0.1611   -6.3822    2.5457 H   0  0  0  0  0  0  0  0  0  0  0  0
   -0.1341   -7.3949    1.0987 H   0  0  0  0  0  0  0  0  0  0  0  0
   -1.3395   -6.1597    1.5969 H   0  0  0  0  0  0  0  0  0  0  0  0
    1.9859   -4.7686    1.9616 H   0  0  0  0  0  0  0  0  0  0  0  0
    2.4136   -2.3675   -2.2792 H   0  0  0  0  0  0  0  0  0  0  0  0
    5.8124   -0.6752   -0.7144 H   0  0  0  0  0  0  0  0  0  0  0  0
    4.2761   -2.2959    3.2324 H   0  0  0  0  0  0  0  0  0  0  0  0
    5.7594   -2.2608    5.1009 H   0  0  0  0  0  0  0  0  0  0  0  0
    9.4933   -1.8559    4.7724 H   0  0  0  0  0  0  0  0  0  0  0  0
   10.0852   -1.4518    6.8989 H   0  0  0  0  0  0  0  0  0  0  0  0
    9.8690   -0.1115    9.2665 H   0  0  0  0  0  0  0  0  0  0  0  0
    8.8076    1.3342   11.2096 H   0  0  0  0  0  0  0  0  0  0  0  0
   10.3853    0.6594   11.6450 H   0  0  0  0  0  0  0  0  0  0  0  0
    9.2896    1.2340   12.9075 H   0  0  0  0  0  0  0  0  0  0  0  0
    6.6640    0.0626   11.7393 H   0  0  0  0  0  0  0  0  0  0  0  0
    7.1607    0.0058   13.4383 H   0  0  0  0  0  0  0  0  0  0  0  0
    6.7235   -1.4824   12.5942 H   0  0  0  0  0  0  0  0  0  0  0  0
   10.5033   -1.6241   12.8709 H   0  0  0  0  0  0  0  0  0  0  0  0
    9.0105   -2.4726   13.2897 H   0  0  0  0  0  0  0  0  0  0  0  0
    9.4144   -0.9542   14.0979 H   0  0  0  0  0  0  0  0  0  0  0  0
    7.9250   -4.9671    9.7839 H   0  0  0  0  0  0  0  0  0  0  0  0
    8.7359   -4.7110    8.2166 H   0  0  0  0  0  0  0  0  0  0  0  0
    7.0020   -4.2718    8.4312 H   0  0  0  0  0  0  0  0  0  0  0  0
    9.1381   -1.7752    2.4282 H   0  0  0  0  0  0  0  0  0  0  0  0
    7.6043   -1.8121    0.5385 H   0  0  0  0  0  0  0  0  0  0  0  0
    0.5906   -3.9633   -2.0443 H   0  0  0  0  0  0  0  0  0  0  0  0
  1  2  1  0  0  0  0
  1 33  1  0  0  0  0
  1 34  1  0  0  0  0
  1 35  1  0  0  0  0
  2  3  1  0  0  0  0
  2 32  1  0  0  0  0
  3  4  2  0  0  0  0
  3 36  1  0  0  0  0
  4  5  1  0  0  0  0
  4 31  1  0  0  0  0
  5  6  1  0  0  0  0
  5 30  2  0  0  0  0
  6  7  2  0  0  0  0
  6 37  1  0  0  0  0
  7  8  1  0  0  0  0
  8  9  2  0  0  0  0
  8 38  1  0  0  0  0
  9 10  1  0  0  0  0
  9 30  1  0  0  0  0
 10 11  1  0  0  0  0
 10 29  2  0  0  0  0
 11 12  2  0  0  0  0
 11 39  1  0  0  0  0
 12 13  1  0  0  0  0
 12 40  1  0  0  0  0
 13 14  1  0  0  0  0
 13 28  2  0  0  0  0
 14 15  1  0  0  0  0
 14 41  1  0  0  0  0
 15 16  2  0  0  0  0
 15 17  1  0  0  0  0
 17 18  1  0  0  0  0
 17 42  1  0  0  0  0
 18 19  2  0  0  0  0
 18 26  1  0  0  0  0
 19 20  1  0  0  0  0
 19 43  1  0  0  0  0
 20 21  1  0  0  0  0
 20 25  2  0  0  0  0
 21 22  1  0  0  0  0
 21 23  1  0  0  0  0
 21 24  1  0  0  0  0
 22 44  1  0  0  0  0
 22 45  1  0  0  0  0
 22 46  1  0  0  0  0
 23 47  1  0  0  0  0
 23 48  1  0  0  0  0
 23 49  1  0  0  0  0
 24 50  1  0  0  0  0
 24 51  1  0  0  0  0
 24 52  1  0  0  0  0
 25 26  1  0  0  0  0
 26 27  1  0  0  0  0
 27 53  1  0  0  0  0
 27 54  1  0  0  0  0
 27 55  1  0  0  0  0
 28 29  1  0  0  0  0
 28 56  1  0  0  0  0
 29 57  1  0  0  0  0
 31 32  2  0  0  0  0
 31 58  1  0  0  0  0
M  END
$$$$
