CHEMBL574738
 OpenBabel04072215383D

 68 71  0  0  0  0  0  0  0  0999 V2000
    1.2996    1.1303   -0.0452 C   0  0  0  0  0  0  0  0  0  0  0  0
    1.9680   -0.0893   -0.6642 C   0  0  0  0  0  0  0  0  0  0  0  0
    2.7519   -0.8995    0.2769 N   0  0  0  0  0  0  0  0  0  0  0  0
    3.4244   -1.9964   -0.4514 C   0  0  0  0  0  0  0  0  0  0  0  0
    2.5002   -3.1957   -0.7849 C   0  0  0  0  0  0  0  0  0  0  0  0
    1.8531   -3.8138    0.3959 N   0  0  0  0  0  0  0  0  0  0  0  0
    2.8015   -4.4921    1.3053 C   0  0  0  0  0  0  0  0  0  0  0  0
    3.6005   -5.6067    0.6475 C   0  0  0  0  0  0  0  0  0  0  0  0
    4.8439   -5.2462    0.1069 C   0  0  0  0  0  0  0  0  0  0  0  0
    5.6097   -6.1378   -0.6330 C   0  0  0  0  0  0  0  0  0  0  0  0
    5.1906   -7.4442   -0.8345 C   0  0  0  0  0  0  0  0  0  0  0  0
    5.9059   -8.3512   -1.6576 N   0  0  0  0  0  0  0  0  0  0  0  0
    6.8556   -7.9578   -2.5923 C   0  0  0  0  0  0  0  0  0  0  0  0
    7.1732   -6.7898   -2.8001 O   0  0  0  0  0  0  0  0  0  0  0  0
    7.3684   -9.0094   -3.3322 N   0  0  0  0  0  0  0  0  0  0  0  0
    8.3362   -8.7237   -4.3317 C   0  0  0  0  0  0  0  0  0  0  0  0
    9.4167   -7.8733   -4.0597 C   0  0  0  0  0  0  0  0  0  0  0  0
   10.2646   -7.4477   -5.0829 C   0  0  0  0  0  0  0  0  0  0  0  0
   10.0626   -7.9033   -6.3855 C   0  0  0  0  0  0  0  0  0  0  0  0
   10.7800   -7.4539   -7.4718 O   0  0  0  0  0  0  0  0  0  0  0  0
   12.1400   -7.2054   -7.3143 C   0  0  0  0  0  0  0  0  0  0  0  0
   12.6890   -6.2541   -8.1468 C   0  0  0  0  0  0  0  0  0  0  0  0
   14.0432   -6.0248   -8.0102 C   0  0  0  0  0  0  0  0  0  0  0  0
   14.7221   -5.0421   -8.7068 N   0  0  0  0  0  0  0  0  0  0  0  0
   14.4960   -4.8397  -10.1219 C   0  0  0  0  0  0  0  0  0  0  0  0
   14.7775   -6.6824   -7.1007 N   0  0  0  0  0  0  0  0  0  0  0  0
   14.1436   -7.5931   -6.3470 C   0  0  0  0  0  0  0  0  0  0  0  0
   12.8490   -7.9113   -6.4219 N   0  0  0  0  0  0  0  0  0  0  0  0
    9.0049   -8.7804   -6.6538 C   0  0  0  0  0  0  0  0  0  0  0  0
    8.1590   -9.2151   -5.6254 C   0  0  0  0  0  0  0  0  0  0  0  0
    4.0035   -7.8569   -0.2208 C   0  0  0  0  0  0  0  0  0  0  0  0
    3.1763   -6.9443    0.4994 C   0  0  0  0  0  0  0  0  0  0  0  0
    1.8817   -7.4964    1.0581 C   0  0  0  0  0  0  0  0  0  0  0  0
    1.0750   -6.6163    1.7043 F   0  0  0  0  0  0  0  0  0  0  0  0
    1.1069   -8.0680    0.0917 F   0  0  0  0  0  0  0  0  0  0  0  0
    2.1197   -8.4941    1.9617 F   0  0  0  0  0  0  0  0  0  0  0  0
    1.1372   -2.7262    1.1104 C   0  0  0  0  0  0  0  0  0  0  0  0
    1.9881   -1.4599    1.4114 C   0  0  0  0  0  0  0  0  0  0  0  0
    0.9088    1.7754   -0.8396 H   0  0  0  0  0  0  0  0  0  0  0  0
    2.0074    1.7195    0.5464 H   0  0  0  0  0  0  0  0  0  0  0  0
    0.4554    0.8478    0.5900 H   0  0  0  0  0  0  0  0  0  0  0  0
    2.6570    0.2925   -1.4300 H   0  0  0  0  0  0  0  0  0  0  0  0
    1.2111   -0.6831   -1.1864 H   0  0  0  0  0  0  0  0  0  0  0  0
    4.2642   -2.3248    0.1675 H   0  0  0  0  0  0  0  0  0  0  0  0
    3.8860   -1.6247   -1.3744 H   0  0  0  0  0  0  0  0  0  0  0  0
    3.0423   -3.9390   -1.3772 H   0  0  0  0  0  0  0  0  0  0  0  0
    1.7049   -2.8571   -1.4627 H   0  0  0  0  0  0  0  0  0  0  0  0
    2.2696   -4.8981    2.1717 H   0  0  0  0  0  0  0  0  0  0  0  0
    3.5110   -3.7818    1.7482 H   0  0  0  0  0  0  0  0  0  0  0  0
    5.2262   -4.2338    0.2114 H   0  0  0  0  0  0  0  0  0  0  0  0
    6.5381   -5.7524   -1.0395 H   0  0  0  0  0  0  0  0  0  0  0  0
    5.6262   -9.3190   -1.6531 H   0  0  0  0  0  0  0  0  0  0  0  0
    6.7068   -9.7400   -3.5531 H   0  0  0  0  0  0  0  0  0  0  0  0
    9.5829   -7.4951   -3.0534 H   0  0  0  0  0  0  0  0  0  0  0  0
   11.0537   -6.7416   -4.8477 H   0  0  0  0  0  0  0  0  0  0  0  0
   12.0710   -5.7013   -8.8381 H   0  0  0  0  0  0  0  0  0  0  0  0
   15.7058   -5.1316   -8.4579 H   0  0  0  0  0  0  0  0  0  0  0  0
   13.4885   -5.1030  -10.4558 H   0  0  0  0  0  0  0  0  0  0  0  0
   15.2178   -5.4129  -10.7125 H   0  0  0  0  0  0  0  0  0  0  0  0
   14.6470   -3.7789  -10.3511 H   0  0  0  0  0  0  0  0  0  0  0  0
   14.7303   -8.1079   -5.6005 H   0  0  0  0  0  0  0  0  0  0  0  0
    8.8182   -9.0995   -7.6752 H   0  0  0  0  0  0  0  0  0  0  0  0
    7.3198   -9.8583   -5.8689 H   0  0  0  0  0  0  0  0  0  0  0  0
    3.6682   -8.8883   -0.3274 H   0  0  0  0  0  0  0  0  0  0  0  0
    0.7115   -3.1104    2.0460 H   0  0  0  0  0  0  0  0  0  0  0  0
    0.2762   -2.4268    0.4985 H   0  0  0  0  0  0  0  0  0  0  0  0
    2.7171   -1.7174    2.1915 H   0  0  0  0  0  0  0  0  0  0  0  0
    1.3549   -0.6989    1.8787 H   0  0  0  0  0  0  0  0  0  0  0  0
  1  2  1  0  0  0  0
  1 39  1  0  0  0  0
  1 40  1  0  0  0  0
  1 41  1  0  0  0  0
  2  3  1  0  0  0  0
  2 42  1  0  0  0  0
  2 43  1  0  0  0  0
  3  4  1  0  0  0  0
  3 38  1  0  0  0  0
  4  5  1  0  0  0  0
  4 44  1  0  0  0  0
  4 45  1  0  0  0  0
  5  6  1  0  0  0  0
  5 46  1  0  0  0  0
  5 47  1  0  0  0  0
  6  7  1  0  0  0  0
  6 37  1  0  0  0  0
  7  8  1  0  0  0  0
  7 48  1  0  0  0  0
  7 49  1  0  0  0  0
  8  9  1  0  0  0  0
  8 32  2  0  0  0  0
  9 10  2  0  0  0  0
  9 50  1  0  0  0  0
 10 11  1  0  0  0  0
 10 51  1  0  0  0  0
 11 12  1  0  0  0  0
 11 31  2  0  0  0  0
 12 13  1  0  0  0  0
 12 52  1  0  0  0  0
 13 14  2  0  0  0  0
 13 15  1  0  0  0  0
 15 16  1  0  0  0  0
 15 53  1  0  0  0  0
 16 17  1  0  0  0  0
 16 30  2  0  0  0  0
 17 18  2  0  0  0  0
 17 54  1  0  0  0  0
 18 19  1  0  0  0  0
 18 55  1  0  0  0  0
 19 20  1  0  0  0  0
 19 29  2  0  0  0  0
 20 21  1  0  0  0  0
 21 22  1  0  0  0  0
 21 28  2  0  0  0  0
 22 23  2  0  0  0  0
 22 56  1  0  0  0  0
 23 24  1  0  0  0  0
 23 26  1  0  0  0  0
 24 25  1  0  0  0  0
 24 57  1  0  0  0  0
 25 58  1  0  0  0  0
 25 59  1  0  0  0  0
 25 60  1  0  0  0  0
 26 27  2  0  0  0  0
 27 28  1  0  0  0  0
 27 61  1  0  0  0  0
 29 30  1  0  0  0  0
 29 62  1  0  0  0  0
 30 63  1  0  0  0  0
 31 32  1  0  0  0  0
 31 64  1  0  0  0  0
 32 33  1  0  0  0  0
 33 34  1  0  0  0  0
 33 35  1  0  0  0  0
 33 36  1  0  0  0  0
 37 38  1  0  0  0  0
 37 65  1  0  0  0  0
 37 66  1  0  0  0  0
 38 67  1  0  0  0  0
 38 68  1  0  0  0  0
M  END
$$$$
