CHEMBL3589812
 OpenBabel04072215363D

 43 46  0  0  0  0  0  0  0  0999 V2000
    2.4647   -0.8978   -0.5964 O   0  0  0  0  0  0  0  0  0  0  0  0
    2.0597   -0.1441    0.2815 C   0  0  0  0  0  0  0  0  0  0  0  0
    0.7324    0.2013    0.4302 N   0  0  0  0  0  0  0  0  0  0  0  0
   -0.3120   -0.1989   -0.4397 C   0  0  0  0  0  0  0  0  0  0  0  0
   -0.1776   -1.1933   -1.4210 C   0  0  0  0  0  0  0  0  0  0  0  0
   -1.2201   -1.4721   -2.3070 C   0  0  0  0  0  0  0  0  0  0  0  0
   -2.4088   -0.7721   -2.1976 C   0  0  0  0  0  0  0  0  0  0  0  0
   -3.4025   -1.0214   -3.0590 F   0  0  0  0  0  0  0  0  0  0  0  0
   -2.5818    0.1880   -1.2075 C   0  0  0  0  0  0  0  0  0  0  0  0
   -1.5344    0.4714   -0.3253 C   0  0  0  0  0  0  0  0  0  0  0  0
    2.8825    0.4914    1.2074 N   0  0  0  0  0  0  0  0  0  0  0  0
    4.2929    0.5231    1.1020 C   0  0  0  0  0  0  0  0  0  0  0  0
    4.9117    0.1773   -0.0866 C   0  0  0  0  0  0  0  0  0  0  0  0
    6.2844    0.1549   -0.1799 C   0  0  0  0  0  0  0  0  0  0  0  0
    7.1059    0.6705    0.8243 C   0  0  0  0  0  0  0  0  0  0  0  0
    8.4950    0.7917    0.5709 N   0  0  0  0  0  0  0  0  0  0  0  0
    8.7796    1.3128   -0.5963 C   0  0  0  0  0  0  0  0  0  0  0  0
    8.0457    2.5133   -1.2621 C   0  0  0  0  0  0  0  0  0  0  0  0
    7.7153    3.5303   -0.7077 O   0  0  0  0  0  0  0  0  0  0  0  0
    7.8123    2.1244   -2.5669 N   0  0  0  0  0  0  0  0  0  0  0  0
    8.3270    0.8526   -2.7942 C   0  0  0  0  0  0  0  0  0  0  0  0
    7.8891   -0.0338   -3.7602 C   0  0  0  0  0  0  0  0  0  0  0  0
    8.2804   -1.3745   -3.6308 C   0  0  0  0  0  0  0  0  0  0  0  0
    9.1418   -1.7819   -2.5918 C   0  0  0  0  0  0  0  0  0  0  0  0
    9.5541   -3.4469   -2.4442 Cl  0  0  0  0  0  0  0  0  0  0  0  0
    9.5783   -0.8840   -1.6183 C   0  0  0  0  0  0  0  0  0  0  0  0
    9.1309    0.4220   -1.7263 C   0  0  0  0  0  0  0  0  0  0  0  0
    6.5053    0.9980    2.0364 C   0  0  0  0  0  0  0  0  0  0  0  0
    5.1003    0.9130    2.1807 C   0  0  0  0  0  0  0  0  0  0  0  0
    0.5331    0.9566    1.0674 H   0  0  0  0  0  0  0  0  0  0  0  0
    0.7308   -1.7751   -1.5397 H   0  0  0  0  0  0  0  0  0  0  0  0
   -1.0981   -2.2231   -3.0814 H   0  0  0  0  0  0  0  0  0  0  0  0
   -3.5247    0.7195   -1.1390 H   0  0  0  0  0  0  0  0  0  0  0  0
   -1.6815    1.2382    0.4295 H   0  0  0  0  0  0  0  0  0  0  0  0
    2.4760    0.7857    2.0810 H   0  0  0  0  0  0  0  0  0  0  0  0
    4.3738   -0.0829   -0.9899 H   0  0  0  0  0  0  0  0  0  0  0  0
    6.6841   -0.2516   -1.0961 H   0  0  0  0  0  0  0  0  0  0  0  0
    7.1570    2.6210   -3.1571 H   0  0  0  0  0  0  0  0  0  0  0  0
    7.1443    0.2493   -4.4990 H   0  0  0  0  0  0  0  0  0  0  0  0
    7.8536   -2.1217   -4.2982 H   0  0  0  0  0  0  0  0  0  0  0  0
   10.1156   -1.2164   -0.7368 H   0  0  0  0  0  0  0  0  0  0  0  0
    7.1233    1.3144    2.8720 H   0  0  0  0  0  0  0  0  0  0  0  0
    4.6613    1.1578    3.1437 H   0  0  0  0  0  0  0  0  0  0  0  0
  1  2  2  0  0  0  0
  2  3  1  0  0  0  0
  2 11  1  0  0  0  0
  3  4  1  0  0  0  0
  3 30  1  0  0  0  0
  4  5  1  0  0  0  0
  4 10  2  0  0  0  0
  5  6  2  0  0  0  0
  5 31  1  0  0  0  0
  6  7  1  0  0  0  0
  6 32  1  0  0  0  0
  7  8  1  0  0  0  0
  7  9  2  0  0  0  0
  9 10  1  0  0  0  0
  9 33  1  0  0  0  0
 10 34  1  0  0  0  0
 11 12  1  0  0  0  0
 11 35  1  0  0  0  0
 12 13  1  0  0  0  0
 12 29  2  0  0  0  0
 13 14  2  0  0  0  0
 13 36  1  0  0  0  0
 14 15  1  0  0  0  0
 14 37  1  0  0  0  0
 15 16  1  0  0  0  0
 15 28  2  0  0  0  0
 16 17  2  0  0  0  0
 17 18  1  0  0  0  0
 17 27  1  0  0  0  0
 18 19  2  0  0  0  0
 18 20  1  0  0  0  0
 20 21  1  0  0  0  0
 20 38  1  0  0  0  0
 21 22  1  0  0  0  0
 21 27  2  0  0  0  0
 22 23  2  0  0  0  0
 22 39  1  0  0  0  0
 23 24  1  0  0  0  0
 23 40  1  0  0  0  0
 24 25  1  0  0  0  0
 24 26  2  0  0  0  0
 26 27  1  0  0  0  0
 26 41  1  0  0  0  0
 28 29  1  0  0  0  0
 28 42  1  0  0  0  0
 29 43  1  0  0  0  0
M  END
$$$$
