CHEMBL4072383
 OpenBabel04072215383D

 52 56  0  0  0  0  0  0  0  0999 V2000
    4.0716   -1.2511   -1.0474 C   0  0  0  0  0  0  0  0  0  0  0  0
    5.0616   -0.2949   -0.6743 O   0  0  0  0  0  0  0  0  0  0  0  0
    5.0143    0.1016    0.6351 C   0  0  0  0  0  0  0  0  0  0  0  0
    4.4755   -0.6577    1.6647 C   0  0  0  0  0  0  0  0  0  0  0  0
    4.4795   -0.1618    2.9636 C   0  0  0  0  0  0  0  0  0  0  0  0
    5.1098    1.0490    3.2900 C   0  0  0  0  0  0  0  0  0  0  0  0
    5.6156    1.8380    2.2441 C   0  0  0  0  0  0  0  0  0  0  0  0
    5.5685    1.3521    0.9231 C   0  0  0  0  0  0  0  0  0  0  0  0
    6.1711    3.2132    2.5150 C   0  0  0  0  0  0  0  0  0  0  0  0
    6.4466    3.4688    3.9960 C   0  0  0  0  0  0  0  0  0  0  0  0
    5.3484    2.8698    4.8734 C   0  0  0  0  0  0  0  0  0  0  0  0
    5.2856    1.4256    4.6392 N   0  0  0  0  0  0  0  0  0  0  0  0
    5.4049    0.5772    5.7537 C   0  0  0  0  0  0  0  0  0  0  0  0
    4.9518    0.9468    6.9777 N   0  0  0  0  0  0  0  0  0  0  0  0
    4.9535    0.0567    7.9854 C   0  0  0  0  0  0  0  0  0  0  0  0
    4.3887    0.4852    9.1725 N   0  0  0  0  0  0  0  0  0  0  0  0
    5.4308   -1.1911    7.9605 N   0  0  0  0  0  0  0  0  0  0  0  0
    5.9242   -1.5699    6.7622 C   0  0  0  0  0  0  0  0  0  0  0  0
    6.4308   -2.8364    6.3291 C   0  0  0  0  0  0  0  0  0  0  0  0
    6.5747   -4.0905    7.1229 C   0  0  0  0  0  0  0  0  0  0  0  0
    5.2770   -4.8487    6.9771 C   0  0  0  0  0  0  0  0  0  0  0  0
    5.0613   -5.7317    5.9019 C   0  0  0  0  0  0  0  0  0  0  0  0
    3.8514   -6.4108    5.7778 C   0  0  0  0  0  0  0  0  0  0  0  0
    2.8418   -6.2242    6.7176 C   0  0  0  0  0  0  0  0  0  0  0  0
    3.0457   -5.3603    7.7928 C   0  0  0  0  0  0  0  0  0  0  0  0
    4.2545   -4.6756    7.9179 C   0  0  0  0  0  0  0  0  0  0  0  0
    6.7806   -2.6861    4.9984 C   0  0  0  0  0  0  0  0  0  0  0  0
    6.5733   -1.3820    4.6532 N   0  0  0  0  0  0  0  0  0  0  0  0
    5.9520   -0.7061    5.6789 C   0  0  0  0  0  0  0  0  0  0  0  0
    4.1407   -1.4051   -2.1276 H   0  0  0  0  0  0  0  0  0  0  0  0
    3.0662   -0.8779   -0.8217 H   0  0  0  0  0  0  0  0  0  0  0  0
    4.2459   -2.2208   -0.5693 H   0  0  0  0  0  0  0  0  0  0  0  0
    4.0625   -1.6484    1.5049 H   0  0  0  0  0  0  0  0  0  0  0  0
    4.0146   -0.7658    3.7417 H   0  0  0  0  0  0  0  0  0  0  0  0
    5.9685    1.9524    0.1089 H   0  0  0  0  0  0  0  0  0  0  0  0
    5.4424    3.9490    2.1522 H   0  0  0  0  0  0  0  0  0  0  0  0
    7.0997    3.3623    1.9506 H   0  0  0  0  0  0  0  0  0  0  0  0
    6.5331    4.5472    4.1740 H   0  0  0  0  0  0  0  0  0  0  0  0
    7.4107    3.0209    4.2692 H   0  0  0  0  0  0  0  0  0  0  0  0
    4.3780    3.3279    4.6413 H   0  0  0  0  0  0  0  0  0  0  0  0
    5.5715    3.1192    5.9178 H   0  0  0  0  0  0  0  0  0  0  0  0
    4.3975    1.4926    9.2273 H   0  0  0  0  0  0  0  0  0  0  0  0
    4.7469   -0.0449    9.9536 H   0  0  0  0  0  0  0  0  0  0  0  0
    6.7932   -3.8765    8.1758 H   0  0  0  0  0  0  0  0  0  0  0  0
    7.4063   -4.6952    6.7436 H   0  0  0  0  0  0  0  0  0  0  0  0
    5.8376   -5.8816    5.1556 H   0  0  0  0  0  0  0  0  0  0  0  0
    3.6914   -7.0819    4.9334 H   0  0  0  0  0  0  0  0  0  0  0  0
    1.8935   -6.7474    6.6156 H   0  0  0  0  0  0  0  0  0  0  0  0
    2.2616   -5.2126    8.5308 H   0  0  0  0  0  0  0  0  0  0  0  0
    4.3944   -3.9914    8.7549 H   0  0  0  0  0  0  0  0  0  0  0  0
    7.1629   -3.3939    4.2758 H   0  0  0  0  0  0  0  0  0  0  0  0
    6.7500   -0.9852    3.7389 H   0  0  0  0  0  0  0  0  0  0  0  0
  1  2  1  0  0  0  0
  1 30  1  0  0  0  0
  1 31  1  0  0  0  0
  1 32  1  0  0  0  0
  2  3  1  0  0  0  0
  3  4  1  0  0  0  0
  3  8  2  0  0  0  0
  4  5  2  0  0  0  0
  4 33  1  0  0  0  0
  5  6  1  0  0  0  0
  5 34  1  0  0  0  0
  6  7  2  0  0  0  0
  6 12  1  0  0  0  0
  7  8  1  0  0  0  0
  7  9  1  0  0  0  0
  8 35  1  0  0  0  0
  9 10  1  0  0  0  0
  9 36  1  0  0  0  0
  9 37  1  0  0  0  0
 10 11  1  0  0  0  0
 10 38  1  0  0  0  0
 10 39  1  0  0  0  0
 11 12  1  0  0  0  0
 11 40  1  0  0  0  0
 11 41  1  0  0  0  0
 12 13  1  0  0  0  0
 13 14  1  0  0  0  0
 13 29  2  0  0  0  0
 14 15  2  0  0  0  0
 15 16  1  0  0  0  0
 15 17  1  0  0  0  0
 16 42  1  0  0  0  0
 16 43  1  0  0  0  0
 17 18  2  0  0  0  0
 18 19  1  0  0  0  0
 18 29  1  0  0  0  0
 19 20  1  0  0  0  0
 19 27  2  0  0  0  0
 20 21  1  0  0  0  0
 20 44  1  0  0  0  0
 20 45  1  0  0  0  0
 21 22  1  0  0  0  0
 21 26  2  0  0  0  0
 22 23  2  0  0  0  0
 22 46  1  0  0  0  0
 23 24  1  0  0  0  0
 23 47  1  0  0  0  0
 24 25  2  0  0  0  0
 24 48  1  0  0  0  0
 25 26  1  0  0  0  0
 25 49  1  0  0  0  0
 26 50  1  0  0  0  0
 27 28  1  0  0  0  0
 27 51  1  0  0  0  0
 28 29  1  0  0  0  0
 28 52  1  0  0  0  0
M  END
$$$$
