CHEMBL3964131
 OpenBabel04072215373D

 74 78  0  0  1  0  0  0  0  0999 V2000
   -8.0647   16.3083    2.1805 C   0  0  0  0  0  0  0  0  0  0  0  0
   -7.7904   15.0532    1.4008 C   0  0  0  0  0  0  0  0  0  0  0  0
   -7.4093   15.1504    0.0595 C   0  0  0  0  0  0  0  0  0  0  0  0
   -7.1228   14.0006   -0.6632 C   0  0  0  0  0  0  0  0  0  0  0  0
   -7.2226   12.7494   -0.0596 C   0  0  0  0  0  0  0  0  0  0  0  0
   -6.7991   11.7178   -0.7985 F   0  0  0  0  0  0  0  0  0  0  0  0
   -7.6483   12.6032    1.2686 C   0  0  0  0  0  0  0  0  0  0  0  0
   -7.8317   11.3525    1.9299 N   0  0  0  0  0  0  0  0  0  0  0  0
   -7.9732   10.1281    1.3079 C   0  0  0  0  0  0  0  0  0  0  0  0
   -7.9675    9.9357    0.0903 O   0  0  0  0  0  0  0  0  0  0  0  0
   -8.2118    9.0873    2.1977 N   0  0  0  0  0  0  0  0  0  0  0  0
   -8.4073    7.7764    1.6746 C   0  0  0  0  0  0  0  0  0  0  0  0
   -7.4679    7.1635    0.8365 C   0  0  0  0  0  0  0  0  0  0  0  0
   -7.7012    5.8745    0.3416 C   0  0  0  0  0  0  0  0  0  0  0  0
   -8.8783    5.1962    0.6668 C   0  0  0  0  0  0  0  0  0  0  0  0
   -9.0397    3.9324    0.1401 O   0  0  0  0  0  0  0  0  0  0  0  0
   -9.7117    2.9725    0.8783 C   0  0  0  0  0  0  0  0  0  0  0  0
   -9.6826    2.9178    2.2697 C   0  0  0  0  0  0  0  0  0  0  0  0
  -10.3949    1.9319    2.9246 C   0  0  0  0  0  0  0  0  0  0  0  0
  -11.0957    0.9590    2.3212 N   0  0  0  0  0  0  0  0  0  0  0  0
  -11.0799    0.9712    0.9631 C   0  0  0  0  0  0  0  0  0  0  0  0
  -11.7256    0.0052    0.1412 C   0  0  0  0  0  0  0  0  0  0  0  0
  -11.5593    0.2453   -1.2083 C   0  0  0  0  0  0  0  0  0  0  0  0
  -12.0875   -0.5575   -2.3059 C   0  0  0  0  0  0  0  0  0  0  0  0
  -12.7800   -1.5570   -2.1260 O   0  0  0  0  0  0  0  0  0  0  0  0
  -11.7657   -0.1196   -3.5744 N   0  0  0  0  0  0  0  0  0  0  0  0
  -12.2698   -0.7499   -4.7774 C   0  0  0  0  0  0  0  0  0  0  0  0
  -13.6330   -0.1724   -5.1692 C   0  0  0  0  0  0  0  0  0  0  0  0
  -14.1649   -0.8056   -6.4575 C   0  0  0  0  0  0  0  0  0  0  0  0
  -15.4618   -0.2892   -6.9157 N   0  0  0  0  0  0  0  0  0  0  0  0
  -16.6020   -0.4530   -5.9930 C   0  0  0  0  0  0  0  0  0  0  0  0
  -17.2530   -1.8477   -5.9880 C   0  0  0  0  0  0  0  0  0  0  0  0
  -17.5977   -2.3109   -7.2994 O   0  0  0  0  0  0  0  0  0  0  0  0
  -16.4956   -2.2445   -8.2280 C   0  0  3  0  0  0  0  0  0  0  0  0
  -15.4993   -3.3873   -7.9806 C   0  0  0  0  0  0  0  0  0  0  0  0
  -16.1207   -4.6557   -8.1842 O   0  0  0  0  0  0  0  0  0  0  0  0
  -15.8665   -0.8290   -8.2339 C   0  0  0  0  0  0  0  0  0  0  0  0
  -10.6237    1.6578   -1.4676 S   0  0  0  0  0  0  0  0  0  0  0  0
  -10.4136    1.9443    0.2159 C   0  0  0  0  0  0  0  0  0  0  0  0
   -9.8460    5.8337    1.4526 C   0  0  0  0  0  0  0  0  0  0  0  0
   -9.5872    7.0953    1.9763 C   0  0  0  0  0  0  0  0  0  0  0  0
  -10.5198    7.6856    2.7396 F   0  0  0  0  0  0  0  0  0  0  0  0
   -7.9102   13.7793    1.9993 C   0  0  0  0  0  0  0  0  0  0  0  0
   -7.8974   17.2006    1.5654 H   0  0  0  0  0  0  0  0  0  0  0  0
   -7.3931   16.3739    3.0413 H   0  0  0  0  0  0  0  0  0  0  0  0
   -9.1043   16.3308    2.5198 H   0  0  0  0  0  0  0  0  0  0  0  0
   -7.3127   16.1178   -0.4272 H   0  0  0  0  0  0  0  0  0  0  0  0
   -6.7967   14.0603   -1.6973 H   0  0  0  0  0  0  0  0  0  0  0  0
   -7.9766   11.3794    2.9301 H   0  0  0  0  0  0  0  0  0  0  0  0
   -8.8528    9.3352    2.9403 H   0  0  0  0  0  0  0  0  0  0  0  0
   -6.5536    7.6851    0.5601 H   0  0  0  0  0  0  0  0  0  0  0  0
   -6.9619    5.4041   -0.3059 H   0  0  0  0  0  0  0  0  0  0  0  0
   -9.1339    3.6450    2.8597 H   0  0  0  0  0  0  0  0  0  0  0  0
  -10.4165    1.9060    4.0111 H   0  0  0  0  0  0  0  0  0  0  0  0
  -12.2840   -0.8367    0.5338 H   0  0  0  0  0  0  0  0  0  0  0  0
  -11.2823    0.7658   -3.6554 H   0  0  0  0  0  0  0  0  0  0  0  0
  -12.3408   -1.8319   -4.6104 H   0  0  0  0  0  0  0  0  0  0  0  0
  -11.5268   -0.5786   -5.5634 H   0  0  0  0  0  0  0  0  0  0  0  0
  -13.5485    0.9140   -5.2926 H   0  0  0  0  0  0  0  0  0  0  0  0
  -14.3263   -0.3530   -4.3408 H   0  0  0  0  0  0  0  0  0  0  0  0
  -14.1785   -1.8815   -6.3044 H   0  0  0  0  0  0  0  0  0  0  0  0
  -13.4280   -0.6104   -7.2487 H   0  0  0  0  0  0  0  0  0  0  0  0
  -17.3683    0.2645   -6.3178 H   0  0  0  0  0  0  0  0  0  0  0  0
  -16.3521   -0.1541   -4.9712 H   0  0  0  0  0  0  0  0  0  0  0  0
  -18.1892   -1.8005   -5.4202 H   0  0  0  0  0  0  0  0  0  0  0  0
  -16.6166   -2.5884   -5.4958 H   0  0  0  0  0  0  0  0  0  0  0  0
  -16.9451   -2.4151   -9.2144 H   0  0  0  0  0  0  0  0  0  0  0  0
  -15.1341   -3.4180   -6.9559 H   0  0  0  0  0  0  0  0  0  0  0  0
  -14.6445   -3.3117   -8.6591 H   0  0  0  0  0  0  0  0  0  0  0  0
  -16.8567   -4.6936   -7.5442 H   0  0  0  0  0  0  0  0  0  0  0  0
  -16.6325   -0.1400   -8.6199 H   0  0  0  0  0  0  0  0  0  0  0  0
  -15.0397   -0.7719   -8.9513 H   0  0  0  0  0  0  0  0  0  0  0  0
  -10.7945    5.3624    1.6779 H   0  0  0  0  0  0  0  0  0  0  0  0
   -8.2316   13.7215    3.0371 H   0  0  0  0  0  0  0  0  0  0  0  0
  1  2  1  0  0  0  0
  1 44  1  0  0  0  0
  1 45  1  0  0  0  0
  1 46  1  0  0  0  0
  2  3  1  0  0  0  0
  2 43  2  0  0  0  0
  3  4  2  0  0  0  0
  3 47  1  0  0  0  0
  4  5  1  0  0  0  0
  4 48  1  0  0  0  0
  5  6  1  0  0  0  0
  5  7  2  0  0  0  0
  7  8  1  0  0  0  0
  7 43  1  0  0  0  0
  8  9  1  0  0  0  0
  8 49  1  0  0  0  0
  9 10  2  0  0  0  0
  9 11  1  0  0  0  0
 11 12  1  0  0  0  0
 11 50  1  0  0  0  0
 12 13  1  0  0  0  0
 12 41  2  0  0  0  0
 13 14  2  0  0  0  0
 13 51  1  0  0  0  0
 14 15  1  0  0  0  0
 14 52  1  0  0  0  0
 15 16  1  0  0  0  0
 15 40  2  0  0  0  0
 16 17  1  0  0  0  0
 17 18  1  0  0  0  0
 17 39  2  0  0  0  0
 18 19  2  0  0  0  0
 18 53  1  0  0  0  0
 19 20  1  0  0  0  0
 19 54  1  0  0  0  0
 20 21  2  0  0  0  0
 21 22  1  0  0  0  0
 21 39  1  0  0  0  0
 22 23  2  0  0  0  0
 22 55  1  0  0  0  0
 23 24  1  0  0  0  0
 23 38  1  0  0  0  0
 24 25  2  0  0  0  0
 24 26  1  0  0  0  0
 26 27  1  0  0  0  0
 26 56  1  0  0  0  0
 27 28  1  0  0  0  0
 27 57  1  0  0  0  0
 27 58  1  0  0  0  0
 28 29  1  0  0  0  0
 28 59  1  0  0  0  0
 28 60  1  0  0  0  0
 29 30  1  0  0  0  0
 29 61  1  0  0  0  0
 29 62  1  0  0  0  0
 30 31  1  0  0  0  0
 30 37  1  0  0  0  0
 31 32  1  0  0  0  0
 31 63  1  0  0  0  0
 31 64  1  0  0  0  0
 32 33  1  0  0  0  0
 32 65  1  0  0  0  0
 32 66  1  0  0  0  0
 33 34  1  0  0  0  0
 34 35  1  0  0  0  0
 34 37  1  0  0  0  0
 34 67  1  0  0  0  0
 35 36  1  0  0  0  0
 35 68  1  0  0  0  0
 35 69  1  0  0  0  0
 36 70  1  0  0  0  0
 37 71  1  0  0  0  0
 37 72  1  0  0  0  0
 38 39  1  0  0  0  0
 40 41  1  0  0  0  0
 40 73  1  0  0  0  0
 41 42  1  0  0  0  0
 43 74  1  0  0  0  0
M  END
$$$$
