CHEMBL424323
 OpenBabel04072215383D

 58 63  0  0  0  0  0  0  0  0999 V2000
    6.8031   -1.6629    1.0327 C   0  0  0  0  0  0  0  0  0  0  0  0
    5.4663   -1.0207    0.7381 C   0  0  0  0  0  0  0  0  0  0  0  0
    5.6287   -0.2323   -0.4301 O   0  0  0  0  0  0  0  0  0  0  0  0
    4.4114    0.3888   -0.8077 C   0  0  0  0  0  0  0  0  0  0  0  0
    4.6539    1.1290   -2.0879 C   0  0  0  0  0  0  0  0  0  0  0  0
    5.0282    0.4224   -3.2354 C   0  0  0  0  0  0  0  0  0  0  0  0
    5.1259    1.0465   -4.4779 C   0  0  0  0  0  0  0  0  0  0  0  0
    4.8103    2.4125   -4.5630 C   0  0  0  0  0  0  0  0  0  0  0  0
    4.5471    3.1505   -3.3894 C   0  0  0  0  0  0  0  0  0  0  0  0
    4.4878    2.5124   -2.1464 C   0  0  0  0  0  0  0  0  0  0  0  0
    4.5058    4.4367   -3.8677 C   0  0  0  0  0  0  0  0  0  0  0  0
    4.9011    5.5887   -3.1514 C   0  0  0  0  0  0  0  0  0  0  0  0
    5.4261    6.6633   -3.9609 C   0  0  0  0  0  0  0  0  0  0  0  0
    5.3010    6.6173   -5.3645 C   0  0  0  0  0  0  0  0  0  0  0  0
    4.2408    5.8068   -5.7489 C   0  0  0  0  0  0  0  0  0  0  0  0
    4.3210    4.5418   -5.2156 C   0  0  0  0  0  0  0  0  0  0  0  0
    4.8350    3.3091   -5.6524 N   0  0  0  0  0  0  0  0  0  0  0  0
    5.8226    3.2129   -6.7279 C   0  0  0  0  0  0  0  0  0  0  0  0
    6.0873    1.9234   -7.5041 C   0  0  0  0  0  0  0  0  0  0  0  0
    4.8626    1.4424   -8.2526 C   0  0  0  0  0  0  0  0  0  0  0  0
    5.1624    0.2389   -8.9465 O   0  0  0  0  0  0  0  0  0  0  0  0
    3.7254    6.3305   -7.0234 C   0  0  0  0  0  0  0  0  0  0  0  0
    5.0487    6.5510   -7.6880 C   0  0  0  0  0  0  0  0  0  0  0  0
    5.2500    6.0940   -8.9883 C   0  0  0  0  0  0  0  0  0  0  0  0
    6.5135    5.6394   -9.2929 C   0  0  0  0  0  0  0  0  0  0  0  0
    7.5454    5.7452   -8.3352 C   0  0  0  0  0  0  0  0  0  0  0  0
    7.3363    6.2915   -7.0275 C   0  0  0  0  0  0  0  0  0  0  0  0
    6.0553    6.6969   -6.6558 C   0  0  0  0  0  0  0  0  0  0  0  0
    5.1998    7.8550   -3.1728 C   0  0  0  0  0  0  0  0  0  0  0  0
    5.2287    9.0537   -3.4644 O   0  0  0  0  0  0  0  0  0  0  0  0
    4.6242    7.4266   -1.9669 N   0  0  0  0  0  0  0  0  0  0  0  0
    4.4322    6.0015   -1.8350 C   0  0  0  0  0  0  0  0  0  0  0  0
    6.7540   -2.2676    1.9401 H   0  0  0  0  0  0  0  0  0  0  0  0
    7.5755   -0.8958    1.1514 H   0  0  0  0  0  0  0  0  0  0  0  0
    7.1123   -2.2973    0.1953 H   0  0  0  0  0  0  0  0  0  0  0  0
    5.1549   -0.3831    1.5724 H   0  0  0  0  0  0  0  0  0  0  0  0
    4.7047   -1.7892    0.5661 H   0  0  0  0  0  0  0  0  0  0  0  0
    4.0760    1.0678   -0.0151 H   0  0  0  0  0  0  0  0  0  0  0  0
    3.6274   -0.3609   -0.9751 H   0  0  0  0  0  0  0  0  0  0  0  0
    5.2525   -0.6402   -3.1632 H   0  0  0  0  0  0  0  0  0  0  0  0
    5.4213    0.4551   -5.3319 H   0  0  0  0  0  0  0  0  0  0  0  0
    4.2605    3.0821   -1.2509 H   0  0  0  0  0  0  0  0  0  0  0  0
    6.7727    3.5368   -6.2823 H   0  0  0  0  0  0  0  0  0  0  0  0
    5.5141    3.9385   -7.4686 H   0  0  0  0  0  0  0  0  0  0  0  0
    6.5169    1.1326   -6.8826 H   0  0  0  0  0  0  0  0  0  0  0  0
    6.8841    2.1211   -8.2388 H   0  0  0  0  0  0  0  0  0  0  0  0
    4.5329    2.1898   -8.9817 H   0  0  0  0  0  0  0  0  0  0  0  0
    4.0371    1.2394   -7.5656 H   0  0  0  0  0  0  0  0  0  0  0  0
    5.7966    0.4508   -9.6533 H   0  0  0  0  0  0  0  0  0  0  0  0
    3.2676    7.3169   -6.8259 H   0  0  0  0  0  0  0  0  0  0  0  0
    3.0139    5.6770   -7.5139 H   0  0  0  0  0  0  0  0  0  0  0  0
    4.3935    5.8752   -9.6202 H   0  0  0  0  0  0  0  0  0  0  0  0
    6.6573    5.0855  -10.2200 H   0  0  0  0  0  0  0  0  0  0  0  0
    8.4981    5.2775   -8.5837 H   0  0  0  0  0  0  0  0  0  0  0  0
    8.1386    6.1860   -6.3022 H   0  0  0  0  0  0  0  0  0  0  0  0
    4.0336    8.0894   -1.4808 H   0  0  0  0  0  0  0  0  0  0  0  0
    3.3636    5.7828   -1.7147 H   0  0  0  0  0  0  0  0  0  0  0  0
    5.0205    5.6232   -1.0042 H   0  0  0  0  0  0  0  0  0  0  0  0
  1  2  1  0  0  0  0
  1 33  1  0  0  0  0
  1 34  1  0  0  0  0
  1 35  1  0  0  0  0
  2  3  1  0  0  0  0
  2 36  1  0  0  0  0
  2 37  1  0  0  0  0
  3  4  1  0  0  0  0
  4  5  1  0  0  0  0
  4 38  1  0  0  0  0
  4 39  1  0  0  0  0
  5  6  1  0  0  0  0
  5 10  2  0  0  0  0
  6  7  2  0  0  0  0
  6 40  1  0  0  0  0
  7  8  1  0  0  0  0
  7 41  1  0  0  0  0
  8  9  2  0  0  0  0
  8 17  1  0  0  0  0
  9 10  1  0  0  0  0
  9 11  1  0  0  0  0
 10 42  1  0  0  0  0
 11 12  1  0  0  0  0
 11 16  2  0  0  0  0
 12 13  2  0  0  0  0
 12 32  1  0  0  0  0
 13 14  1  0  0  0  0
 13 29  1  0  0  0  0
 14 15  2  0  0  0  0
 14 28  1  0  0  0  0
 15 16  1  0  0  0  0
 15 22  1  0  0  0  0
 16 17  1  0  0  0  0
 17 18  1  0  0  0  0
 18 19  1  0  0  0  0
 18 43  1  0  0  0  0
 18 44  1  0  0  0  0
 19 20  1  0  0  0  0
 19 45  1  0  0  0  0
 19 46  1  0  0  0  0
 20 21  1  0  0  0  0
 20 47  1  0  0  0  0
 20 48  1  0  0  0  0
 21 49  1  0  0  0  0
 22 23  1  0  0  0  0
 22 50  1  0  0  0  0
 22 51  1  0  0  0  0
 23 24  1  0  0  0  0
 23 28  2  0  0  0  0
 24 25  2  0  0  0  0
 24 52  1  0  0  0  0
 25 26  1  0  0  0  0
 25 53  1  0  0  0  0
 26 27  2  0  0  0  0
 26 54  1  0  0  0  0
 27 28  1  0  0  0  0
 27 55  1  0  0  0  0
 29 30  2  0  0  0  0
 29 31  1  0  0  0  0
 31 32  1  0  0  0  0
 31 56  1  0  0  0  0
 32 57  1  0  0  0  0
 32 58  1  0  0  0  0
M  END
$$$$
