CHEMBL359507
 OpenBabel04072215363D

 45 47  0  0  0  0  0  0  0  0999 V2000
    2.2943   -1.6474    4.6152 C   0  0  0  0  0  0  0  0  0  0  0  0
    3.5238   -1.6214    3.8952 O   0  0  0  0  0  0  0  0  0  0  0  0
    3.8514   -0.3986    3.3849 C   0  0  0  0  0  0  0  0  0  0  0  0
    3.1732    0.6110    3.5223 O   0  0  0  0  0  0  0  0  0  0  0  0
    5.1160   -0.4254    2.6512 C   0  0  0  0  0  0  0  0  0  0  0  0
    5.8907   -1.5499    2.4440 C   0  0  0  0  0  0  0  0  0  0  0  0
    6.9800   -1.2070    1.7045 N   0  0  0  0  0  0  0  0  0  0  0  0
    7.9222   -2.0717    1.3122 N   0  0  0  0  0  0  0  0  0  0  0  0
    8.8746   -1.5266    0.6267 C   0  0  0  0  0  0  0  0  0  0  0  0
    8.9902   -0.2068    0.3052 N   0  0  0  0  0  0  0  0  0  0  0  0
    8.0787    0.6502    0.6776 C   0  0  0  0  0  0  0  0  0  0  0  0
    8.2022    1.9734    0.3201 N   0  0  0  0  0  0  0  0  0  0  0  0
    9.4035    2.6990    0.2074 C   0  0  0  0  0  0  0  0  0  0  0  0
   10.5818    2.3167    0.8437 C   0  0  0  0  0  0  0  0  0  0  0  0
   11.7482    3.0758    0.7163 C   0  0  0  0  0  0  0  0  0  0  0  0
   11.7915    4.2279   -0.0883 C   0  0  0  0  0  0  0  0  0  0  0  0
   13.0671    5.0534   -0.1735 C   0  0  0  0  0  0  0  0  0  0  0  0
   13.0632    6.1395    0.9053 C   0  0  0  0  0  0  0  0  0  0  0  0
   14.3607    4.2322   -0.0851 C   0  0  0  0  0  0  0  0  0  0  0  0
   10.6024    4.5945   -0.7368 C   0  0  0  0  0  0  0  0  0  0  0  0
   10.4815    5.6921   -1.5434 O   0  0  0  0  0  0  0  0  0  0  0  0
    9.4292    3.8475   -0.5883 C   0  0  0  0  0  0  0  0  0  0  0  0
    6.9578    0.1364    1.4310 C   0  0  0  0  0  0  0  0  0  0  0  0
    5.8057    0.6714    2.0065 C   0  0  0  0  0  0  0  0  0  0  0  0
    5.2890    2.0720    2.0262 C   0  0  0  0  0  0  0  0  0  0  0  0
    2.2120   -2.6222    5.1024 H   0  0  0  0  0  0  0  0  0  0  0  0
    1.4550   -1.5299    3.9236 H   0  0  0  0  0  0  0  0  0  0  0  0
    2.2736   -0.8734    5.3885 H   0  0  0  0  0  0  0  0  0  0  0  0
    5.7542   -2.5752    2.7587 H   0  0  0  0  0  0  0  0  0  0  0  0
    9.6831   -2.1800    0.2583 H   0  0  0  0  0  0  0  0  0  0  0  0
    7.4219    2.5823    0.4948 H   0  0  0  0  0  0  0  0  0  0  0  0
   10.6061    1.4374    1.4834 H   0  0  0  0  0  0  0  0  0  0  0  0
   12.6198    2.7448    1.2745 H   0  0  0  0  0  0  0  0  0  0  0  0
   13.1094    5.5402   -1.1538 H   0  0  0  0  0  0  0  0  0  0  0  0
   13.0401    5.7048    1.9115 H   0  0  0  0  0  0  0  0  0  0  0  0
   12.1913    6.7955    0.8071 H   0  0  0  0  0  0  0  0  0  0  0  0
   13.9601    6.7634    0.8295 H   0  0  0  0  0  0  0  0  0  0  0  0
   14.4967    3.7733    0.8998 H   0  0  0  0  0  0  0  0  0  0  0  0
   15.2310    4.8735   -0.2613 H   0  0  0  0  0  0  0  0  0  0  0  0
   14.3717    3.4367   -0.8381 H   0  0  0  0  0  0  0  0  0  0  0  0
   11.3567    6.0530   -1.7443 H   0  0  0  0  0  0  0  0  0  0  0  0
    8.5357    4.1646   -1.1203 H   0  0  0  0  0  0  0  0  0  0  0  0
    5.9305    2.7971    1.5335 H   0  0  0  0  0  0  0  0  0  0  0  0
    5.1695    2.4142    3.0599 H   0  0  0  0  0  0  0  0  0  0  0  0
    4.3131    2.1189    1.5313 H   0  0  0  0  0  0  0  0  0  0  0  0
  1  2  1  0  0  0  0
  1 26  1  0  0  0  0
  1 27  1  0  0  0  0
  1 28  1  0  0  0  0
  2  3  1  0  0  0  0
  3  4  2  0  0  0  0
  3  5  1  0  0  0  0
  5  6  2  0  0  0  0
  5 24  1  0  0  0  0
  6  7  1  0  0  0  0
  6 29  1  0  0  0  0
  7  8  1  0  0  0  0
  7 23  1  0  0  0  0
  8  9  2  0  0  0  0
  9 10  1  0  0  0  0
  9 30  1  0  0  0  0
 10 11  2  0  0  0  0
 11 12  1  0  0  0  0
 11 23  1  0  0  0  0
 12 13  1  0  0  0  0
 12 31  1  0  0  0  0
 13 14  1  0  0  0  0
 13 22  2  0  0  0  0
 14 15  2  0  0  0  0
 14 32  1  0  0  0  0
 15 16  1  0  0  0  0
 15 33  1  0  0  0  0
 16 17  1  0  0  0  0
 16 20  2  0  0  0  0
 17 18  1  0  0  0  0
 17 19  1  0  0  0  0
 17 34  1  0  0  0  0
 18 35  1  0  0  0  0
 18 36  1  0  0  0  0
 18 37  1  0  0  0  0
 19 38  1  0  0  0  0
 19 39  1  0  0  0  0
 19 40  1  0  0  0  0
 20 21  1  0  0  0  0
 20 22  1  0  0  0  0
 21 41  1  0  0  0  0
 22 42  1  0  0  0  0
 23 24  2  0  0  0  0
 24 25  1  0  0  0  0
 25 43  1  0  0  0  0
 25 44  1  0  0  0  0
 25 45  1  0  0  0  0
M  END
$$$$
