CHEMBL1242111
 OpenBabel04072215363D

 39 42  0  0  0  0  0  0  0  0999 V2000
    1.0342    0.3577    0.0002 N   0  0  0  0  0  0  0  0  0  0  0  0
    2.4121    0.1709    0.0080 C   0  0  0  0  0  0  0  0  0  0  0  0
    3.1464    1.3043    0.0152 N   0  0  0  0  0  0  0  0  0  0  0  0
    4.4881    1.2078    0.0065 C   0  0  0  0  0  0  0  0  0  0  0  0
    5.2280    0.0919   -0.0034 N   0  0  0  0  0  0  0  0  0  0  0  0
    4.4597   -1.0139    0.0021 C   0  0  0  0  0  0  0  0  0  0  0  0
    3.0762   -1.0657    0.0031 C   0  0  0  0  0  0  0  0  0  0  0  0
    2.7665   -2.4690   -0.0208 C   0  0  0  0  0  0  0  0  0  0  0  0
    1.4521   -3.1141   -0.1086 C   0  0  0  0  0  0  0  0  0  0  0  0
    0.3509   -2.5989    0.5926 C   0  0  0  0  0  0  0  0  0  0  0  0
   -0.9379   -3.1007    0.3828 C   0  0  0  0  0  0  0  0  0  0  0  0
   -1.1381   -4.1771   -0.4781 C   0  0  0  0  0  0  0  0  0  0  0  0
   -0.0412   -4.7536   -1.1121 C   0  0  0  0  0  0  0  0  0  0  0  0
   -0.2094   -5.8337   -1.9344 O   0  0  0  0  0  0  0  0  0  0  0  0
    1.2424   -4.2247   -0.9384 C   0  0  0  0  0  0  0  0  0  0  0  0
    2.2611   -4.7817   -1.6142 F   0  0  0  0  0  0  0  0  0  0  0  0
    3.8904   -3.2075    0.0163 N   0  0  0  0  0  0  0  0  0  0  0  0
    4.8960   -2.3070   -0.0071 N   0  0  0  0  0  0  0  0  0  0  0  0
    6.2755   -2.7479   -0.0279 C   0  0  0  0  0  0  0  0  0  0  0  0
    6.6442   -3.6354   -1.2183 C   0  0  0  0  0  0  0  0  0  0  0  0
    7.8878   -4.4028   -0.7718 C   0  0  0  0  0  0  0  0  0  0  0  0
    7.9720   -4.2564    0.7470 C   0  0  0  0  0  0  0  0  0  0  0  0
    6.6697   -3.5971    1.1791 C   0  0  0  0  0  0  0  0  0  0  0  0
    0.8279    1.3348   -0.1804 H   0  0  0  0  0  0  0  0  0  0  0  0
    0.5302   -0.2969   -0.5840 H   0  0  0  0  0  0  0  0  0  0  0  0
    5.0298    2.1463   -0.0028 H   0  0  0  0  0  0  0  0  0  0  0  0
    0.4784   -1.7807    1.3002 H   0  0  0  0  0  0  0  0  0  0  0  0
   -1.7850   -2.6427    0.8896 H   0  0  0  0  0  0  0  0  0  0  0  0
   -2.1445   -4.5509   -0.6397 H   0  0  0  0  0  0  0  0  0  0  0  0
   -1.1346   -6.1246   -1.8999 H   0  0  0  0  0  0  0  0  0  0  0  0
    6.9132   -1.8546   -0.0519 H   0  0  0  0  0  0  0  0  0  0  0  0
    6.8355   -3.0471   -2.1227 H   0  0  0  0  0  0  0  0  0  0  0  0
    5.8445   -4.3460   -1.4599 H   0  0  0  0  0  0  0  0  0  0  0  0
    8.7904   -3.9947   -1.2403 H   0  0  0  0  0  0  0  0  0  0  0  0
    7.8180   -5.4556   -1.0661 H   0  0  0  0  0  0  0  0  0  0  0  0
    8.8231   -3.6171    1.0094 H   0  0  0  0  0  0  0  0  0  0  0  0
    8.1204   -5.2205    1.2438 H   0  0  0  0  0  0  0  0  0  0  0  0
    6.7955   -2.9941    2.0832 H   0  0  0  0  0  0  0  0  0  0  0  0
    5.9181   -4.3660    1.3934 H   0  0  0  0  0  0  0  0  0  0  0  0
  1  2  1  0  0  0  0
  1 24  1  0  0  0  0
  1 25  1  0  0  0  0
  2  3  1  0  0  0  0
  2  7  2  0  0  0  0
  3  4  2  0  0  0  0
  4  5  1  0  0  0  0
  4 26  1  0  0  0  0
  5  6  2  0  0  0  0
  6  7  1  0  0  0  0
  6 18  1  0  0  0  0
  7  8  1  0  0  0  0
  8  9  1  0  0  0  0
  8 17  2  0  0  0  0
  9 10  1  0  0  0  0
  9 15  2  0  0  0  0
 10 11  2  0  0  0  0
 10 27  1  0  0  0  0
 11 12  1  0  0  0  0
 11 28  1  0  0  0  0
 12 13  2  0  0  0  0
 12 29  1  0  0  0  0
 13 14  1  0  0  0  0
 13 15  1  0  0  0  0
 14 30  1  0  0  0  0
 15 16  1  0  0  0  0
 17 18  1  0  0  0  0
 18 19  1  0  0  0  0
 19 20  1  0  0  0  0
 19 23  1  0  0  0  0
 19 31  1  0  0  0  0
 20 21  1  0  0  0  0
 20 32  1  0  0  0  0
 20 33  1  0  0  0  0
 21 22  1  0  0  0  0
 21 34  1  0  0  0  0
 21 35  1  0  0  0  0
 22 23  1  0  0  0  0
 22 36  1  0  0  0  0
 22 37  1  0  0  0  0
 23 38  1  0  0  0  0
 23 39  1  0  0  0  0
M  END
$$$$
