CHEMBL3901672
 OpenBabel04072215373D

 51 53  0  0  0  0  0  0  0  0999 V2000
   -1.0253    0.4847    0.0130 C   0  0  0  0  0  0  0  0  0  0  0  0
   -0.3657   -1.1268   -0.3664 S   0  0  0  0  0  0  0  0  0  0  0  0
    0.1207   -1.6880    1.2518 C   0  0  0  0  0  0  0  0  0  0  0  0
   -1.4754   -1.9657   -0.7764 O   0  0  0  0  0  0  0  0  0  0  0  0
    0.9323   -0.9578   -1.1868 N   0  0  0  0  0  0  0  0  0  0  0  0
    0.8947   -0.4522   -2.4963 C   0  0  0  0  0  0  0  0  0  0  0  0
    0.0317    0.3442   -2.8669 O   0  0  0  0  0  0  0  0  0  0  0  0
    1.9715   -0.7494   -3.4800 C   0  0  0  0  0  0  0  0  0  0  0  0
    2.9808   -1.6526   -3.1914 C   0  0  0  0  0  0  0  0  0  0  0  0
    4.0080   -1.9376   -4.0382 N   0  0  0  0  0  0  0  0  0  0  0  0
    4.0395   -1.2981   -5.2255 C   0  0  0  0  0  0  0  0  0  0  0  0
    5.1617   -1.5435   -6.0124 N   0  0  0  0  0  0  0  0  0  0  0  0
    3.0545   -0.3757   -5.6095 C   0  0  0  0  0  0  0  0  0  0  0  0
    3.0854    0.2823   -6.8830 C   0  0  0  0  0  0  0  0  0  0  0  0
    3.0910    0.8278   -7.9515 C   0  0  0  0  0  0  0  0  0  0  0  0
    3.0591    1.4949   -9.2151 C   0  0  0  0  0  0  0  0  0  0  0  0
    4.0929    2.3642   -9.5679 C   0  0  0  0  0  0  0  0  0  0  0  0
    4.0293    3.0540  -10.7733 C   0  0  0  0  0  0  0  0  0  0  0  0
    2.9352    2.8741  -11.6235 C   0  0  0  0  0  0  0  0  0  0  0  0
    1.9032    1.9879  -11.2966 C   0  0  0  0  0  0  0  0  0  0  0  0
    0.7744    1.7758  -12.1288 N   0  0  0  0  0  0  0  0  0  0  0  0
    0.6673    2.1937  -13.4464 C   0  0  0  0  0  0  0  0  0  0  0  0
    1.5507    2.7285  -14.1069 O   0  0  0  0  0  0  0  0  0  0  0  0
   -0.6168    1.9084  -14.1460 C   0  0  0  0  0  0  0  0  0  0  0  0
   -1.8545    1.8731  -13.4950 C   0  0  0  0  0  0  0  0  0  0  0  0
   -3.0220    1.6476  -14.2367 C   0  0  0  0  0  0  0  0  0  0  0  0
   -2.9513    1.4673  -15.6207 C   0  0  0  0  0  0  0  0  0  0  0  0
   -4.3882    1.1901  -16.5249 Cl  0  0  0  0  0  0  0  0  0  0  0  0
   -1.7257    1.5183  -16.2765 C   0  0  0  0  0  0  0  0  0  0  0  0
   -0.5629    1.7403  -15.5399 C   0  0  0  0  0  0  0  0  0  0  0  0
    1.9742    1.2987  -10.0806 C   0  0  0  0  0  0  0  0  0  0  0  0
    2.0079   -0.1114   -4.7229 C   0  0  0  0  0  0  0  0  0  0  0  0
   -1.8885    0.3586    0.6703 H   0  0  0  0  0  0  0  0  0  0  0  0
   -1.3477    0.9730   -0.9069 H   0  0  0  0  0  0  0  0  0  0  0  0
   -0.2548    1.0778    0.5095 H   0  0  0  0  0  0  0  0  0  0  0  0
   -0.7663   -1.7260    1.8885 H   0  0  0  0  0  0  0  0  0  0  0  0
    0.8534   -0.9935    1.6678 H   0  0  0  0  0  0  0  0  0  0  0  0
    0.5514   -2.6871    1.1606 H   0  0  0  0  0  0  0  0  0  0  0  0
    3.0128   -2.1916   -2.2474 H   0  0  0  0  0  0  0  0  0  0  0  0
    5.6846   -2.3074   -5.5941 H   0  0  0  0  0  0  0  0  0  0  0  0
    4.9371   -1.6955   -6.9878 H   0  0  0  0  0  0  0  0  0  0  0  0
    4.9424    2.5213   -8.9076 H   0  0  0  0  0  0  0  0  0  0  0  0
    4.8172    3.7444  -11.0578 H   0  0  0  0  0  0  0  0  0  0  0  0
    2.9144    3.4619  -12.5353 H   0  0  0  0  0  0  0  0  0  0  0  0
    0.0438    1.1863  -11.7531 H   0  0  0  0  0  0  0  0  0  0  0  0
   -1.9394    2.0565  -12.4275 H   0  0  0  0  0  0  0  0  0  0  0  0
   -3.9872    1.6298  -13.7364 H   0  0  0  0  0  0  0  0  0  0  0  0
   -1.6634    1.3966  -17.3549 H   0  0  0  0  0  0  0  0  0  0  0  0
    0.3943    1.7948  -16.0587 H   0  0  0  0  0  0  0  0  0  0  0  0
    1.1940    0.5973   -9.7950 H   0  0  0  0  0  0  0  0  0  0  0  0
    1.2318    0.6031   -4.9958 H   0  0  0  0  0  0  0  0  0  0  0  0
  1  2  1  0  0  0  0
  1 33  1  0  0  0  0
  1 34  1  0  0  0  0
  1 35  1  0  0  0  0
  2  3  1  0  0  0  0
  2  4  2  0  0  0  0
  2  5  2  0  0  0  0
  3 36  1  0  0  0  0
  3 37  1  0  0  0  0
  3 38  1  0  0  0  0
  5  6  1  0  0  0  0
  6  7  2  0  0  0  0
  6  8  1  0  0  0  0
  8  9  1  0  0  0  0
  8 32  2  0  0  0  0
  9 10  2  0  0  0  0
  9 39  1  0  0  0  0
 10 11  1  0  0  0  0
 11 12  1  0  0  0  0
 11 13  2  0  0  0  0
 12 40  1  0  0  0  0
 12 41  1  0  0  0  0
 13 14  1  0  0  0  0
 13 32  1  0  0  0  0
 14 15  3  0  0  0  0
 15 16  1  0  0  0  0
 16 17  1  0  0  0  0
 16 31  2  0  0  0  0
 17 18  2  0  0  0  0
 17 42  1  0  0  0  0
 18 19  1  0  0  0  0
 18 43  1  0  0  0  0
 19 20  2  0  0  0  0
 19 44  1  0  0  0  0
 20 21  1  0  0  0  0
 20 31  1  0  0  0  0
 21 22  1  0  0  0  0
 21 45  1  0  0  0  0
 22 23  2  0  0  0  0
 22 24  1  0  0  0  0
 24 25  1  0  0  0  0
 24 30  2  0  0  0  0
 25 26  2  0  0  0  0
 25 46  1  0  0  0  0
 26 27  1  0  0  0  0
 26 47  1  0  0  0  0
 27 28  1  0  0  0  0
 27 29  2  0  0  0  0
 29 30  1  0  0  0  0
 29 48  1  0  0  0  0
 30 49  1  0  0  0  0
 31 50  1  0  0  0  0
 32 51  1  0  0  0  0
M  END
$$$$
