CHEMBL3897567
 OpenBabel04072215373D

 74 79  0  0  0  0  0  0  0  0999 V2000
    1.6841   -0.5137   -1.0130 C   0  0  0  0  0  0  0  0  0  0  0  0
    2.6312    0.1332   -0.0969 N   0  0  0  0  0  0  0  0  0  0  0  0
    3.2975   -0.6361    0.8846 C   0  0  0  0  0  0  0  0  0  0  0  0
    2.7779   -1.8436    1.3819 C   0  0  0  0  0  0  0  0  0  0  0  0
    3.4967   -2.6388    2.2742 C   0  0  0  0  0  0  0  0  0  0  0  0
    4.7619   -2.2443    2.6914 C   0  0  0  0  0  0  0  0  0  0  0  0
    5.3215   -1.0519    2.2308 C   0  0  0  0  0  0  0  0  0  0  0  0
    6.6486   -0.6550    2.5455 N   0  0  0  0  0  0  0  0  0  0  0  0
    7.6297   -1.5169    3.0230 C   0  0  0  0  0  0  0  0  0  0  0  0
    7.4754   -2.7086    3.2758 O   0  0  0  0  0  0  0  0  0  0  0  0
    9.0021   -0.9774    3.1845 C   0  0  0  0  0  0  0  0  0  0  0  0
    9.2789    0.3258    3.5814 C   0  0  0  0  0  0  0  0  0  0  0  0
   10.6114    0.7132    3.8099 C   0  0  0  0  0  0  0  0  0  0  0  0
   11.7051   -0.1771    3.6607 C   0  0  0  0  0  0  0  0  0  0  0  0
   13.1495    0.3002    3.9457 C   0  0  0  0  0  0  0  0  0  0  0  0
   13.2391    1.7977    4.3474 C   0  0  0  0  0  0  0  0  0  0  0  0
   13.7688   -0.4815    5.1288 C   0  0  0  0  0  0  0  0  0  0  0  0
   14.0326    0.1551    2.6852 C   0  0  0  0  0  0  0  0  0  0  0  0
   11.3797   -1.4824    3.2441 C   0  0  0  0  0  0  0  0  0  0  0  0
   12.2757   -2.4906    3.0239 O   0  0  0  0  0  0  0  0  0  0  0  0
   10.0596   -1.8725    3.0098 C   0  0  0  0  0  0  0  0  0  0  0  0
    4.5619   -0.2355    1.3740 C   0  0  0  0  0  0  0  0  0  0  0  0
    2.7514    1.5321   -0.3161 C   0  0  0  0  0  0  0  0  0  0  0  0
    3.0256    2.0797   -1.5868 C   0  0  0  0  0  0  0  0  0  0  0  0
    3.1334    3.4755   -1.8026 C   0  0  0  0  0  0  0  0  0  0  0  0
    2.7697    4.3329   -0.7488 C   0  0  0  0  0  0  0  0  0  0  0  0
    2.7033    5.7338   -0.4240 C   0  0  0  0  0  0  0  0  0  0  0  0
    3.7877    6.6138   -0.0054 C   0  0  0  0  0  0  0  0  0  0  0  0
    4.9617    6.1446    0.4565 C   0  0  0  0  0  0  0  0  0  0  0  0
    5.6452    6.6625    1.6643 C   0  0  0  0  0  0  0  0  0  0  0  0
    4.9147    7.0459    2.8226 C   0  0  0  0  0  0  0  0  0  0  0  0
    5.5520    7.2405    4.0625 C   0  0  0  0  0  0  0  0  0  0  0  0
    6.9103    7.0347    4.1167 C   0  0  0  0  0  0  0  0  0  0  0  0
    7.6277    6.6833    2.9986 C   0  0  0  0  0  0  0  0  0  0  0  0
    7.0294    6.4964    1.7664 C   0  0  0  0  0  0  0  0  0  0  0  0
    8.9502    6.4995    3.2644 O   0  0  0  0  0  0  0  0  0  0  0  0
    8.9762    6.7586    4.6838 C   0  0  0  0  0  0  0  0  0  0  0  0
    7.6869    7.1101    5.2292 O   0  0  0  0  0  0  0  0  0  0  0  0
    1.6015    5.8920    0.3389 N   0  0  0  0  0  0  0  0  0  0  0  0
    1.6042    4.7386    1.0481 N   0  0  0  0  0  0  0  0  0  0  0  0
    2.3047    3.7461    0.4235 C   0  0  0  0  0  0  0  0  0  0  0  0
    2.4613    2.3994    0.7443 C   0  0  0  0  0  0  0  0  0  0  0  0
    1.4303   -1.5446   -0.7561 H   0  0  0  0  0  0  0  0  0  0  0  0
    2.0971   -0.5571   -2.0256 H   0  0  0  0  0  0  0  0  0  0  0  0
    0.7352    0.0366   -1.0397 H   0  0  0  0  0  0  0  0  0  0  0  0
    1.7917   -2.1998    1.1037 H   0  0  0  0  0  0  0  0  0  0  0  0
    3.0811   -3.5775    2.6327 H   0  0  0  0  0  0  0  0  0  0  0  0
    5.2853   -2.8972    3.3828 H   0  0  0  0  0  0  0  0  0  0  0  0
    6.9400    0.2510    2.2028 H   0  0  0  0  0  0  0  0  0  0  0  0
    8.4815    1.0419    3.7595 H   0  0  0  0  0  0  0  0  0  0  0  0
   10.7584    1.7400    4.1372 H   0  0  0  0  0  0  0  0  0  0  0  0
   12.6939    1.9998    5.2770 H   0  0  0  0  0  0  0  0  0  0  0  0
   12.8398    2.4517    3.5635 H   0  0  0  0  0  0  0  0  0  0  0  0
   14.2795    2.1009    4.5172 H   0  0  0  0  0  0  0  0  0  0  0  0
   13.1713   -0.3533    6.0391 H   0  0  0  0  0  0  0  0  0  0  0  0
   14.7831   -0.1240    5.3449 H   0  0  0  0  0  0  0  0  0  0  0  0
   13.8544   -1.5558    4.9554 H   0  0  0  0  0  0  0  0  0  0  0  0
   13.6314    0.7509    1.8567 H   0  0  0  0  0  0  0  0  0  0  0  0
   14.1208   -0.8725    2.3261 H   0  0  0  0  0  0  0  0  0  0  0  0
   15.0541    0.5037    2.8798 H   0  0  0  0  0  0  0  0  0  0  0  0
   13.1516   -2.2500    3.3466 H   0  0  0  0  0  0  0  0  0  0  0  0
    9.8597   -2.8990    2.7025 H   0  0  0  0  0  0  0  0  0  0  0  0
    4.9913    0.6936    1.0094 H   0  0  0  0  0  0  0  0  0  0  0  0
    3.1695    1.4152   -2.4369 H   0  0  0  0  0  0  0  0  0  0  0  0
    3.3597    3.8570   -2.7955 H   0  0  0  0  0  0  0  0  0  0  0  0
    3.4373    7.5836    0.3521 H   0  0  0  0  0  0  0  0  0  0  0  0
    5.3076    5.1582    0.1594 H   0  0  0  0  0  0  0  0  0  0  0  0
    3.8288    7.1320    2.7908 H   0  0  0  0  0  0  0  0  0  0  0  0
    4.9867    7.4929    4.9540 H   0  0  0  0  0  0  0  0  0  0  0  0
    7.6239    6.1777    0.9197 H   0  0  0  0  0  0  0  0  0  0  0  0
    9.6726    7.5885    4.8794 H   0  0  0  0  0  0  0  0  0  0  0  0
    9.3346    5.8604    5.1942 H   0  0  0  0  0  0  0  0  0  0  0  0
    1.0331    4.6809    1.8707 H   0  0  0  0  0  0  0  0  0  0  0  0
    2.2005    2.0181    1.7248 H   0  0  0  0  0  0  0  0  0  0  0  0
  1  2  1  0  0  0  0
  1 43  1  0  0  0  0
  1 44  1  0  0  0  0
  1 45  1  0  0  0  0
  2  3  1  0  0  0  0
  2 23  1  0  0  0  0
  3  4  1  0  0  0  0
  3 22  2  0  0  0  0
  4  5  2  0  0  0  0
  4 46  1  0  0  0  0
  5  6  1  0  0  0  0
  5 47  1  0  0  0  0
  6  7  2  0  0  0  0
  6 48  1  0  0  0  0
  7  8  1  0  0  0  0
  7 22  1  0  0  0  0
  8  9  1  0  0  0  0
  8 49  1  0  0  0  0
  9 10  2  0  0  0  0
  9 11  1  0  0  0  0
 11 12  1  0  0  0  0
 11 21  2  0  0  0  0
 12 13  2  0  0  0  0
 12 50  1  0  0  0  0
 13 14  1  0  0  0  0
 13 51  1  0  0  0  0
 14 15  1  0  0  0  0
 14 19  2  0  0  0  0
 15 16  1  0  0  0  0
 15 17  1  0  0  0  0
 15 18  1  0  0  0  0
 16 52  1  0  0  0  0
 16 53  1  0  0  0  0
 16 54  1  0  0  0  0
 17 55  1  0  0  0  0
 17 56  1  0  0  0  0
 17 57  1  0  0  0  0
 18 58  1  0  0  0  0
 18 59  1  0  0  0  0
 18 60  1  0  0  0  0
 19 20  1  0  0  0  0
 19 21  1  0  0  0  0
 20 61  1  0  0  0  0
 21 62  1  0  0  0  0
 22 63  1  0  0  0  0
 23 24  1  0  0  0  0
 23 42  2  0  0  0  0
 24 25  2  0  0  0  0
 24 64  1  0  0  0  0
 25 26  1  0  0  0  0
 25 65  1  0  0  0  0
 26 27  1  0  0  0  0
 26 41  2  0  0  0  0
 27 28  1  0  0  0  0
 27 39  2  0  0  0  0
 28 29  2  0  0  0  0
 28 66  1  0  0  0  0
 29 30  1  0  0  0  0
 29 67  1  0  0  0  0
 30 31  1  0  0  0  0
 30 35  2  0  0  0  0
 31 32  2  0  0  0  0
 31 68  1  0  0  0  0
 32 33  1  0  0  0  0
 32 69  1  0  0  0  0
 33 34  2  0  0  0  0
 33 38  1  0  0  0  0
 34 35  1  0  0  0  0
 34 36  1  0  0  0  0
 35 70  1  0  0  0  0
 36 37  1  0  0  0  0
 37 38  1  0  0  0  0
 37 71  1  0  0  0  0
 37 72  1  0  0  0  0
 39 40  1  0  0  0  0
 40 41  1  0  0  0  0
 40 73  1  0  0  0  0
 41 42  1  0  0  0  0
 42 74  1  0  0  0  0
M  END
$$$$
