CHEMBL45177
 OpenBabel04072215383D

 70 75  0  0  1  0  0  0  0  0999 V2000
   -6.0417    1.7545    6.8043 C   0  0  0  0  0  0  0  0  0  0  0  0
   -4.6618    1.8854    7.2710 N   0  0  0  0  0  0  0  0  0  0  0  0
   -4.3282    0.7778    8.1829 C   0  0  0  0  0  0  0  0  0  0  0  0
   -2.8417    0.7590    8.6007 C   0  0  0  0  0  0  0  0  0  0  0  0
   -1.9012    0.7529    7.4740 N   0  0  0  0  0  0  0  0  0  0  0  0
   -1.4009   -0.5651    7.0648 C   0  0  1  0  0  0  0  0  0  0  0  0
   -2.4037   -1.6663    6.6770 C   0  0  0  0  0  0  0  0  0  0  0  0
   -2.9087   -1.5705    5.2434 C   0  0  0  0  0  0  0  0  0  0  0  0
   -1.7730   -1.5857    4.2004 C   0  0  2  0  0  0  0  0  0  0  0  0
   -1.2119   -2.9255    4.0105 N   0  0  0  0  0  0  0  0  0  0  0  0
    0.0971   -3.2873    4.1457 C   0  0  0  0  0  0  0  0  0  0  0  0
    0.1810   -4.6655    4.1532 C   0  0  0  0  0  0  0  0  0  0  0  0
    1.4420   -5.3326    4.4364 C   0  0  0  0  0  0  0  0  0  0  0  0
    2.3446   -4.7705    5.3535 C   0  0  0  0  0  0  0  0  0  0  0  0
    3.5266   -5.4286    5.6814 C   0  0  0  0  0  0  0  0  0  0  0  0
    3.7738   -6.7022    5.1688 C   0  0  0  0  0  0  0  0  0  0  0  0
    4.8439   -7.4851    5.5249 O   0  0  0  0  0  0  0  0  0  0  0  0
    5.3465   -7.4035    6.8077 C   0  0  0  0  0  0  0  0  0  0  0  0
    4.5788   -7.1414    7.9483 C   0  0  0  0  0  0  0  0  0  0  0  0
    5.1971   -7.0092    9.1914 C   0  0  0  0  0  0  0  0  0  0  0  0
    6.5713   -7.2076    9.3084 C   0  0  0  0  0  0  0  0  0  0  0  0
    7.3272   -7.5466    8.1862 C   0  0  0  0  0  0  0  0  0  0  0  0
    6.7146   -7.6438    6.9363 C   0  0  0  0  0  0  0  0  0  0  0  0
    2.9234   -7.2340    4.2021 C   0  0  0  0  0  0  0  0  0  0  0  0
    1.7773   -6.5388    3.8169 C   0  0  0  0  0  0  0  0  0  0  0  0
   -1.1298   -5.1622    3.8562 C   0  0  0  0  0  0  0  0  0  0  0  0
   -1.7654   -6.4120    3.7268 C   0  0  0  0  0  0  0  0  0  0  0  0
   -1.1622   -7.6357    3.9802 N   0  0  0  0  0  0  0  0  0  0  0  0
   -3.0654   -6.4550    3.3747 N   0  0  0  0  0  0  0  0  0  0  0  0
   -3.7139   -5.2956    3.1746 C   0  0  0  0  0  0  0  0  0  0  0  0
   -3.2403   -4.0516    3.3238 N   0  0  0  0  0  0  0  0  0  0  0  0
   -1.9453   -4.0465    3.6813 C   0  0  0  0  0  0  0  0  0  0  0  0
   -0.7314   -0.5008    4.5550 C   0  0  0  0  0  0  0  0  0  0  0  0
   -0.2681   -0.5297    6.0208 C   0  0  0  0  0  0  0  0  0  0  0  0
   -2.2375    1.8210    6.5347 C   0  0  0  0  0  0  0  0  0  0  0  0
   -3.7276    1.9441    6.1336 C   0  0  0  0  0  0  0  0  0  0  0  0
   -6.7349    1.7789    7.6521 H   0  0  0  0  0  0  0  0  0  0  0  0
   -6.2059    0.8183    6.2566 H   0  0  0  0  0  0  0  0  0  0  0  0
   -6.3103    2.5878    6.1466 H   0  0  0  0  0  0  0  0  0  0  0  0
   -4.5975   -0.1788    7.7246 H   0  0  0  0  0  0  0  0  0  0  0  0
   -4.9312    0.8720    9.0936 H   0  0  0  0  0  0  0  0  0  0  0  0
   -2.6519   -0.0773    9.2838 H   0  0  0  0  0  0  0  0  0  0  0  0
   -2.6423    1.6637    9.1921 H   0  0  0  0  0  0  0  0  0  0  0  0
   -0.9152   -0.9433    7.9777 H   0  0  0  0  0  0  0  0  0  0  0  0
   -3.2440   -1.7098    7.3738 H   0  0  0  0  0  0  0  0  0  0  0  0
   -1.9062   -2.6393    6.7980 H   0  0  0  0  0  0  0  0  0  0  0  0
   -3.4825   -0.6574    5.1149 H   0  0  0  0  0  0  0  0  0  0  0  0
   -3.6299   -2.3753    5.0776 H   0  0  0  0  0  0  0  0  0  0  0  0
   -2.1938   -1.3305    3.2183 H   0  0  0  0  0  0  0  0  0  0  0  0
    0.8790   -2.5544    4.2814 H   0  0  0  0  0  0  0  0  0  0  0  0
    2.1343   -3.8206    5.8402 H   0  0  0  0  0  0  0  0  0  0  0  0
    4.2178   -4.9545    6.3714 H   0  0  0  0  0  0  0  0  0  0  0  0
    3.5024   -7.0111    7.8825 H   0  0  0  0  0  0  0  0  0  0  0  0
    4.6059   -6.7495   10.0654 H   0  0  0  0  0  0  0  0  0  0  0  0
    7.0532   -7.1070   10.2773 H   0  0  0  0  0  0  0  0  0  0  0  0
    8.3929   -7.7284    8.2807 H   0  0  0  0  0  0  0  0  0  0  0  0
    7.3035   -7.8972    6.0592 H   0  0  0  0  0  0  0  0  0  0  0  0
    3.1419   -8.2018    3.7540 H   0  0  0  0  0  0  0  0  0  0  0  0
    1.1432   -6.9608    3.0405 H   0  0  0  0  0  0  0  0  0  0  0  0
   -0.4574   -7.5957    4.7063 H   0  0  0  0  0  0  0  0  0  0  0  0
   -1.8702   -8.3508    4.0991 H   0  0  0  0  0  0  0  0  0  0  0  0
   -4.7525   -5.3794    2.8708 H   0  0  0  0  0  0  0  0  0  0  0  0
   -1.1738    0.4687    4.3204 H   0  0  0  0  0  0  0  0  0  0  0  0
    0.1451   -0.5621    3.8993 H   0  0  0  0  0  0  0  0  0  0  0  0
    0.4128    0.3063    6.2196 H   0  0  0  0  0  0  0  0  0  0  0  0
    0.3414   -1.4295    6.1812 H   0  0  0  0  0  0  0  0  0  0  0  0
   -1.6018    1.8332    5.6520 H   0  0  0  0  0  0  0  0  0  0  0  0
   -1.9760    2.7636    7.0378 H   0  0  0  0  0  0  0  0  0  0  0  0
   -3.9759    1.1804    5.3937 H   0  0  0  0  0  0  0  0  0  0  0  0
   -3.8604    2.9046    5.6209 H   0  0  0  0  0  0  0  0  0  0  0  0
  1  2  1  0  0  0  0
  1 37  1  0  0  0  0
  1 38  1  0  0  0  0
  1 39  1  0  0  0  0
  2  3  1  0  0  0  0
  2 36  1  0  0  0  0
  3  4  1  0  0  0  0
  3 40  1  0  0  0  0
  3 41  1  0  0  0  0
  4  5  1  0  0  0  0
  4 42  1  0  0  0  0
  4 43  1  0  0  0  0
  5 35  1  0  0  0  0
  6  7  1  0  0  0  0
  6 34  1  0  0  0  0
  6  5  1  0  0  0  0
  6 44  1  1  0  0  0
  7  8  1  0  0  0  0
  7 45  1  0  0  0  0
  7 46  1  0  0  0  0
  8  9  1  0  0  0  0
  8 47  1  0  0  0  0
  8 48  1  0  0  0  0
  9 33  1  0  0  0  0
  9 10  1  0  0  0  0
  9 49  1  6  0  0  0
 10 11  1  0  0  0  0
 10 32  1  0  0  0  0
 11 12  2  0  0  0  0
 11 50  1  0  0  0  0
 12 13  1  0  0  0  0
 12 26  1  0  0  0  0
 13 14  1  0  0  0  0
 13 25  2  0  0  0  0
 14 15  2  0  0  0  0
 14 51  1  0  0  0  0
 15 16  1  0  0  0  0
 15 52  1  0  0  0  0
 16 17  1  0  0  0  0
 16 24  2  0  0  0  0
 17 18  1  0  0  0  0
 18 19  1  0  0  0  0
 18 23  2  0  0  0  0
 19 20  2  0  0  0  0
 19 53  1  0  0  0  0
 20 21  1  0  0  0  0
 20 54  1  0  0  0  0
 21 22  2  0  0  0  0
 21 55  1  0  0  0  0
 22 23  1  0  0  0  0
 22 56  1  0  0  0  0
 23 57  1  0  0  0  0
 24 25  1  0  0  0  0
 24 58  1  0  0  0  0
 25 59  1  0  0  0  0
 26 27  1  0  0  0  0
 26 32  2  0  0  0  0
 27 28  1  0  0  0  0
 27 29  2  0  0  0  0
 28 60  1  0  0  0  0
 28 61  1  0  0  0  0
 29 30  1  0  0  0  0
 30 31  2  0  0  0  0
 30 62  1  0  0  0  0
 31 32  1  0  0  0  0
 33 34  1  0  0  0  0
 33 63  1  0  0  0  0
 33 64  1  0  0  0  0
 34 65  1  0  0  0  0
 34 66  1  0  0  0  0
 35 36  1  0  0  0  0
 35 67  1  0  0  0  0
 35 68  1  0  0  0  0
 36 69  1  0  0  0  0
 36 70  1  0  0  0  0
M  END
$$$$
