CHEMBL2022857
 OpenBabel04072215363D

 71 76  0  0  1  0  0  0  0  0999 V2000
    1.0647    0.2079   -0.1258 N   0  0  0  0  0  0  0  0  0  0  0  0
    2.4480    0.0964   -0.1420 C   0  0  0  0  0  0  0  0  0  0  0  0
    3.0871    1.2873   -0.1016 N   0  0  0  0  0  0  0  0  0  0  0  0
    4.4231    1.3247   -0.0654 C   0  0  0  0  0  0  0  0  0  0  0  0
    5.2528    0.2201   -0.0553 C   0  0  0  0  0  0  0  0  0  0  0  0
    6.6936    0.3481   -0.0013 C   0  0  0  0  0  0  0  0  0  0  0  0
    7.7438   -0.4141   -0.5712 C   0  0  0  0  0  0  0  0  0  0  0  0
    8.9556    0.0991   -0.3252 N   0  0  0  0  0  0  0  0  0  0  0  0
    8.6842    1.1930    0.4047 N   0  0  0  0  0  0  0  0  0  0  0  0
    9.7568    2.0910    0.7796 C   0  0  0  0  0  0  0  0  0  0  0  0
   10.1100    3.0762   -0.3337 C   0  0  0  0  0  0  0  0  0  0  0  0
    8.9790    4.0524   -0.6971 C   0  0  0  0  0  0  0  0  0  0  0  0
    8.5202    4.8676    0.4352 N   0  0  0  0  0  0  0  0  0  0  0  0
    9.5594    5.7718    0.9580 C   0  0  0  0  0  0  0  0  0  0  0  0
    8.9428    7.1614    1.0588 C   0  0  0  0  0  0  0  0  0  0  0  0
    7.8485    7.1407    0.0127 C   0  0  1  0  0  0  0  0  0  0  0  0
    8.3786    7.4473   -1.2754 O   0  0  0  0  0  0  0  0  0  0  0  0
    7.3471    5.7016    0.0852 C   0  0  0  0  0  0  0  0  0  0  0  0
    7.3526    1.3709    0.6503 C   0  0  0  0  0  0  0  0  0  0  0  0
    4.5922   -1.0298   -0.1118 C   0  0  0  0  0  0  0  0  0  0  0  0
    5.3202   -2.5953   -0.0782 S   0  0  0  0  0  0  0  0  0  0  0  0
    3.8446   -3.3793   -0.2446 C   0  0  0  0  0  0  0  0  0  0  0  0
    2.7611   -2.5240   -0.2359 C   0  0  0  0  0  0  0  0  0  0  0  0
    1.4177   -3.1212   -0.2393 C   0  0  0  0  0  0  0  0  0  0  0  0
    1.1935   -4.2743    0.5220 C   0  0  0  0  0  0  0  0  0  0  0  0
   -0.0591   -4.8788    0.5589 C   0  0  0  0  0  0  0  0  0  0  0  0
   -1.1444   -4.3131   -0.1034 C   0  0  0  0  0  0  0  0  0  0  0  0
   -2.4412   -4.8634   -0.0037 N   0  0  0  0  0  0  0  0  0  0  0  0
   -2.8432   -5.6906    1.0307 C   0  0  0  0  0  0  0  0  0  0  0  0
   -2.1939   -5.9040    2.0494 O   0  0  0  0  0  0  0  0  0  0  0  0
   -4.0667   -6.2823    0.7707 N   0  0  0  0  0  0  0  0  0  0  0  0
   -4.6892   -7.1159    1.7271 C   0  0  0  0  0  0  0  0  0  0  0  0
   -4.6897   -6.7884    3.0906 C   0  0  0  0  0  0  0  0  0  0  0  0
   -5.2974   -7.6305    4.0243 C   0  0  0  0  0  0  0  0  0  0  0  0
   -5.8950   -8.8118    3.5977 C   0  0  0  0  0  0  0  0  0  0  0  0
   -5.8848   -9.1338    2.2440 C   0  0  0  0  0  0  0  0  0  0  0  0
   -6.4330  -10.2889    1.8408 F   0  0  0  0  0  0  0  0  0  0  0  0
   -5.3068   -8.2893    1.2989 C   0  0  0  0  0  0  0  0  0  0  0  0
   -0.9310   -3.1817   -0.8954 C   0  0  0  0  0  0  0  0  0  0  0  0
    0.3509   -2.6110   -0.9861 C   0  0  0  0  0  0  0  0  0  0  0  0
    3.1842   -1.1213   -0.1717 C   0  0  0  0  0  0  0  0  0  0  0  0
    0.8219    1.1645    0.1078 H   0  0  0  0  0  0  0  0  0  0  0  0
    0.6147   -0.4945    0.4495 H   0  0  0  0  0  0  0  0  0  0  0  0
    4.8302    2.3353   -0.0487 H   0  0  0  0  0  0  0  0  0  0  0  0
    7.6868   -1.3128   -1.1740 H   0  0  0  0  0  0  0  0  0  0  0  0
   10.6266    1.4678    1.0174 H   0  0  0  0  0  0  0  0  0  0  0  0
    9.4636    2.6024    1.7021 H   0  0  0  0  0  0  0  0  0  0  0  0
   10.3846    2.5213   -1.2401 H   0  0  0  0  0  0  0  0  0  0  0  0
   11.0064    3.6327   -0.0358 H   0  0  0  0  0  0  0  0  0  0  0  0
    8.1361    3.4757   -1.0956 H   0  0  0  0  0  0  0  0  0  0  0  0
    9.3213    4.6895   -1.5226 H   0  0  0  0  0  0  0  0  0  0  0  0
   10.4323    5.8247    0.2945 H   0  0  0  0  0  0  0  0  0  0  0  0
    9.9085    5.4264    1.9366 H   0  0  0  0  0  0  0  0  0  0  0  0
    9.6881    7.9421    0.8799 H   0  0  0  0  0  0  0  0  0  0  0  0
    8.5073    7.3014    2.0549 H   0  0  0  0  0  0  0  0  0  0  0  0
    7.0596    7.8666    0.2273 H   0  0  0  0  0  0  0  0  0  0  0  0
    9.0958    6.8187   -1.4606 H   0  0  0  0  0  0  0  0  0  0  0  0
    6.8398    5.3813   -0.8305 H   0  0  0  0  0  0  0  0  0  0  0  0
    6.6317    5.6147    0.9132 H   0  0  0  0  0  0  0  0  0  0  0  0
    7.0025    2.2163    1.2257 H   0  0  0  0  0  0  0  0  0  0  0  0
    3.8402   -4.4621   -0.2976 H   0  0  0  0  0  0  0  0  0  0  0  0
    1.9857   -4.7330    1.1107 H   0  0  0  0  0  0  0  0  0  0  0  0
   -0.1503   -5.8009    1.1301 H   0  0  0  0  0  0  0  0  0  0  0  0
   -3.1811   -4.4204   -0.5303 H   0  0  0  0  0  0  0  0  0  0  0  0
   -4.2257   -6.4999   -0.2023 H   0  0  0  0  0  0  0  0  0  0  0  0
   -4.2173   -5.8744    3.4431 H   0  0  0  0  0  0  0  0  0  0  0  0
   -5.2898   -7.3645    5.0783 H   0  0  0  0  0  0  0  0  0  0  0  0
   -6.3590   -9.4843    4.3088 H   0  0  0  0  0  0  0  0  0  0  0  0
   -5.3000   -8.5933    0.2608 H   0  0  0  0  0  0  0  0  0  0  0  0
   -1.7498   -2.7160   -1.4408 H   0  0  0  0  0  0  0  0  0  0  0  0
    0.4915   -1.7469   -1.6332 H   0  0  0  0  0  0  0  0  0  0  0  0
  1  2  1  0  0  0  0
  1 42  1  0  0  0  0
  1 43  1  0  0  0  0
  2  3  1  0  0  0  0
  2 41  2  0  0  0  0
  3  4  2  0  0  0  0
  4  5  1  0  0  0  0
  4 44  1  0  0  0  0
  5  6  1  0  0  0  0
  5 20  2  0  0  0  0
  6  7  1  0  0  0  0
  6 19  2  0  0  0  0
  7  8  2  0  0  0  0
  7 45  1  0  0  0  0
  8  9  1  0  0  0  0
  9 10  1  0  0  0  0
  9 19  1  0  0  0  0
 10 11  1  0  0  0  0
 10 46  1  0  0  0  0
 10 47  1  0  0  0  0
 11 12  1  0  0  0  0
 11 48  1  0  0  0  0
 11 49  1  0  0  0  0
 12 13  1  0  0  0  0
 12 50  1  0  0  0  0
 12 51  1  0  0  0  0
 13 14  1  0  0  0  0
 13 18  1  0  0  0  0
 14 15  1  0  0  0  0
 14 52  1  0  0  0  0
 14 53  1  0  0  0  0
 15 16  1  0  0  0  0
 15 54  1  0  0  0  0
 15 55  1  0  0  0  0
 16 17  1  0  0  0  0
 16 18  1  0  0  0  0
 16 56  1  1  0  0  0
 17 57  1  0  0  0  0
 18 58  1  0  0  0  0
 18 59  1  0  0  0  0
 19 60  1  0  0  0  0
 20 21  1  0  0  0  0
 20 41  1  0  0  0  0
 21 22  1  0  0  0  0
 22 23  2  0  0  0  0
 22 61  1  0  0  0  0
 23 24  1  0  0  0  0
 23 41  1  0  0  0  0
 24 25  1  0  0  0  0
 24 40  2  0  0  0  0
 25 26  2  0  0  0  0
 25 62  1  0  0  0  0
 26 27  1  0  0  0  0
 26 63  1  0  0  0  0
 27 28  1  0  0  0  0
 27 39  2  0  0  0  0
 28 29  1  0  0  0  0
 28 64  1  0  0  0  0
 29 30  2  0  0  0  0
 29 31  1  0  0  0  0
 31 32  1  0  0  0  0
 31 65  1  0  0  0  0
 32 33  1  0  0  0  0
 32 38  2  0  0  0  0
 33 34  2  0  0  0  0
 33 66  1  0  0  0  0
 34 35  1  0  0  0  0
 34 67  1  0  0  0  0
 35 36  2  0  0  0  0
 35 68  1  0  0  0  0
 36 37  1  0  0  0  0
 36 38  1  0  0  0  0
 38 69  1  0  0  0  0
 39 40  1  0  0  0  0
 39 70  1  0  0  0  0
 40 71  1  0  0  0  0
M  END
$$$$
