CHEMBL3354185
 OpenBabel04072215363D

 50 54  0  0  0  0  0  0  0  0999 V2000
    2.0462    1.4606   -0.2477 C   0  0  0  0  0  0  0  0  0  0  0  0
    3.1463    0.6705   -0.6774 O   0  0  0  0  0  0  0  0  0  0  0  0
    4.4312    1.2153   -0.3403 C   0  0  0  0  0  0  0  0  0  0  0  0
    5.4981    0.3564   -1.0334 C   0  0  0  0  0  0  0  0  0  0  0  0
    5.5583   -1.0571   -0.4442 C   0  0  0  0  0  0  0  0  0  0  0  0
    5.6867   -0.9942    1.0086 N   0  0  0  0  0  0  0  0  0  0  0  0
    6.8958   -1.2806    1.6027 C   0  0  0  0  0  0  0  0  0  0  0  0
    7.1686   -0.7861    2.8179 N   0  0  0  0  0  0  0  0  0  0  0  0
    8.3248   -1.1555    3.3933 C   0  0  0  0  0  0  0  0  0  0  0  0
    9.2221   -2.0130    2.8107 C   0  0  0  0  0  0  0  0  0  0  0  0
    8.8779   -2.4956    1.5691 C   0  0  0  0  0  0  0  0  0  0  0  0
    9.6898   -3.4829    0.9870 N   0  0  0  0  0  0  0  0  0  0  0  0
    9.3889   -4.3902   -0.0352 C   0  0  0  0  0  0  0  0  0  0  0  0
    8.0738   -4.7415   -0.3290 C   0  0  0  0  0  0  0  0  0  0  0  0
    7.9012   -5.6608   -1.3509 C   0  0  0  0  0  0  0  0  0  0  0  0
    6.7818   -6.1885   -1.9311 N   0  0  0  0  0  0  0  0  0  0  0  0
    7.1769   -7.0775   -2.8941 C   0  0  0  0  0  0  0  0  0  0  0  0
    6.2393   -7.8478   -3.7361 C   0  0  0  0  0  0  0  0  0  0  0  0
    6.5454   -8.8260   -4.6953 C   0  0  0  0  0  0  0  0  0  0  0  0
    5.4470   -9.3221   -5.2780 N   0  0  0  0  0  0  0  0  0  0  0  0
    4.4462   -8.6494   -4.6863 N   0  0  0  0  0  0  0  0  0  0  0  0
    4.8668   -7.7542   -3.7438 C   0  0  0  0  0  0  0  0  0  0  0  0
    8.4935   -7.1452   -2.9627 N   0  0  0  0  0  0  0  0  0  0  0  0
    8.9607   -6.2526   -2.0190 C   0  0  0  0  0  0  0  0  0  0  0  0
   10.2549   -5.8795   -1.6498 C   0  0  0  0  0  0  0  0  0  0  0  0
   10.4513   -4.9491   -0.6674 N   0  0  0  0  0  0  0  0  0  0  0  0
    7.7349   -2.1137    0.9706 N   0  0  0  0  0  0  0  0  0  0  0  0
    4.6961   -0.1999    1.7188 C   0  0  0  0  0  0  0  0  0  0  0  0
    4.6877    1.2244    1.1726 C   0  0  0  0  0  0  0  0  0  0  0  0
    1.1298    1.0082   -0.6374 H   0  0  0  0  0  0  0  0  0  0  0  0
    2.1238    2.4820   -0.6309 H   0  0  0  0  0  0  0  0  0  0  0  0
    1.9712    1.4672    0.8426 H   0  0  0  0  0  0  0  0  0  0  0  0
    4.4905    2.2369   -0.7359 H   0  0  0  0  0  0  0  0  0  0  0  0
    6.4774    0.8385   -0.9273 H   0  0  0  0  0  0  0  0  0  0  0  0
    5.2802    0.2814   -2.1069 H   0  0  0  0  0  0  0  0  0  0  0  0
    6.3704   -1.6100   -0.9302 H   0  0  0  0  0  0  0  0  0  0  0  0
    4.6379   -1.5999   -0.6916 H   0  0  0  0  0  0  0  0  0  0  0  0
    8.5006   -0.7445    4.3825 H   0  0  0  0  0  0  0  0  0  0  0  0
   10.1207   -2.3236    3.3247 H   0  0  0  0  0  0  0  0  0  0  0  0
   10.6833   -3.2988    1.0018 H   0  0  0  0  0  0  0  0  0  0  0  0
    7.2255   -4.3236    0.2000 H   0  0  0  0  0  0  0  0  0  0  0  0
    5.8287   -5.9598   -1.6947 H   0  0  0  0  0  0  0  0  0  0  0  0
    7.5193   -9.1991   -4.9884 H   0  0  0  0  0  0  0  0  0  0  0  0
    3.4944   -8.8544   -4.9799 H   0  0  0  0  0  0  0  0  0  0  0  0
    4.1604   -7.1495   -3.1964 H   0  0  0  0  0  0  0  0  0  0  0  0
   11.1381   -6.2976   -2.1164 H   0  0  0  0  0  0  0  0  0  0  0  0
    4.8465   -0.1853    2.8033 H   0  0  0  0  0  0  0  0  0  0  0  0
    3.7099   -0.6595    1.5696 H   0  0  0  0  0  0  0  0  0  0  0  0
    5.6527    1.7056    1.3739 H   0  0  0  0  0  0  0  0  0  0  0  0
    3.9267    1.8067    1.6999 H   0  0  0  0  0  0  0  0  0  0  0  0
  1  2  1  0  0  0  0
  1 30  1  0  0  0  0
  1 31  1  0  0  0  0
  1 32  1  0  0  0  0
  2  3  1  0  0  0  0
  3  4  1  0  0  0  0
  3 29  1  0  0  0  0
  3 33  1  0  0  0  0
  4  5  1  0  0  0  0
  4 34  1  0  0  0  0
  4 35  1  0  0  0  0
  5  6  1  0  0  0  0
  5 36  1  0  0  0  0
  5 37  1  0  0  0  0
  6  7  1  0  0  0  0
  6 28  1  0  0  0  0
  7  8  1  0  0  0  0
  7 27  2  0  0  0  0
  8  9  2  0  0  0  0
  9 10  1  0  0  0  0
  9 38  1  0  0  0  0
 10 11  2  0  0  0  0
 10 39  1  0  0  0  0
 11 12  1  0  0  0  0
 11 27  1  0  0  0  0
 12 13  1  0  0  0  0
 12 40  1  0  0  0  0
 13 14  1  0  0  0  0
 13 26  2  0  0  0  0
 14 15  2  0  0  0  0
 14 41  1  0  0  0  0
 15 16  1  0  0  0  0
 15 24  1  0  0  0  0
 16 17  1  0  0  0  0
 16 42  1  0  0  0  0
 17 18  1  0  0  0  0
 17 23  2  0  0  0  0
 18 19  1  0  0  0  0
 18 22  2  0  0  0  0
 19 20  2  0  0  0  0
 19 43  1  0  0  0  0
 20 21  1  0  0  0  0
 21 22  1  0  0  0  0
 21 44  1  0  0  0  0
 22 45  1  0  0  0  0
 23 24  1  0  0  0  0
 24 25  2  0  0  0  0
 25 26  1  0  0  0  0
 25 46  1  0  0  0  0
 28 29  1  0  0  0  0
 28 47  1  0  0  0  0
 28 48  1  0  0  0  0
 29 49  1  0  0  0  0
 29 50  1  0  0  0  0
M  END
$$$$
