CHEMBL2348992
 OpenBabel04072215363D

 59 63  0  0  0  0  0  0  0  0999 V2000
    3.5823    0.9479   -0.6824 C   0  0  0  0  0  0  0  0  0  0  0  0
    2.4950    0.3476    0.1908 C   0  0  0  0  0  0  0  0  0  0  0  0
    3.0305   -0.5463    1.2867 C   0  0  0  0  0  0  0  0  0  0  0  0
    3.4575    0.1404    2.4467 C   0  0  0  0  0  0  0  0  0  0  0  0
    3.7819   -0.5271    3.6153 C   0  0  0  0  0  0  0  0  0  0  0  0
    3.6389   -1.9054    3.6623 C   0  0  0  0  0  0  0  0  0  0  0  0
    3.8998   -2.6091    4.8593 O   0  0  0  0  0  0  0  0  0  0  0  0
    3.4738   -2.0527    6.0673 C   0  0  0  0  0  0  0  0  0  0  0  0
    4.2859   -2.6180    7.1706 C   0  0  0  0  0  0  0  0  0  0  0  0
    4.0030   -2.1839    8.4072 C   0  0  0  0  0  0  0  0  0  0  0  0
    2.9810   -1.2263    8.5862 C   0  0  0  0  0  0  0  0  0  0  0  0
    2.5185   -0.6414    9.6671 N   0  0  0  0  0  0  0  0  0  0  0  0
    1.5602    0.2261    9.2355 C   0  0  0  0  0  0  0  0  0  0  0  0
    0.8381    1.0505   10.0674 N   0  0  0  0  0  0  0  0  0  0  0  0
    0.9793    1.0709   11.4393 C   0  0  0  0  0  0  0  0  0  0  0  0
    1.7264    0.3826   12.1196 O   0  0  0  0  0  0  0  0  0  0  0  0
    0.1056    2.0400   12.1716 C   0  0  0  0  0  0  0  0  0  0  0  0
   -1.3952    1.8597   12.1380 C   0  0  0  0  0  0  0  0  0  0  0  0
   -0.7762    3.0971   11.5547 C   0  0  0  0  0  0  0  0  0  0  0  0
    1.4330    0.1812    7.8666 C   0  0  0  0  0  0  0  0  0  0  0  0
    2.3295   -0.7721    7.4541 N   0  0  0  0  0  0  0  0  0  0  0  0
    2.5336   -1.1645    6.1675 N   0  0  0  0  0  0  0  0  0  0  0  0
    3.3224   -2.6170    2.4992 C   0  0  0  0  0  0  0  0  0  0  0  0
    3.0311   -1.9635    1.2778 C   0  0  0  0  0  0  0  0  0  0  0  0
    2.7683   -2.7026    0.0680 N   0  0  0  0  0  0  0  0  0  0  0  0
    2.4803   -4.0729    0.0310 C   0  0  0  0  0  0  0  0  0  0  0  0
    2.3098   -4.7227    1.0496 O   0  0  0  0  0  0  0  0  0  0  0  0
    2.3422   -4.7426   -1.2602 C   0  0  0  0  0  0  0  0  0  0  0  0
    2.4139   -4.3304   -2.5829 C   0  0  0  0  0  0  0  0  0  0  0  0
    2.2032   -5.4949   -3.3674 C   0  0  0  0  0  0  0  0  0  0  0  0
    2.1994   -5.6663   -4.8434 C   0  0  0  0  0  0  0  0  0  0  0  0
    1.9968   -6.5664   -2.6022 N   0  0  0  0  0  0  0  0  0  0  0  0
    2.0970   -6.1013   -1.3458 N   0  0  0  0  0  0  0  0  0  0  0  0
    1.9834   -7.0556   -0.2597 C   0  0  0  0  0  0  0  0  0  0  0  0
    3.1875    1.8007   -1.2469 H   0  0  0  0  0  0  0  0  0  0  0  0
    3.9419    0.2043   -1.3965 H   0  0  0  0  0  0  0  0  0  0  0  0
    4.4369    1.3051   -0.0964 H   0  0  0  0  0  0  0  0  0  0  0  0
    1.7522   -0.1775   -0.4187 H   0  0  0  0  0  0  0  0  0  0  0  0
    1.9372    1.1695    0.6651 H   0  0  0  0  0  0  0  0  0  0  0  0
    3.4937    1.2292    2.4635 H   0  0  0  0  0  0  0  0  0  0  0  0
    4.0891    0.0320    4.4874 H   0  0  0  0  0  0  0  0  0  0  0  0
    5.0854   -3.3136    6.9587 H   0  0  0  0  0  0  0  0  0  0  0  0
    4.5453   -2.5243    9.2813 H   0  0  0  0  0  0  0  0  0  0  0  0
    0.1626    1.6528    9.6301 H   0  0  0  0  0  0  0  0  0  0  0  0
    0.5301    2.3007   13.1400 H   0  0  0  0  0  0  0  0  0  0  0  0
   -1.9294    1.9448   13.0780 H   0  0  0  0  0  0  0  0  0  0  0  0
   -1.8098    1.1195   11.4630 H   0  0  0  0  0  0  0  0  0  0  0  0
   -0.8972    4.0255   12.1058 H   0  0  0  0  0  0  0  0  0  0  0  0
   -0.8189    3.2365   10.4842 H   0  0  0  0  0  0  0  0  0  0  0  0
    0.8230    0.7144    7.1565 H   0  0  0  0  0  0  0  0  0  0  0  0
    3.3199   -3.6985    2.5926 H   0  0  0  0  0  0  0  0  0  0  0  0
    2.7733   -2.1957   -0.8014 H   0  0  0  0  0  0  0  0  0  0  0  0
    2.5995   -3.3343   -2.9583 H   0  0  0  0  0  0  0  0  0  0  0  0
    2.4226   -4.7267   -5.3560 H   0  0  0  0  0  0  0  0  0  0  0  0
    1.2246   -6.0258   -5.1921 H   0  0  0  0  0  0  0  0  0  0  0  0
    2.9540   -6.4034   -5.1418 H   0  0  0  0  0  0  0  0  0  0  0  0
    1.7313   -8.0427   -0.6600 H   0  0  0  0  0  0  0  0  0  0  0  0
    1.1840   -6.7360    0.4121 H   0  0  0  0  0  0  0  0  0  0  0  0
    2.9479   -7.1068    0.2508 H   0  0  0  0  0  0  0  0  0  0  0  0
  1  2  1  0  0  0  0
  1 35  1  0  0  0  0
  1 36  1  0  0  0  0
  1 37  1  0  0  0  0
  2  3  1  0  0  0  0
  2 38  1  0  0  0  0
  2 39  1  0  0  0  0
  3  4  1  0  0  0  0
  3 24  2  0  0  0  0
  4  5  2  0  0  0  0
  4 40  1  0  0  0  0
  5  6  1  0  0  0  0
  5 41  1  0  0  0  0
  6  7  1  0  0  0  0
  6 23  2  0  0  0  0
  7  8  1  0  0  0  0
  8  9  1  0  0  0  0
  8 22  2  0  0  0  0
  9 10  2  0  0  0  0
  9 42  1  0  0  0  0
 10 11  1  0  0  0  0
 10 43  1  0  0  0  0
 11 12  2  0  0  0  0
 11 21  1  0  0  0  0
 12 13  1  0  0  0  0
 13 14  1  0  0  0  0
 13 20  2  0  0  0  0
 14 15  1  0  0  0  0
 14 44  1  0  0  0  0
 15 16  2  0  0  0  0
 15 17  1  0  0  0  0
 17 18  1  0  0  0  0
 17 19  1  0  0  0  0
 17 45  1  0  0  0  0
 18 19  1  0  0  0  0
 18 46  1  0  0  0  0
 18 47  1  0  0  0  0
 19 48  1  0  0  0  0
 19 49  1  0  0  0  0
 20 21  1  0  0  0  0
 20 50  1  0  0  0  0
 21 22  1  0  0  0  0
 23 24  1  0  0  0  0
 23 51  1  0  0  0  0
 24 25  1  0  0  0  0
 25 26  1  0  0  0  0
 25 52  1  0  0  0  0
 26 27  2  0  0  0  0
 26 28  1  0  0  0  0
 28 29  2  0  0  0  0
 28 33  1  0  0  0  0
 29 30  1  0  0  0  0
 29 53  1  0  0  0  0
 30 31  1  0  0  0  0
 30 32  2  0  0  0  0
 31 54  1  0  0  0  0
 31 55  1  0  0  0  0
 31 56  1  0  0  0  0
 32 33  1  0  0  0  0
 33 34  1  0  0  0  0
 34 57  1  0  0  0  0
 34 58  1  0  0  0  0
 34 59  1  0  0  0  0
M  END
$$$$
