CHEMBL1996587
 OpenBabel04072215363D

 50 54  0  0  0  0  0  0  0  0999 V2000
    2.0503    1.2424    0.7049 C   0  0  0  0  0  0  0  0  0  0  0  0
    2.4901   -0.0891    0.0527 C   0  0  0  0  0  0  0  0  0  0  0  0
    3.6481   -0.6679    0.8894 C   0  0  0  0  0  0  0  0  0  0  0  0
    1.3029   -1.0813    0.0764 C   0  0  0  0  0  0  0  0  0  0  0  0
    0.1546   -0.6160   -0.6256 O   0  0  0  0  0  0  0  0  0  0  0  0
    2.9635    0.1942   -1.3539 C   0  0  0  0  0  0  0  0  0  0  0  0
    3.0888    1.3921   -1.8995 N   0  0  0  0  0  0  0  0  0  0  0  0
    3.5653    1.2512   -3.1740 N   0  0  0  0  0  0  0  0  0  0  0  0
    3.7261   -0.0345   -3.3932 C   0  0  0  0  0  0  0  0  0  0  0  0
    4.1557   -0.7411   -4.5261 C   0  0  0  0  0  0  0  0  0  0  0  0
    4.1781   -2.0742   -4.4754 C   0  0  0  0  0  0  0  0  0  0  0  0
    3.8632   -2.7430   -3.1730 C   0  0  0  0  0  0  0  0  0  0  0  0
    4.0372   -4.1756   -3.0961 C   0  0  0  0  0  0  0  0  0  0  0  0
    4.9618   -5.0572   -3.6889 C   0  0  0  0  0  0  0  0  0  0  0  0
    6.0862   -4.7012   -4.5441 C   0  0  0  0  0  0  0  0  0  0  0  0
    6.8145   -3.5133   -4.3238 C   0  0  0  0  0  0  0  0  0  0  0  0
    7.7899   -3.0959   -5.2237 C   0  0  0  0  0  0  0  0  0  0  0  0
    8.1167   -3.9088   -6.3024 C   0  0  0  0  0  0  0  0  0  0  0  0
    9.0730   -3.5159   -7.1521 F   0  0  0  0  0  0  0  0  0  0  0  0
    7.4651   -5.1157   -6.5078 C   0  0  0  0  0  0  0  0  0  0  0  0
    6.4451   -5.4955   -5.6375 C   0  0  0  0  0  0  0  0  0  0  0  0
    5.7859   -6.6391   -5.9134 F   0  0  0  0  0  0  0  0  0  0  0  0
    4.6787   -6.3788   -3.3689 N   0  0  0  0  0  0  0  0  0  0  0  0
    3.6475   -6.3078   -2.5747 C   0  0  0  0  0  0  0  0  0  0  0  0
    3.2698   -5.0204   -2.3608 N   0  0  0  0  0  0  0  0  0  0  0  0
    2.0945   -4.9153   -1.5203 C   0  0  0  0  0  0  0  0  0  0  0  0
    2.0193   -6.3197   -0.8930 C   0  0  0  0  0  0  0  0  0  0  0  0
    2.7684   -7.2588   -1.8687 C   0  0  0  0  0  0  0  0  0  0  0  0
    3.4541   -2.1154   -2.1095 N   0  0  0  0  0  0  0  0  0  0  0  0
    3.3737   -0.7564   -2.2699 N   0  0  0  0  0  0  0  0  0  0  0  0
    1.6901    1.0856    1.7265 H   0  0  0  0  0  0  0  0  0  0  0  0
    1.2475    1.7265    0.1355 H   0  0  0  0  0  0  0  0  0  0  0  0
    2.8819    1.9565    0.7504 H   0  0  0  0  0  0  0  0  0  0  0  0
    3.3402   -0.8318    1.9286 H   0  0  0  0  0  0  0  0  0  0  0  0
    4.5098    0.0094    0.8992 H   0  0  0  0  0  0  0  0  0  0  0  0
    3.9951   -1.6311    0.4989 H   0  0  0  0  0  0  0  0  0  0  0  0
    0.9956   -1.2901    1.1077 H   0  0  0  0  0  0  0  0  0  0  0  0
    1.5731   -2.0414   -0.3661 H   0  0  0  0  0  0  0  0  0  0  0  0
   -0.2207    0.1335   -0.1309 H   0  0  0  0  0  0  0  0  0  0  0  0
    4.4439   -0.1977   -5.4155 H   0  0  0  0  0  0  0  0  0  0  0  0
    4.4816   -2.6596   -5.3332 H   0  0  0  0  0  0  0  0  0  0  0  0
    6.5914   -2.8733   -3.4739 H   0  0  0  0  0  0  0  0  0  0  0  0
    8.2922   -2.1411   -5.0924 H   0  0  0  0  0  0  0  0  0  0  0  0
    7.7304   -5.7463   -7.3489 H   0  0  0  0  0  0  0  0  0  0  0  0
    1.2386   -4.7011   -2.1666 H   0  0  0  0  0  0  0  0  0  0  0  0
    2.2392   -4.1400   -0.7687 H   0  0  0  0  0  0  0  0  0  0  0  0
    0.9916   -6.6414   -0.6997 H   0  0  0  0  0  0  0  0  0  0  0  0
    2.5464   -6.3099    0.0707 H   0  0  0  0  0  0  0  0  0  0  0  0
    2.0676   -7.7271   -2.5677 H   0  0  0  0  0  0  0  0  0  0  0  0
    3.3227   -8.0338   -1.3340 H   0  0  0  0  0  0  0  0  0  0  0  0
  1  2  1  0  0  0  0
  1 31  1  0  0  0  0
  1 32  1  0  0  0  0
  1 33  1  0  0  0  0
  2  3  1  0  0  0  0
  2  4  1  0  0  0  0
  2  6  1  0  0  0  0
  3 34  1  0  0  0  0
  3 35  1  0  0  0  0
  3 36  1  0  0  0  0
  4  5  1  0  0  0  0
  4 37  1  0  0  0  0
  4 38  1  0  0  0  0
  5 39  1  0  0  0  0
  6  7  2  0  0  0  0
  6 30  1  0  0  0  0
  7  8  1  0  0  0  0
  8  9  2  0  0  0  0
  9 10  1  0  0  0  0
  9 30  1  0  0  0  0
 10 11  2  0  0  0  0
 10 40  1  0  0  0  0
 11 12  1  0  0  0  0
 11 41  1  0  0  0  0
 12 13  1  0  0  0  0
 12 29  2  0  0  0  0
 13 14  2  0  0  0  0
 13 25  1  0  0  0  0
 14 15  1  0  0  0  0
 14 23  1  0  0  0  0
 15 16  1  0  0  0  0
 15 21  2  0  0  0  0
 16 17  2  0  0  0  0
 16 42  1  0  0  0  0
 17 18  1  0  0  0  0
 17 43  1  0  0  0  0
 18 19  1  0  0  0  0
 18 20  2  0  0  0  0
 20 21  1  0  0  0  0
 20 44  1  0  0  0  0
 21 22  1  0  0  0  0
 23 24  2  0  0  0  0
 24 25  1  0  0  0  0
 24 28  1  0  0  0  0
 25 26  1  0  0  0  0
 26 27  1  0  0  0  0
 26 45  1  0  0  0  0
 26 46  1  0  0  0  0
 27 28  1  0  0  0  0
 27 47  1  0  0  0  0
 27 48  1  0  0  0  0
 28 49  1  0  0  0  0
 28 50  1  0  0  0  0
 29 30  1  0  0  0  0
M  END
$$$$
