CHEMBL3983179
 OpenBabel04072215373D

 56 59  0  0  1  0  0  0  0  0999 V2000
    3.5125   -1.0740    0.5667 C   0  0  0  0  0  0  0  0  0  0  0  0
    2.6983    0.1016    0.5764 O   0  0  0  0  0  0  0  0  0  0  0  0
    3.2190    1.2072   -0.0444 C   0  0  0  0  0  0  0  0  0  0  0  0
    4.1910    1.1213   -1.0491 C   0  0  0  0  0  0  0  0  0  0  0  0
    4.8041    2.2888   -1.5750 C   0  0  0  0  0  0  0  0  0  0  0  0
    5.8820    2.3138   -2.4653 C   0  0  0  0  0  0  0  0  0  0  0  0
    6.4096    1.0869   -2.9470 N   0  0  0  0  0  0  0  0  0  0  0  0
    7.6777    0.9730   -3.5453 C   0  0  0  0  0  0  0  0  0  0  0  0
    8.8060    1.5304   -2.9268 C   0  0  0  0  0  0  0  0  0  0  0  0
   10.0518    1.5021   -3.5561 C   0  0  0  0  0  0  0  0  0  0  0  0
   10.1822    0.9109   -4.8116 C   0  0  0  0  0  0  0  0  0  0  0  0
   11.7354    0.9617   -5.5646 Cl  0  0  0  0  0  0  0  0  0  0  0  0
    9.0695    0.3183   -5.4212 C   0  0  0  0  0  0  0  0  0  0  0  0
    9.1566   -0.4393   -6.9720 Cl  0  0  0  0  0  0  0  0  0  0  0  0
    7.8239    0.3456   -4.7842 C   0  0  0  0  0  0  0  0  0  0  0  0
    6.4707    3.4636   -2.8563 N   0  0  0  0  0  0  0  0  0  0  0  0
    5.9621    4.5984   -2.3768 C   0  0  0  0  0  0  0  0  0  0  0  0
    4.9220    4.6934   -1.5539 N   0  0  0  0  0  0  0  0  0  0  0  0
    4.3755    3.5428   -1.1537 C   0  0  0  0  0  0  0  0  0  0  0  0
    3.3490    3.6128   -0.2426 C   0  0  0  0  0  0  0  0  0  0  0  0
    2.7746    2.4759    0.3560 C   0  0  0  0  0  0  0  0  0  0  0  0
    1.8143    2.5742    1.3522 O   0  0  0  0  0  0  0  0  0  0  0  0
    1.5788    3.9309    1.7707 C   0  0  0  0  0  0  0  0  0  0  0  0
    0.6184    4.1108    2.9571 C   0  0  3  0  0  0  0  0  0  0  0  0
   -0.7476    3.4590    2.6003 C   0  0  0  0  0  0  0  0  0  0  0  0
   -1.7824    3.6835    3.6326 N   0  0  0  0  0  0  0  0  0  0  0  0
   -3.0595    3.1223    3.2024 C   0  0  0  0  0  0  0  0  0  0  0  0
   -1.9105    5.1295    3.8880 C   0  0  0  0  0  0  0  0  0  0  0  0
   -0.5658    5.7538    4.3041 C   0  0  0  0  0  0  0  0  0  0  0  0
    0.4636    5.5701    3.2701 N   0  0  0  0  0  0  0  0  0  0  0  0
    1.7140    6.2092    3.6848 C   0  0  0  0  0  0  0  0  0  0  0  0
    3.3096   -1.6367    1.4823 H   0  0  0  0  0  0  0  0  0  0  0  0
    4.5880   -0.8585    0.5627 H   0  0  0  0  0  0  0  0  0  0  0  0
    3.2508   -1.7052   -0.2896 H   0  0  0  0  0  0  0  0  0  0  0  0
    4.5248    0.1540   -1.4084 H   0  0  0  0  0  0  0  0  0  0  0  0
    5.6792    0.5819   -3.4421 H   0  0  0  0  0  0  0  0  0  0  0  0
    8.7130    2.0133   -1.9593 H   0  0  0  0  0  0  0  0  0  0  0  0
   10.9035    1.9656   -3.0668 H   0  0  0  0  0  0  0  0  0  0  0  0
    6.9612   -0.1011   -5.2767 H   0  0  0  0  0  0  0  0  0  0  0  0
    6.4420    5.5245   -2.6722 H   0  0  0  0  0  0  0  0  0  0  0  0
    3.0459    4.6211    0.0198 H   0  0  0  0  0  0  0  0  0  0  0  0
    1.1571    4.4883    0.9225 H   0  0  0  0  0  0  0  0  0  0  0  0
    2.5443    4.3510    2.0701 H   0  0  0  0  0  0  0  0  0  0  0  0
    1.0251    3.5833    3.8312 H   0  0  0  0  0  0  0  0  0  0  0  0
   -0.6004    2.3789    2.4778 H   0  0  0  0  0  0  0  0  0  0  0  0
   -1.0932    3.8521    1.6335 H   0  0  0  0  0  0  0  0  0  0  0  0
   -2.9625    2.0466    3.0198 H   0  0  0  0  0  0  0  0  0  0  0  0
   -3.4341    3.5947    2.2870 H   0  0  0  0  0  0  0  0  0  0  0  0
   -3.8138    3.2444    3.9873 H   0  0  0  0  0  0  0  0  0  0  0  0
   -2.6316    5.2992    4.6960 H   0  0  0  0  0  0  0  0  0  0  0  0
   -2.2896    5.6509    2.9973 H   0  0  0  0  0  0  0  0  0  0  0  0
   -0.2350    5.3237    5.2585 H   0  0  0  0  0  0  0  0  0  0  0  0
   -0.7305    6.8264    4.4676 H   0  0  0  0  0  0  0  0  0  0  0  0
    1.5330    7.2179    4.0750 H   0  0  0  0  0  0  0  0  0  0  0  0
    2.3848    6.3488    2.8306 H   0  0  0  0  0  0  0  0  0  0  0  0
    2.2408    5.6358    4.4552 H   0  0  0  0  0  0  0  0  0  0  0  0
  1  2  1  0  0  0  0
  1 32  1  0  0  0  0
  1 33  1  0  0  0  0
  1 34  1  0  0  0  0
  2  3  1  0  0  0  0
  3  4  1  0  0  0  0
  3 21  2  0  0  0  0
  4  5  2  0  0  0  0
  4 35  1  0  0  0  0
  5  6  1  0  0  0  0
  5 19  1  0  0  0  0
  6  7  1  0  0  0  0
  6 16  2  0  0  0  0
  7  8  1  0  0  0  0
  7 36  1  0  0  0  0
  8  9  1  0  0  0  0
  8 15  2  0  0  0  0
  9 10  2  0  0  0  0
  9 37  1  0  0  0  0
 10 11  1  0  0  0  0
 10 38  1  0  0  0  0
 11 12  1  0  0  0  0
 11 13  2  0  0  0  0
 13 14  1  0  0  0  0
 13 15  1  0  0  0  0
 15 39  1  0  0  0  0
 16 17  1  0  0  0  0
 17 18  2  0  0  0  0
 17 40  1  0  0  0  0
 18 19  1  0  0  0  0
 19 20  2  0  0  0  0
 20 21  1  0  0  0  0
 20 41  1  0  0  0  0
 21 22  1  0  0  0  0
 22 23  1  0  0  0  0
 23 24  1  0  0  0  0
 23 42  1  0  0  0  0
 23 43  1  0  0  0  0
 24 25  1  0  0  0  0
 24 30  1  0  0  0  0
 24 44  1  0  0  0  0
 25 26  1  0  0  0  0
 25 45  1  0  0  0  0
 25 46  1  0  0  0  0
 26 27  1  0  0  0  0
 26 28  1  0  0  0  0
 27 47  1  0  0  0  0
 27 48  1  0  0  0  0
 27 49  1  0  0  0  0
 28 29  1  0  0  0  0
 28 50  1  0  0  0  0
 28 51  1  0  0  0  0
 29 30  1  0  0  0  0
 29 52  1  0  0  0  0
 29 53  1  0  0  0  0
 30 31  1  0  0  0  0
 31 54  1  0  0  0  0
 31 55  1  0  0  0  0
 31 56  1  0  0  0  0
M  END
$$$$
