CHEMBL4796056
 OpenBabel04072215383D

 72 77  0  0  0  0  0  0  0  0999 V2000
    3.5647   -1.9334    2.1329 C   0  0  0  0  0  0  0  0  0  0  0  0
    4.3413   -1.1110    1.2622 O   0  0  0  0  0  0  0  0  0  0  0  0
    4.5733    0.1628    1.6957 C   0  0  0  0  0  0  0  0  0  0  0  0
    4.1551    0.6914    2.9180 C   0  0  0  0  0  0  0  0  0  0  0  0
    4.4564    1.9920    3.2714 C   0  0  0  0  0  0  0  0  0  0  0  0
    5.1696    2.8557    2.4331 C   0  0  0  0  0  0  0  0  0  0  0  0
    5.4372    4.2219    2.7584 N   0  0  0  0  0  0  0  0  0  0  0  0
    5.0609    4.8228    3.9495 C   0  0  0  0  0  0  0  0  0  0  0  0
    4.5175    4.1978    4.8522 O   0  0  0  0  0  0  0  0  0  0  0  0
    5.3227    6.1763    4.0338 N   0  0  0  0  0  0  0  0  0  0  0  0
    4.9693    6.9020    5.1866 C   0  0  0  0  0  0  0  0  0  0  0  0
    4.9618    8.2349    5.1071 N   0  0  0  0  0  0  0  0  0  0  0  0
    4.4794    8.8602    6.2070 C   0  0  0  0  0  0  0  0  0  0  0  0
    4.5444   10.6549    6.2936 S   0  0  0  0  0  0  0  0  0  0  0  0
    5.9459   10.7759    7.3410 C   0  0  0  0  0  0  0  0  0  0  0  0
    7.2353   10.6046    6.8911 C   0  0  0  0  0  0  0  0  0  0  0  0
    8.0277   10.8234    7.9810 N   0  0  0  0  0  0  0  0  0  0  0  0
    7.3096   10.4454    9.0907 C   0  0  0  0  0  0  0  0  0  0  0  0
    7.7181    9.8938   10.3043 C   0  0  0  0  0  0  0  0  0  0  0  0
    6.7246    9.6969   11.2617 C   0  0  0  0  0  0  0  0  0  0  0  0
    5.4299   10.1791   11.0575 C   0  0  0  0  0  0  0  0  0  0  0  0
    5.0425   10.7259    9.8229 C   0  0  0  0  0  0  0  0  0  0  0  0
    5.9806   10.7295    8.7727 C   0  0  0  0  0  0  0  0  0  0  0  0
    4.0023    8.2114    7.3219 C   0  0  0  0  0  0  0  0  0  0  0  0
    4.1200    6.8532    7.3486 C   0  0  0  0  0  0  0  0  0  0  0  0
    3.6617    6.1069    8.4036 N   0  0  0  0  0  0  0  0  0  0  0  0
    3.3591    4.6809    8.2207 C   0  0  0  0  0  0  0  0  0  0  0  0
    2.0474    4.3783    8.9913 C   0  0  0  0  0  0  0  0  0  0  0  0
    2.0596    4.7434   10.4361 N   0  0  0  0  0  0  0  0  0  0  0  0
    2.9564    3.8887   11.2336 C   0  0  0  0  0  0  0  0  0  0  0  0
    2.6055    2.4155   11.2360 C   0  0  0  0  0  0  0  0  0  0  0  0
    3.5187    1.4724   10.7386 C   0  0  0  0  0  0  0  0  0  0  0  0
    3.2196    0.1093   10.7656 C   0  0  0  0  0  0  0  0  0  0  0  0
    2.0082   -0.3277   11.2960 C   0  0  0  0  0  0  0  0  0  0  0  0
    1.0950    0.5979   11.7987 C   0  0  0  0  0  0  0  0  0  0  0  0
    1.3896    1.9631   11.7665 C   0  0  0  0  0  0  0  0  0  0  0  0
    2.4846    6.1669   10.5486 C   0  0  0  0  0  0  0  0  0  0  0  0
    3.7863    6.5364    9.7932 C   0  0  0  0  0  0  0  0  0  0  0  0
    4.6197    6.2276    6.2864 N   0  0  0  0  0  0  0  0  0  0  0  0
    5.6052    2.3326    1.2082 C   0  0  0  0  0  0  0  0  0  0  0  0
    5.3105    1.0027    0.8489 C   0  0  0  0  0  0  0  0  0  0  0  0
    3.5015   -2.9329    1.6963 H   0  0  0  0  0  0  0  0  0  0  0  0
    2.5451   -1.5433    2.2315 H   0  0  0  0  0  0  0  0  0  0  0  0
    4.0405   -2.0344    3.1149 H   0  0  0  0  0  0  0  0  0  0  0  0
    3.5932    0.0923    3.6309 H   0  0  0  0  0  0  0  0  0  0  0  0
    4.0844    2.2898    4.2442 H   0  0  0  0  0  0  0  0  0  0  0  0
    5.9759    4.7635    2.1000 H   0  0  0  0  0  0  0  0  0  0  0  0
    5.5123    6.7384    3.2249 H   0  0  0  0  0  0  0  0  0  0  0  0
    7.6496   10.3860    5.9166 H   0  0  0  0  0  0  0  0  0  0  0  0
    8.7500   11.5298    8.0081 H   0  0  0  0  0  0  0  0  0  0  0  0
    8.7356    9.5476   10.4563 H   0  0  0  0  0  0  0  0  0  0  0  0
    6.9709    9.1703   12.1813 H   0  0  0  0  0  0  0  0  0  0  0  0
    4.6948   10.0776   11.8523 H   0  0  0  0  0  0  0  0  0  0  0  0
    4.0176   11.0459    9.6629 H   0  0  0  0  0  0  0  0  0  0  0  0
    3.5461    8.7530    8.1354 H   0  0  0  0  0  0  0  0  0  0  0  0
    4.1823    4.0607    8.5967 H   0  0  0  0  0  0  0  0  0  0  0  0
    3.1980    4.4093    7.1716 H   0  0  0  0  0  0  0  0  0  0  0  0
    1.7506    3.3332    8.8488 H   0  0  0  0  0  0  0  0  0  0  0  0
    1.2457    4.9662    8.5194 H   0  0  0  0  0  0  0  0  0  0  0  0
    2.9106    4.2167   12.2812 H   0  0  0  0  0  0  0  0  0  0  0  0
    4.0027    4.0069   10.9317 H   0  0  0  0  0  0  0  0  0  0  0  0
    4.4745    1.7939   10.3306 H   0  0  0  0  0  0  0  0  0  0  0  0
    3.9348   -0.6105   10.3766 H   0  0  0  0  0  0  0  0  0  0  0  0
    1.7768   -1.3894   11.3195 H   0  0  0  0  0  0  0  0  0  0  0  0
    0.1528    0.2567   12.2192 H   0  0  0  0  0  0  0  0  0  0  0  0
    0.6694    2.6777   12.1590 H   0  0  0  0  0  0  0  0  0  0  0  0
    2.5798    6.4541   11.6021 H   0  0  0  0  0  0  0  0  0  0  0  0
    1.6743    6.7879   10.1430 H   0  0  0  0  0  0  0  0  0  0  0  0
    4.6541    6.0466   10.2521 H   0  0  0  0  0  0  0  0  0  0  0  0
    3.9576    7.6110    9.8937 H   0  0  0  0  0  0  0  0  0  0  0  0
    6.1697    2.9501    0.5146 H   0  0  0  0  0  0  0  0  0  0  0  0
    5.6542    0.6190   -0.1112 H   0  0  0  0  0  0  0  0  0  0  0  0
  1  2  1  0  0  0  0
  1 42  1  0  0  0  0
  1 43  1  0  0  0  0
  1 44  1  0  0  0  0
  2  3  1  0  0  0  0
  3  4  1  0  0  0  0
  3 41  2  0  0  0  0
  4  5  2  0  0  0  0
  4 45  1  0  0  0  0
  5  6  1  0  0  0  0
  5 46  1  0  0  0  0
  6  7  1  0  0  0  0
  6 40  2  0  0  0  0
  7  8  1  0  0  0  0
  7 47  1  0  0  0  0
  8  9  2  0  0  0  0
  8 10  1  0  0  0  0
 10 11  1  0  0  0  0
 10 48  1  0  0  0  0
 11 12  1  0  0  0  0
 11 39  2  0  0  0  0
 12 13  2  0  0  0  0
 13 14  1  0  0  0  0
 13 24  1  0  0  0  0
 14 15  1  0  0  0  0
 15 16  2  0  0  0  0
 15 23  1  0  0  0  0
 16 17  1  0  0  0  0
 16 49  1  0  0  0  0
 17 18  1  0  0  0  0
 17 50  1  0  0  0  0
 18 19  1  0  0  0  0
 18 23  2  0  0  0  0
 19 20  2  0  0  0  0
 19 51  1  0  0  0  0
 20 21  1  0  0  0  0
 20 52  1  0  0  0  0
 21 22  2  0  0  0  0
 21 53  1  0  0  0  0
 22 23  1  0  0  0  0
 22 54  1  0  0  0  0
 24 25  2  0  0  0  0
 24 55  1  0  0  0  0
 25 26  1  0  0  0  0
 25 39  1  0  0  0  0
 26 27  1  0  0  0  0
 26 38  1  0  0  0  0
 27 28  1  0  0  0  0
 27 56  1  0  0  0  0
 27 57  1  0  0  0  0
 28 29  1  0  0  0  0
 28 58  1  0  0  0  0
 28 59  1  0  0  0  0
 29 30  1  0  0  0  0
 29 37  1  0  0  0  0
 30 31  1  0  0  0  0
 30 60  1  0  0  0  0
 30 61  1  0  0  0  0
 31 32  1  0  0  0  0
 31 36  2  0  0  0  0
 32 33  2  0  0  0  0
 32 62  1  0  0  0  0
 33 34  1  0  0  0  0
 33 63  1  0  0  0  0
 34 35  2  0  0  0  0
 34 64  1  0  0  0  0
 35 36  1  0  0  0  0
 35 65  1  0  0  0  0
 36 66  1  0  0  0  0
 37 38  1  0  0  0  0
 37 67  1  0  0  0  0
 37 68  1  0  0  0  0
 38 69  1  0  0  0  0
 38 70  1  0  0  0  0
 40 41  1  0  0  0  0
 40 71  1  0  0  0  0
 41 72  1  0  0  0  0
M  END
$$$$
