CHEMBL3934134
 OpenBabel04072215373D

 56 60  0  0  1  0  0  0  0  0999 V2000
    3.0730   -1.1959   -0.3498 C   0  0  0  0  0  0  0  0  0  0  0  0
    2.5530   -0.1312    0.4439 O   0  0  0  0  0  0  0  0  0  0  0  0
    3.0994    1.1186    0.3935 C   0  0  0  0  0  0  0  0  0  0  0  0
    4.1751    1.4443   -0.4348 C   0  0  0  0  0  0  0  0  0  0  0  0
    4.8106    2.6969   -0.3758 C   0  0  0  0  0  0  0  0  0  0  0  0
    5.9193    3.0424   -1.1737 C   0  0  0  0  0  0  0  0  0  0  0  0
    6.3149    2.1517   -2.1951 N   0  0  0  0  0  0  0  0  0  0  0  0
    7.6093    1.8621   -2.6800 C   0  0  0  0  0  0  0  0  0  0  0  0
    8.7172    1.9742   -1.8355 C   0  0  0  0  0  0  0  0  0  0  0  0
    9.9681    1.4974   -2.2242 C   0  0  0  0  0  0  0  0  0  0  0  0
   10.1370    0.9061   -3.4775 C   0  0  0  0  0  0  0  0  0  0  0  0
   11.8524    0.1769   -3.8537 Br  0  0  0  0  0  0  0  0  0  0  0  0
    9.0599    0.8347   -4.3739 C   0  0  0  0  0  0  0  0  0  0  0  0
    9.2745    0.1427   -5.9522 Cl  0  0  0  0  0  0  0  0  0  0  0  0
    7.7980    1.3091   -3.9666 C   0  0  0  0  0  0  0  0  0  0  0  0
    6.4182    1.2233   -5.0302 Cl  0  0  0  0  0  0  0  0  0  0  0  0
    6.5877    4.1923   -1.0078 N   0  0  0  0  0  0  0  0  0  0  0  0
    6.0998    5.0274   -0.0835 C   0  0  0  0  0  0  0  0  0  0  0  0
    5.0233    4.8243    0.6875 N   0  0  0  0  0  0  0  0  0  0  0  0
    4.3873    3.6585    0.5468 C   0  0  0  0  0  0  0  0  0  0  0  0
    3.2690    3.3575    1.3208 C   0  0  0  0  0  0  0  0  0  0  0  0
    2.5934    2.1256    1.2364 C   0  0  0  0  0  0  0  0  0  0  0  0
    1.4753    2.0730    2.0444 O   0  0  0  0  0  0  0  0  0  0  0  0
    0.4891    1.1026    1.6923 C   0  0  0  0  0  0  0  0  0  0  0  0
   -0.8940    1.4875    2.2080 C   0  0  2  0  0  0  0  0  0  0  0  0
   -1.0374    1.5504    3.7178 C   0  0  0  0  0  0  0  0  0  0  0  0
   -2.4447    1.3751    3.9750 O   0  0  0  0  0  0  0  0  0  0  0  0
   -2.9563    0.4841    2.9657 C   0  0  2  0  0  0  0  0  0  0  0  0
   -2.9573   -0.9574    3.4722 C   0  0  1  0  0  0  0  0  0  0  0  0
   -4.2461   -1.4441    3.8431 O   0  0  0  0  0  0  0  0  0  0  0  0
   -4.7866   -0.7431    4.9589 C   0  0  0  0  0  0  0  0  0  0  0  0
   -2.4212   -1.7188    2.2749 C   0  0  0  0  0  0  0  0  0  0  0  0
   -1.4613   -0.8473    1.6664 O   0  0  0  0  0  0  0  0  0  0  0  0
   -1.9677    0.4882    1.8113 C   0  0  2  0  0  0  0  0  0  0  0  0
    3.0671   -2.1030    0.2620 H   0  0  0  0  0  0  0  0  0  0  0  0
    4.1024   -1.0796   -0.6927 H   0  0  0  0  0  0  0  0  0  0  0  0
    2.4171   -1.3571   -1.2106 H   0  0  0  0  0  0  0  0  0  0  0  0
    4.5878    0.7178   -1.1235 H   0  0  0  0  0  0  0  0  0  0  0  0
    5.5826    2.0409   -2.8939 H   0  0  0  0  0  0  0  0  0  0  0  0
    8.6064    2.3943   -0.8396 H   0  0  0  0  0  0  0  0  0  0  0  0
   10.7960    1.5643   -1.5212 H   0  0  0  0  0  0  0  0  0  0  0  0
    6.6284    5.9690    0.0510 H   0  0  0  0  0  0  0  0  0  0  0  0
    2.9063    4.1111    2.0166 H   0  0  0  0  0  0  0  0  0  0  0  0
    0.7909    0.1407    2.1214 H   0  0  0  0  0  0  0  0  0  0  0  0
    0.4032    1.0240    0.6012 H   0  0  0  0  0  0  0  0  0  0  0  0
   -1.1757    2.4785    1.8248 H   0  0  0  0  0  0  0  0  0  0  0  0
   -0.7262    2.5124    4.1356 H   0  0  0  0  0  0  0  0  0  0  0  0
   -0.4942    0.7505    4.2319 H   0  0  0  0  0  0  0  0  0  0  0  0
   -3.9489    0.8322    2.6621 H   0  0  0  0  0  0  0  0  0  0  0  0
   -2.2700   -1.0802    4.3195 H   0  0  0  0  0  0  0  0  0  0  0  0
   -5.7186   -1.2332    5.2516 H   0  0  0  0  0  0  0  0  0  0  0  0
   -5.0191    0.2906    4.6880 H   0  0  0  0  0  0  0  0  0  0  0  0
   -4.0952   -0.7652    5.8067 H   0  0  0  0  0  0  0  0  0  0  0  0
   -3.2039   -1.9548    1.5450 H   0  0  0  0  0  0  0  0  0  0  0  0
   -1.9334   -2.6559    2.5612 H   0  0  0  0  0  0  0  0  0  0  0  0
   -2.4446    0.7625    0.8639 H   0  0  0  0  0  0  0  0  0  0  0  0
  1  2  1  0  0  0  0
  1 35  1  0  0  0  0
  1 36  1  0  0  0  0
  1 37  1  0  0  0  0
  2  3  1  0  0  0  0
  3  4  1  0  0  0  0
  3 22  2  0  0  0  0
  4  5  2  0  0  0  0
  4 38  1  0  0  0  0
  5  6  1  0  0  0  0
  5 20  1  0  0  0  0
  6  7  1  0  0  0  0
  6 17  2  0  0  0  0
  7  8  1  0  0  0  0
  7 39  1  0  0  0  0
  8  9  1  0  0  0  0
  8 15  2  0  0  0  0
  9 10  2  0  0  0  0
  9 40  1  0  0  0  0
 10 11  1  0  0  0  0
 10 41  1  0  0  0  0
 11 12  1  0  0  0  0
 11 13  2  0  0  0  0
 13 14  1  0  0  0  0
 13 15  1  0  0  0  0
 15 16  1  0  0  0  0
 17 18  1  0  0  0  0
 18 19  2  0  0  0  0
 18 42  1  0  0  0  0
 19 20  1  0  0  0  0
 20 21  2  0  0  0  0
 21 22  1  0  0  0  0
 21 43  1  0  0  0  0
 22 23  1  0  0  0  0
 23 24  1  0  0  0  0
 24 25  1  0  0  0  0
 24 44  1  0  0  0  0
 24 45  1  0  0  0  0
 25 26  1  0  0  0  0
 25 34  1  0  0  0  0
 25 46  1  6  0  0  0
 26 27  1  0  0  0  0
 26 47  1  0  0  0  0
 26 48  1  0  0  0  0
 27 28  1  0  0  0  0
 28 29  1  0  0  0  0
 28 34  1  0  0  0  0
 28 49  1  6  0  0  0
 29 30  1  0  0  0  0
 29 32  1  0  0  0  0
 29 50  1  1  0  0  0
 30 31  1  0  0  0  0
 31 51  1  0  0  0  0
 31 52  1  0  0  0  0
 31 53  1  0  0  0  0
 32 33  1  0  0  0  0
 32 54  1  0  0  0  0
 32 55  1  0  0  0  0
 33 34  1  0  0  0  0
 34 56  1  6  0  0  0
M  END
$$$$
