CHEMBL3671486
 OpenBabel04072215373D

 61 63  0  0  0  0  0  0  0  0999 V2000
    2.1549   -1.5259   -1.4947 C   0  0  0  0  0  0  0  0  0  0  0  0
    2.8631   -0.6014   -0.8339 C   0  0  0  0  0  0  0  0  0  0  0  0
    3.4656    0.5480   -1.5585 C   0  0  0  0  0  0  0  0  0  0  0  0
    3.1011    0.8730   -2.6810 O   0  0  0  0  0  0  0  0  0  0  0  0
    4.4922    1.1398   -0.8346 N   0  0  0  0  0  0  0  0  0  0  0  0
    5.1885    2.2066   -1.4469 C   0  0  0  0  0  0  0  0  0  0  0  0
    6.2629    1.8846   -2.2796 C   0  0  0  0  0  0  0  0  0  0  0  0
    6.8677    2.8741   -3.0913 C   0  0  0  0  0  0  0  0  0  0  0  0
    7.9134    2.6332   -4.0007 C   0  0  0  0  0  0  0  0  0  0  0  0
    8.3597    1.3062   -4.2009 N   0  0  0  0  0  0  0  0  0  0  0  0
    9.6462    0.8652   -4.5730 C   0  0  0  0  0  0  0  0  0  0  0  0
   10.8007    1.5738   -4.2199 C   0  0  0  0  0  0  0  0  0  0  0  0
   12.0679    1.0073   -4.3902 C   0  0  0  0  0  0  0  0  0  0  0  0
   12.1893   -0.2749   -4.9235 C   0  0  0  0  0  0  0  0  0  0  0  0
   13.8931   -1.0858   -5.0289 Br  0  0  0  0  0  0  0  0  0  0  0  0
   11.0621   -0.9780   -5.3340 C   0  0  0  0  0  0  0  0  0  0  0  0
    9.8070   -0.4054   -5.1478 C   0  0  0  0  0  0  0  0  0  0  0  0
    8.7181   -1.1072   -5.5024 F   0  0  0  0  0  0  0  0  0  0  0  0
    8.4800    3.6171   -4.7223 N   0  0  0  0  0  0  0  0  0  0  0  0
    7.9685    4.8391   -4.5623 C   0  0  0  0  0  0  0  0  0  0  0  0
    6.9665    5.1806   -3.7376 N   0  0  0  0  0  0  0  0  0  0  0  0
    6.4270    4.1988   -3.0092 C   0  0  0  0  0  0  0  0  0  0  0  0
    5.3959    4.5091   -2.1252 C   0  0  0  0  0  0  0  0  0  0  0  0
    4.7800    3.5422   -1.3219 C   0  0  0  0  0  0  0  0  0  0  0  0
    3.8374    4.0514   -0.4555 O   0  0  0  0  0  0  0  0  0  0  0  0
    3.6874    3.3379    0.7712 C   0  0  0  0  0  0  0  0  0  0  0  0
    3.2471    4.2571    1.9149 C   0  0  0  0  0  0  0  0  0  0  0  0
    3.1615    3.4091    3.1798 C   0  0  0  0  0  0  0  0  0  0  0  0
    2.8183    4.1229    4.3853 N   0  0  0  0  0  0  0  0  0  0  0  0
    2.8101    3.4152    5.5779 C   0  0  0  0  0  0  0  0  0  0  0  0
    3.1876    2.2479    5.6685 O   0  0  0  0  0  0  0  0  0  0  0  0
    2.3436    4.2116    6.7955 C   0  0  0  0  0  0  0  0  0  0  0  0
    1.0119    4.8306    6.5836 N   0  0  0  0  0  0  0  0  0  0  0  0
   -0.0239    3.7977    6.4402 C   0  0  0  0  0  0  0  0  0  0  0  0
    0.6950    5.6614    7.7536 C   0  0  0  0  0  0  0  0  0  0  0  0
    1.6678   -2.3388   -0.9665 H   0  0  0  0  0  0  0  0  0  0  0  0
    2.0350   -1.4863   -2.5749 H   0  0  0  0  0  0  0  0  0  0  0  0
    2.9613   -0.6337    0.2439 H   0  0  0  0  0  0  0  0  0  0  0  0
    5.0649    0.4505   -0.3606 H   0  0  0  0  0  0  0  0  0  0  0  0
    6.6021    0.8537   -2.3414 H   0  0  0  0  0  0  0  0  0  0  0  0
    7.6199    0.7450   -4.6214 H   0  0  0  0  0  0  0  0  0  0  0  0
   10.7231    2.5593   -3.7670 H   0  0  0  0  0  0  0  0  0  0  0  0
   12.9453    1.5642   -4.0715 H   0  0  0  0  0  0  0  0  0  0  0  0
   11.1372   -1.9718   -5.7619 H   0  0  0  0  0  0  0  0  0  0  0  0
    8.3951    5.6329   -5.1641 H   0  0  0  0  0  0  0  0  0  0  0  0
    5.0633    5.5422   -2.0566 H   0  0  0  0  0  0  0  0  0  0  0  0
    4.6352    2.8750    1.0732 H   0  0  0  0  0  0  0  0  0  0  0  0
    2.9219    2.5666    0.6313 H   0  0  0  0  0  0  0  0  0  0  0  0
    2.2816    4.7228    1.6851 H   0  0  0  0  0  0  0  0  0  0  0  0
    3.9621    5.0796    2.0374 H   0  0  0  0  0  0  0  0  0  0  0  0
    4.1299    2.9243    3.3599 H   0  0  0  0  0  0  0  0  0  0  0  0
    2.4217    2.6104    3.0483 H   0  0  0  0  0  0  0  0  0  0  0  0
    2.1825    4.9158    4.3563 H   0  0  0  0  0  0  0  0  0  0  0  0
    3.0993    4.9884    6.9660 H   0  0  0  0  0  0  0  0  0  0  0  0
    2.3412    3.5461    7.6678 H   0  0  0  0  0  0  0  0  0  0  0  0
    0.1377    3.1981    5.5386 H   0  0  0  0  0  0  0  0  0  0  0  0
   -1.0109    4.2611    6.3272 H   0  0  0  0  0  0  0  0  0  0  0  0
   -0.0609    3.1226    7.3035 H   0  0  0  0  0  0  0  0  0  0  0  0
    1.4456    6.4490    7.8827 H   0  0  0  0  0  0  0  0  0  0  0  0
    0.6535    5.0735    8.6792 H   0  0  0  0  0  0  0  0  0  0  0  0
   -0.2699    6.1631    7.6221 H   0  0  0  0  0  0  0  0  0  0  0  0
  1  2  2  0  0  0  0
  1 36  1  0  0  0  0
  1 37  1  0  0  0  0
  2  3  1  0  0  0  0
  2 38  1  0  0  0  0
  3  4  2  0  0  0  0
  3  5  1  0  0  0  0
  5  6  1  0  0  0  0
  5 39  1  0  0  0  0
  6  7  1  0  0  0  0
  6 24  2  0  0  0  0
  7  8  2  0  0  0  0
  7 40  1  0  0  0  0
  8  9  1  0  0  0  0
  8 22  1  0  0  0  0
  9 10  1  0  0  0  0
  9 19  2  0  0  0  0
 10 11  1  0  0  0  0
 10 41  1  0  0  0  0
 11 12  1  0  0  0  0
 11 17  2  0  0  0  0
 12 13  2  0  0  0  0
 12 42  1  0  0  0  0
 13 14  1  0  0  0  0
 13 43  1  0  0  0  0
 14 15  1  0  0  0  0
 14 16  2  0  0  0  0
 16 17  1  0  0  0  0
 16 44  1  0  0  0  0
 17 18  1  0  0  0  0
 19 20  1  0  0  0  0
 20 21  2  0  0  0  0
 20 45  1  0  0  0  0
 21 22  1  0  0  0  0
 22 23  2  0  0  0  0
 23 24  1  0  0  0  0
 23 46  1  0  0  0  0
 24 25  1  0  0  0  0
 25 26  1  0  0  0  0
 26 27  1  0  0  0  0
 26 47  1  0  0  0  0
 26 48  1  0  0  0  0
 27 28  1  0  0  0  0
 27 49  1  0  0  0  0
 27 50  1  0  0  0  0
 28 29  1  0  0  0  0
 28 51  1  0  0  0  0
 28 52  1  0  0  0  0
 29 30  1  0  0  0  0
 29 53  1  0  0  0  0
 30 31  2  0  0  0  0
 30 32  1  0  0  0  0
 32 33  1  0  0  0  0
 32 54  1  0  0  0  0
 32 55  1  0  0  0  0
 33 34  1  0  0  0  0
 33 35  1  0  0  0  0
 34 56  1  0  0  0  0
 34 57  1  0  0  0  0
 34 58  1  0  0  0  0
 35 59  1  0  0  0  0
 35 60  1  0  0  0  0
 35 61  1  0  0  0  0
M  END
$$$$
