CHEMBL1681950
 OpenBabel04072215363D

 46 48  0  0  0  0  0  0  0  0999 V2000
   10.2011   -3.8558    6.0969 C   0  0  0  0  0  0  0  0  0  0  0  0
    9.4357   -2.7654    5.5905 O   0  0  0  0  0  0  0  0  0  0  0  0
    8.3528   -3.2894    4.8726 N   0  0  0  0  0  0  0  0  0  0  0  0
    7.6107   -2.3233    4.4247 C   0  0  0  0  0  0  0  0  0  0  0  0
    6.3931   -2.5884    3.6494 C   0  0  0  0  0  0  0  0  0  0  0  0
    5.7022   -3.7923    3.7542 C   0  0  0  0  0  0  0  0  0  0  0  0
    6.0428   -4.7874    4.6683 N   0  0  0  0  0  0  0  0  0  0  0  0
    4.5761   -4.0440    3.0656 N   0  0  0  0  0  0  0  0  0  0  0  0
    4.1542   -3.0856    2.2358 C   0  0  0  0  0  0  0  0  0  0  0  0
    4.7599   -1.9150    2.0272 N   0  0  0  0  0  0  0  0  0  0  0  0
    5.8661   -1.6685    2.7668 C   0  0  0  0  0  0  0  0  0  0  0  0
    6.5091   -0.4389    2.5858 O   0  0  0  0  0  0  0  0  0  0  0  0
    5.7388    0.5923    2.0821 C   0  0  0  0  0  0  0  0  0  0  0  0
    4.4798    0.8794    2.6033 C   0  0  0  0  0  0  0  0  0  0  0  0
    3.6768    1.8551    2.0170 C   0  0  0  0  0  0  0  0  0  0  0  0
    4.1175    2.5917    0.9153 C   0  0  0  0  0  0  0  0  0  0  0  0
    3.2658    3.5126    0.2408 N   0  0  0  0  0  0  0  0  0  0  0  0
    1.8901    3.5737    0.3850 C   0  0  0  0  0  0  0  0  0  0  0  0
    1.2346    2.8779    1.1540 O   0  0  0  0  0  0  0  0  0  0  0  0
    1.2978    4.4770   -0.4820 N   0  0  0  0  0  0  0  0  0  0  0  0
   -0.1173    4.6104   -0.5045 C   0  0  0  0  0  0  0  0  0  0  0  0
   -0.8801    4.6946    0.6658 C   0  0  0  0  0  0  0  0  0  0  0  0
   -2.2762    4.7302    0.5947 C   0  0  0  0  0  0  0  0  0  0  0  0
   -2.9177    4.6760   -0.6433 C   0  0  0  0  0  0  0  0  0  0  0  0
   -2.1621    4.6143   -1.8142 C   0  0  0  0  0  0  0  0  0  0  0  0
   -0.7709    4.6050   -1.7377 C   0  0  0  0  0  0  0  0  0  0  0  0
   -0.0535    4.5097   -2.8682 F   0  0  0  0  0  0  0  0  0  0  0  0
    5.4363    2.3764    0.4705 C   0  0  0  0  0  0  0  0  0  0  0  0
    6.0877    3.2993   -0.8421 Cl  0  0  0  0  0  0  0  0  0  0  0  0
    6.2456    1.3808    1.0486 C   0  0  0  0  0  0  0  0  0  0  0  0
   11.1028   -3.4618    6.5726 H   0  0  0  0  0  0  0  0  0  0  0  0
   10.4962   -4.5225    5.2804 H   0  0  0  0  0  0  0  0  0  0  0  0
    9.6213   -4.4113    6.8413 H   0  0  0  0  0  0  0  0  0  0  0  0
    7.8847   -1.2661    4.6126 H   0  0  0  0  0  0  0  0  0  0  0  0
    7.0518   -4.9318    4.7131 H   0  0  0  0  0  0  0  0  0  0  0  0
    5.5012   -5.6246    4.4840 H   0  0  0  0  0  0  0  0  0  0  0  0
    3.2327   -3.2698    1.6947 H   0  0  0  0  0  0  0  0  0  0  0  0
    4.0757    0.3126    3.4370 H   0  0  0  0  0  0  0  0  0  0  0  0
    2.6954    1.9979    2.4560 H   0  0  0  0  0  0  0  0  0  0  0  0
    3.6927    4.0657   -0.4906 H   0  0  0  0  0  0  0  0  0  0  0  0
    1.7401    4.5537   -1.3888 H   0  0  0  0  0  0  0  0  0  0  0  0
   -0.3986    4.7080    1.6418 H   0  0  0  0  0  0  0  0  0  0  0  0
   -2.8600    4.7743    1.5115 H   0  0  0  0  0  0  0  0  0  0  0  0
   -4.0038    4.6705   -0.6922 H   0  0  0  0  0  0  0  0  0  0  0  0
   -2.6471    4.5487   -2.7819 H   0  0  0  0  0  0  0  0  0  0  0  0
    7.2478    1.1991    0.6706 H   0  0  0  0  0  0  0  0  0  0  0  0
  1  2  1  0  0  0  0
  1 31  1  0  0  0  0
  1 32  1  0  0  0  0
  1 33  1  0  0  0  0
  2  3  1  0  0  0  0
  3  4  2  0  0  0  0
  4  5  1  0  0  0  0
  4 34  1  0  0  0  0
  5  6  1  0  0  0  0
  5 11  2  0  0  0  0
  6  7  1  0  0  0  0
  6  8  2  0  0  0  0
  7 35  1  0  0  0  0
  7 36  1  0  0  0  0
  8  9  1  0  0  0  0
  9 10  2  0  0  0  0
  9 37  1  0  0  0  0
 10 11  1  0  0  0  0
 11 12  1  0  0  0  0
 12 13  1  0  0  0  0
 13 14  1  0  0  0  0
 13 30  2  0  0  0  0
 14 15  2  0  0  0  0
 14 38  1  0  0  0  0
 15 16  1  0  0  0  0
 15 39  1  0  0  0  0
 16 17  1  0  0  0  0
 16 28  2  0  0  0  0
 17 18  1  0  0  0  0
 17 40  1  0  0  0  0
 18 19  2  0  0  0  0
 18 20  1  0  0  0  0
 20 21  1  0  0  0  0
 20 41  1  0  0  0  0
 21 22  1  0  0  0  0
 21 26  2  0  0  0  0
 22 23  2  0  0  0  0
 22 42  1  0  0  0  0
 23 24  1  0  0  0  0
 23 43  1  0  0  0  0
 24 25  2  0  0  0  0
 24 44  1  0  0  0  0
 25 26  1  0  0  0  0
 25 45  1  0  0  0  0
 26 27  1  0  0  0  0
 28 29  1  0  0  0  0
 28 30  1  0  0  0  0
 30 46  1  0  0  0  0
M  END
$$$$
