CHEMBL392513
 OpenBabel04072215373D

 42 44  0  0  0  0  0  0  0  0999 V2000
    2.3646    0.0413    0.0371 C   0  0  0  0  0  0  0  0  0  0  0  0
    0.8942   -0.1343    0.0572 C   0  0  0  0  0  0  0  0  0  0  0  0
    0.1080    0.9477    0.0711 N   0  0  0  0  0  0  0  0  0  0  0  0
   -1.1834    0.4726   -0.0164 O   0  0  0  0  0  0  0  0  0  0  0  0
   -1.1763   -0.8883   -0.0713 C   0  0  0  0  0  0  0  0  0  0  0  0
   -2.3613   -1.5411   -0.1452 N   0  0  0  0  0  0  0  0  0  0  0  0
   -3.5448   -0.8936   -0.6885 C   0  0  0  0  0  0  0  0  0  0  0  0
   -3.7549   -1.1302   -2.1709 C   0  0  0  0  0  0  0  0  0  0  0  0
   -2.9692   -1.9858   -2.9480 C   0  0  0  0  0  0  0  0  0  0  0  0
   -3.2734   -2.1437   -4.2937 C   0  0  0  0  0  0  0  0  0  0  0  0
   -4.2969   -1.5194   -4.9142 N   0  0  0  0  0  0  0  0  0  0  0  0
   -5.0455   -0.6960   -4.1557 C   0  0  0  0  0  0  0  0  0  0  0  0
   -4.8212   -0.4746   -2.8043 C   0  0  0  0  0  0  0  0  0  0  0  0
    0.1293   -1.3324    0.0013 C   0  0  0  0  0  0  0  0  0  0  0  0
    0.5459   -2.7154   -0.0728 C   0  0  0  0  0  0  0  0  0  0  0  0
   -0.0589   -3.5147   -0.7879 O   0  0  0  0  0  0  0  0  0  0  0  0
    1.5884   -3.0619    0.7761 N   0  0  0  0  0  0  0  0  0  0  0  0
    2.0865   -4.3832    0.8394 C   0  0  0  0  0  0  0  0  0  0  0  0
    2.3402   -5.1222   -0.3199 C   0  0  0  0  0  0  0  0  0  0  0  0
    2.7597   -6.4531   -0.2358 C   0  0  0  0  0  0  0  0  0  0  0  0
    2.9080   -7.0740    1.0114 C   0  0  0  0  0  0  0  0  0  0  0  0
    3.2696   -8.5363    1.1170 C   0  0  0  0  0  0  0  0  0  0  0  0
    3.4939   -9.1338   -0.0874 F   0  0  0  0  0  0  0  0  0  0  0  0
    4.3970   -8.7435    1.8512 F   0  0  0  0  0  0  0  0  0  0  0  0
    2.2920   -9.2704    1.7195 F   0  0  0  0  0  0  0  0  0  0  0  0
    2.6866   -6.3134    2.1719 C   0  0  0  0  0  0  0  0  0  0  0  0
    2.3090   -4.9675    2.0871 C   0  0  0  0  0  0  0  0  0  0  0  0
    2.6388    1.1008   -0.0289 H   0  0  0  0  0  0  0  0  0  0  0  0
    2.7987   -0.4674   -0.8298 H   0  0  0  0  0  0  0  0  0  0  0  0
    2.8162   -0.3653    0.9460 H   0  0  0  0  0  0  0  0  0  0  0  0
   -2.3474   -2.5528   -0.2634 H   0  0  0  0  0  0  0  0  0  0  0  0
   -3.5379    0.1856   -0.4935 H   0  0  0  0  0  0  0  0  0  0  0  0
   -4.4160   -1.3015   -0.1610 H   0  0  0  0  0  0  0  0  0  0  0  0
   -2.1242   -2.5299   -2.5374 H   0  0  0  0  0  0  0  0  0  0  0  0
   -2.6815   -2.8005   -4.9255 H   0  0  0  0  0  0  0  0  0  0  0  0
   -5.8613   -0.2008   -4.6758 H   0  0  0  0  0  0  0  0  0  0  0  0
   -5.4718    0.2015   -2.2583 H   0  0  0  0  0  0  0  0  0  0  0  0
    1.6928   -2.4894    1.6041 H   0  0  0  0  0  0  0  0  0  0  0  0
    2.2190   -4.6714   -1.3027 H   0  0  0  0  0  0  0  0  0  0  0  0
    2.9467   -7.0080   -1.1545 H   0  0  0  0  0  0  0  0  0  0  0  0
    2.7829   -6.7804    3.1518 H   0  0  0  0  0  0  0  0  0  0  0  0
    2.1165   -4.4174    3.0047 H   0  0  0  0  0  0  0  0  0  0  0  0
  1  2  1  0  0  0  0
  1 28  1  0  0  0  0
  1 29  1  0  0  0  0
  1 30  1  0  0  0  0
  2  3  2  0  0  0  0
  2 14  1  0  0  0  0
  3  4  1  0  0  0  0
  4  5  1  0  0  0  0
  5  6  1  0  0  0  0
  5 14  2  0  0  0  0
  6  7  1  0  0  0  0
  6 31  1  0  0  0  0
  7  8  1  0  0  0  0
  7 32  1  0  0  0  0
  7 33  1  0  0  0  0
  8  9  1  0  0  0  0
  8 13  2  0  0  0  0
  9 10  2  0  0  0  0
  9 34  1  0  0  0  0
 10 11  1  0  0  0  0
 10 35  1  0  0  0  0
 11 12  2  0  0  0  0
 12 13  1  0  0  0  0
 12 36  1  0  0  0  0
 13 37  1  0  0  0  0
 14 15  1  0  0  0  0
 15 16  2  0  0  0  0
 15 17  1  0  0  0  0
 17 18  1  0  0  0  0
 17 38  1  0  0  0  0
 18 19  1  0  0  0  0
 18 27  2  0  0  0  0
 19 20  2  0  0  0  0
 19 39  1  0  0  0  0
 20 21  1  0  0  0  0
 20 40  1  0  0  0  0
 21 22  1  0  0  0  0
 21 26  2  0  0  0  0
 22 23  1  0  0  0  0
 22 24  1  0  0  0  0
 22 25  1  0  0  0  0
 26 27  1  0  0  0  0
 26 41  1  0  0  0  0
 27 42  1  0  0  0  0
M  END
$$$$
