CHEMBL3128232
 OpenBabel04072215363D

 62 66  0  0  0  0  0  0  0  0999 V2000
   15.0585   -1.6168    2.4366 C   0  0  0  0  0  0  0  0  0  0  0  0
   13.8629   -0.8809    2.6552 O   0  0  0  0  0  0  0  0  0  0  0  0
   12.8144   -1.5470    3.2251 C   0  0  0  0  0  0  0  0  0  0  0  0
   12.7903   -2.8948    3.5932 C   0  0  0  0  0  0  0  0  0  0  0  0
   11.6472   -3.4539    4.1897 C   0  0  0  0  0  0  0  0  0  0  0  0
   10.5172   -2.6619    4.4138 C   0  0  0  0  0  0  0  0  0  0  0  0
    9.2761   -3.1542    5.0768 C   0  0  0  0  0  0  0  0  0  0  0  0
    8.6320   -2.3280    5.7175 O   0  0  0  0  0  0  0  0  0  0  0  0
    8.9495   -4.4956    4.9206 N   0  0  0  0  0  0  0  0  0  0  0  0
    7.7693   -5.1107    5.4153 C   0  0  0  0  0  0  0  0  0  0  0  0
    6.6663   -4.3747    5.8567 C   0  0  0  0  0  0  0  0  0  0  0  0
    5.5422   -5.0079    6.3832 C   0  0  0  0  0  0  0  0  0  0  0  0
    5.4913   -6.3973    6.4525 C   0  0  0  0  0  0  0  0  0  0  0  0
    6.5522   -7.1705    5.9569 C   0  0  0  0  0  0  0  0  0  0  0  0
    6.4665   -8.6856    5.9815 C   0  0  0  0  0  0  0  0  0  0  0  0
    6.9846   -9.1838    7.2431 N   0  0  0  0  0  0  0  0  0  0  0  0
    7.0008  -10.5690    7.4070 C   0  0  0  0  0  0  0  0  0  0  0  0
    7.1269  -11.4026    6.3389 N   0  0  0  0  0  0  0  0  0  0  0  0
    7.1913  -12.7319    6.5529 C   0  0  0  0  0  0  0  0  0  0  0  0
    7.1383  -13.3863    7.7240 N   0  0  0  0  0  0  0  0  0  0  0  0
    7.0193  -12.5436    8.7645 C   0  0  0  0  0  0  0  0  0  0  0  0
    6.9363  -11.1629    8.6790 C   0  0  0  0  0  0  0  0  0  0  0  0
    6.8076  -10.7423   10.0164 C   0  0  0  0  0  0  0  0  0  0  0  0
    6.8103  -11.7497   10.8898 N   0  0  0  0  0  0  0  0  0  0  0  0
    6.9730  -12.8490   10.1053 N   0  0  0  0  0  0  0  0  0  0  0  0
    7.0559  -14.1490   10.7587 C   0  0  0  0  0  0  0  0  0  0  0  0
    7.9187  -15.1755   10.0268 C   0  0  0  0  0  0  0  0  0  0  0  0
    8.0450  -16.5256   10.6937 C   0  0  0  0  0  0  0  0  0  0  0  0
    7.5731  -17.6678   10.0266 C   0  0  0  0  0  0  0  0  0  0  0  0
    7.7923  -18.9422   10.5485 C   0  0  0  0  0  0  0  0  0  0  0  0
    8.4808  -19.0914   11.7488 C   0  0  0  0  0  0  0  0  0  0  0  0
    8.9335  -17.9650   12.4346 C   0  0  0  0  0  0  0  0  0  0  0  0
    8.7162  -16.6859   11.9124 C   0  0  0  0  0  0  0  0  0  0  0  0
    7.6945   -6.5131    5.4502 C   0  0  0  0  0  0  0  0  0  0  0  0
   10.5508   -1.3077    4.0487 C   0  0  0  0  0  0  0  0  0  0  0  0
   11.6867   -0.7595    3.4522 C   0  0  0  0  0  0  0  0  0  0  0  0
   15.8182   -0.9182    2.0726 H   0  0  0  0  0  0  0  0  0  0  0  0
   14.9073   -2.3810    1.6677 H   0  0  0  0  0  0  0  0  0  0  0  0
   15.4348   -2.0575    3.3655 H   0  0  0  0  0  0  0  0  0  0  0  0
   13.6534   -3.5363    3.4431 H   0  0  0  0  0  0  0  0  0  0  0  0
   11.6814   -4.4926    4.5026 H   0  0  0  0  0  0  0  0  0  0  0  0
    9.6042   -5.1025    4.4485 H   0  0  0  0  0  0  0  0  0  0  0  0
    6.6414   -3.2911    5.7877 H   0  0  0  0  0  0  0  0  0  0  0  0
    4.7070   -4.4050    6.7310 H   0  0  0  0  0  0  0  0  0  0  0  0
    4.6097   -6.8691    6.8812 H   0  0  0  0  0  0  0  0  0  0  0  0
    7.0212   -9.0869    5.1251 H   0  0  0  0  0  0  0  0  0  0  0  0
    5.4164   -8.9832    5.8574 H   0  0  0  0  0  0  0  0  0  0  0  0
    6.6072   -8.7027    8.0533 H   0  0  0  0  0  0  0  0  0  0  0  0
    7.3069  -13.3513    5.6690 H   0  0  0  0  0  0  0  0  0  0  0  0
    6.7067   -9.7289   10.3867 H   0  0  0  0  0  0  0  0  0  0  0  0
    6.0273  -14.5057   10.8880 H   0  0  0  0  0  0  0  0  0  0  0  0
    7.4694  -13.9681   11.7609 H   0  0  0  0  0  0  0  0  0  0  0  0
    8.9284  -14.7758    9.8692 H   0  0  0  0  0  0  0  0  0  0  0  0
    7.5008  -15.3480    9.0310 H   0  0  0  0  0  0  0  0  0  0  0  0
    7.0559  -17.5741    9.0737 H   0  0  0  0  0  0  0  0  0  0  0  0
    7.4438  -19.8169   10.0057 H   0  0  0  0  0  0  0  0  0  0  0  0
    8.6736  -20.0853   12.1432 H   0  0  0  0  0  0  0  0  0  0  0  0
    9.4788  -18.0854   13.3674 H   0  0  0  0  0  0  0  0  0  0  0  0
    9.1070  -15.8245   12.4495 H   0  0  0  0  0  0  0  0  0  0  0  0
    8.5323   -7.1146    5.1054 H   0  0  0  0  0  0  0  0  0  0  0  0
    9.6896   -0.6681    4.2364 H   0  0  0  0  0  0  0  0  0  0  0  0
   11.6923    0.2921    3.1738 H   0  0  0  0  0  0  0  0  0  0  0  0
  1  2  1  0  0  0  0
  1 37  1  0  0  0  0
  1 38  1  0  0  0  0
  1 39  1  0  0  0  0
  2  3  1  0  0  0  0
  3  4  1  0  0  0  0
  3 36  2  0  0  0  0
  4  5  2  0  0  0  0
  4 40  1  0  0  0  0
  5  6  1  0  0  0  0
  5 41  1  0  0  0  0
  6  7  1  0  0  0  0
  6 35  2  0  0  0  0
  7  8  2  0  0  0  0
  7  9  1  0  0  0  0
  9 10  1  0  0  0  0
  9 42  1  0  0  0  0
 10 11  1  0  0  0  0
 10 34  2  0  0  0  0
 11 12  2  0  0  0  0
 11 43  1  0  0  0  0
 12 13  1  0  0  0  0
 12 44  1  0  0  0  0
 13 14  2  0  0  0  0
 13 45  1  0  0  0  0
 14 15  1  0  0  0  0
 14 34  1  0  0  0  0
 15 16  1  0  0  0  0
 15 46  1  0  0  0  0
 15 47  1  0  0  0  0
 16 17  1  0  0  0  0
 16 48  1  0  0  0  0
 17 18  1  0  0  0  0
 17 22  2  0  0  0  0
 18 19  2  0  0  0  0
 19 20  1  0  0  0  0
 19 49  1  0  0  0  0
 20 21  2  0  0  0  0
 21 22  1  0  0  0  0
 21 25  1  0  0  0  0
 22 23  1  0  0  0  0
 23 24  2  0  0  0  0
 23 50  1  0  0  0  0
 24 25  1  0  0  0  0
 25 26  1  0  0  0  0
 26 27  1  0  0  0  0
 26 51  1  0  0  0  0
 26 52  1  0  0  0  0
 27 28  1  0  0  0  0
 27 53  1  0  0  0  0
 27 54  1  0  0  0  0
 28 29  1  0  0  0  0
 28 33  2  0  0  0  0
 29 30  2  0  0  0  0
 29 55  1  0  0  0  0
 30 31  1  0  0  0  0
 30 56  1  0  0  0  0
 31 32  2  0  0  0  0
 31 57  1  0  0  0  0
 32 33  1  0  0  0  0
 32 58  1  0  0  0  0
 33 59  1  0  0  0  0
 34 60  1  0  0  0  0
 35 36  1  0  0  0  0
 35 61  1  0  0  0  0
 36 62  1  0  0  0  0
M  END
$$$$
