CHEMBL1688249
 OpenBabel04072215363D

 44 48  0  0  0  0  0  0  0  0999 V2000
    0.6440    1.2386   -0.0072 C   0  0  0  0  0  0  0  0  0  0  0  0
   -0.7159    1.0507    0.1030 C   0  0  0  0  0  0  0  0  0  0  0  0
   -1.3003   -0.1636    0.2135 N   0  0  0  0  0  0  0  0  0  0  0  0
   -0.5200   -1.2710    0.2067 C   0  0  0  0  0  0  0  0  0  0  0  0
   -1.1552   -2.5403    0.3322 N   0  0  0  0  0  0  0  0  0  0  0  0
   -2.4633   -2.4049    0.9917 C   0  0  0  0  0  0  0  0  0  0  0  0
   -3.1622   -3.7414    1.0673 C   0  0  0  0  0  0  0  0  0  0  0  0
   -3.4069   -4.3670    2.2956 C   0  0  0  0  0  0  0  0  0  0  0  0
   -4.1295   -5.5512    2.3058 C   0  0  0  0  0  0  0  0  0  0  0  0
   -4.6105   -6.1485    1.1951 N   0  0  0  0  0  0  0  0  0  0  0  0
   -4.3604   -5.5332    0.0203 C   0  0  0  0  0  0  0  0  0  0  0  0
   -3.6486   -4.3496   -0.0945 C   0  0  0  0  0  0  0  0  0  0  0  0
    0.8731   -1.1723    0.0227 C   0  0  0  0  0  0  0  0  0  0  0  0
    1.7725   -2.3127   -0.0954 C   0  0  0  0  0  0  0  0  0  0  0  0
    3.0123   -2.3902    0.3374 N   0  0  0  0  0  0  0  0  0  0  0  0
    3.5321   -3.5954   -0.0630 N   0  0  0  0  0  0  0  0  0  0  0  0
    2.6153   -4.2405   -0.7598 C   0  0  0  0  0  0  0  0  0  0  0  0
    2.7601   -5.5559   -1.3815 C   0  0  0  0  0  0  0  0  0  0  0  0
    1.7205   -6.1537   -2.1328 C   0  0  0  0  0  0  0  0  0  0  0  0
    1.8686   -7.4331   -2.6825 C   0  0  0  0  0  0  0  0  0  0  0  0
    3.0572   -8.0920   -2.4648 C   0  0  0  0  0  0  0  0  0  0  0  0
    4.0812   -7.5179   -1.7524 C   0  0  0  0  0  0  0  0  0  0  0  0
    3.9677   -6.2561   -1.2095 C   0  0  0  0  0  0  0  0  0  0  0  0
    5.1636   -8.3343   -1.6514 O   0  0  0  0  0  0  0  0  0  0  0  0
    4.6763   -9.5133   -2.3231 C   0  0  0  0  0  0  0  0  0  0  0  0
    3.3632   -9.3414   -2.8967 O   0  0  0  0  0  0  0  0  0  0  0  0
    1.4894   -3.4629   -0.7818 N   0  0  0  0  0  0  0  0  0  0  0  0
    1.4452    0.1082   -0.0457 C   0  0  0  0  0  0  0  0  0  0  0  0
    1.0730    2.2320   -0.0716 H   0  0  0  0  0  0  0  0  0  0  0  0
   -1.3977    1.8962    0.1080 H   0  0  0  0  0  0  0  0  0  0  0  0
   -0.5706   -3.1318    0.9194 H   0  0  0  0  0  0  0  0  0  0  0  0
   -3.1352   -1.7164    0.4634 H   0  0  0  0  0  0  0  0  0  0  0  0
   -2.3159   -2.0171    2.0093 H   0  0  0  0  0  0  0  0  0  0  0  0
   -3.0695   -3.9353    3.2318 H   0  0  0  0  0  0  0  0  0  0  0  0
   -4.3572   -6.0607    3.2381 H   0  0  0  0  0  0  0  0  0  0  0  0
   -4.7715   -6.0265   -0.8558 H   0  0  0  0  0  0  0  0  0  0  0  0
   -3.4955   -3.8958   -1.0684 H   0  0  0  0  0  0  0  0  0  0  0  0
    0.7778   -5.6394   -2.2985 H   0  0  0  0  0  0  0  0  0  0  0  0
    1.0706   -7.8969   -3.2522 H   0  0  0  0  0  0  0  0  0  0  0  0
    4.7940   -5.8276   -0.6488 H   0  0  0  0  0  0  0  0  0  0  0  0
    4.6357  -10.3351   -1.5983 H   0  0  0  0  0  0  0  0  0  0  0  0
    5.3779   -9.7807   -3.1207 H   0  0  0  0  0  0  0  0  0  0  0  0
    0.6107   -3.6626   -1.2394 H   0  0  0  0  0  0  0  0  0  0  0  0
    2.5242    0.2175   -0.1397 H   0  0  0  0  0  0  0  0  0  0  0  0
  1  2  1  0  0  0  0
  1 28  2  0  0  0  0
  1 29  1  0  0  0  0
  2  3  2  0  0  0  0
  2 30  1  0  0  0  0
  3  4  1  0  0  0  0
  4  5  1  0  0  0  0
  4 13  2  0  0  0  0
  5  6  1  0  0  0  0
  5 31  1  0  0  0  0
  6  7  1  0  0  0  0
  6 32  1  0  0  0  0
  6 33  1  0  0  0  0
  7  8  1  0  0  0  0
  7 12  2  0  0  0  0
  8  9  2  0  0  0  0
  8 34  1  0  0  0  0
  9 10  1  0  0  0  0
  9 35  1  0  0  0  0
 10 11  2  0  0  0  0
 11 12  1  0  0  0  0
 11 36  1  0  0  0  0
 12 37  1  0  0  0  0
 13 14  1  0  0  0  0
 13 28  1  0  0  0  0
 14 15  2  0  0  0  0
 14 27  1  0  0  0  0
 15 16  1  0  0  0  0
 16 17  2  0  0  0  0
 17 18  1  0  0  0  0
 17 27  1  0  0  0  0
 18 19  1  0  0  0  0
 18 23  2  0  0  0  0
 19 20  2  0  0  0  0
 19 38  1  0  0  0  0
 20 21  1  0  0  0  0
 20 39  1  0  0  0  0
 21 22  2  0  0  0  0
 21 26  1  0  0  0  0
 22 23  1  0  0  0  0
 22 24  1  0  0  0  0
 23 40  1  0  0  0  0
 24 25  1  0  0  0  0
 25 26  1  0  0  0  0
 25 41  1  0  0  0  0
 25 42  1  0  0  0  0
 27 43  1  0  0  0  0
 28 44  1  0  0  0  0
M  END
$$$$
