CHEMBL3972455
 OpenBabel04072215373D

 58 62  0  0  0  0  0  0  0  0999 V2000
    1.0263    0.5546    0.7060 O   0  0  0  0  0  0  0  0  0  0  0  0
    2.1445    0.3056    0.2619 C   0  0  0  0  0  0  0  0  0  0  0  0
    2.6547    0.8290   -0.9191 N   0  0  0  0  0  0  0  0  0  0  0  0
    1.9476    1.6954   -1.8007 C   0  0  0  0  0  0  0  0  0  0  0  0
    0.8031    2.4082   -1.4300 C   0  0  0  0  0  0  0  0  0  0  0  0
    0.0617    3.1414   -2.3728 C   0  0  0  0  0  0  0  0  0  0  0  0
    0.4630    3.1978   -3.7071 C   0  0  0  0  0  0  0  0  0  0  0  0
   -0.3683    3.8513   -4.6899 C   0  0  0  0  0  0  0  0  0  0  0  0
   -1.1270    4.3030   -5.5124 C   0  0  0  0  0  0  0  0  0  0  0  0
   -2.1064    4.6821   -6.5167 C   0  0  0  0  0  0  0  0  0  0  0  0
   -2.9467    3.6435   -7.1661 C   0  0  0  0  0  0  0  0  0  0  0  0
   -3.8265    4.0542   -8.0862 C   0  0  0  0  0  0  0  0  0  0  0  0
   -3.9175    5.4289   -8.3853 C   0  0  0  0  0  0  0  0  0  0  0  0
   -4.6934    6.0651   -9.2351 N   0  0  0  0  0  0  0  0  0  0  0  0
   -4.3329    7.3796   -9.1272 C   0  0  0  0  0  0  0  0  0  0  0  0
   -4.9048    8.3630   -9.8957 N   0  0  0  0  0  0  0  0  0  0  0  0
   -5.8536    8.2253  -10.8790 C   0  0  0  0  0  0  0  0  0  0  0  0
   -6.2115    9.2377  -11.4803 O   0  0  0  0  0  0  0  0  0  0  0  0
   -6.3439    6.9602  -11.0856 N   0  0  0  0  0  0  0  0  0  0  0  0
   -7.3239    6.5634  -12.0155 C   0  0  0  0  0  0  0  0  0  0  0  0
   -7.6787    7.3405  -13.1230 C   0  0  0  0  0  0  0  0  0  0  0  0
   -8.7184    6.9435  -13.9674 C   0  0  0  0  0  0  0  0  0  0  0  0
   -9.4058    5.7655  -13.7055 C   0  0  0  0  0  0  0  0  0  0  0  0
  -10.4342    5.4287  -14.4980 F   0  0  0  0  0  0  0  0  0  0  0  0
   -9.0319    4.9571  -12.6351 C   0  0  0  0  0  0  0  0  0  0  0  0
   -9.8826    3.4949  -12.3070 Cl  0  0  0  0  0  0  0  0  0  0  0  0
   -7.9769    5.3420  -11.8016 C   0  0  0  0  0  0  0  0  0  0  0  0
   -3.3510    7.5514   -8.1765 C   0  0  0  0  0  0  0  0  0  0  0  0
   -3.0737    6.2923   -7.7002 N   0  0  0  0  0  0  0  0  0  0  0  0
   -2.1413    5.9591   -6.7465 N   0  0  0  0  0  0  0  0  0  0  0  0
    1.6491    2.5522   -4.0709 C   0  0  0  0  0  0  0  0  0  0  0  0
    2.3923    1.8179   -3.1230 C   0  0  0  0  0  0  0  0  0  0  0  0
    3.0394   -0.5613    0.8869 N   0  0  0  0  0  0  0  0  0  0  0  0
    2.7394   -1.3480    2.0323 C   0  0  0  0  0  0  0  0  0  0  0  0
    1.4275   -1.6553    2.4220 C   0  0  0  0  0  0  0  0  0  0  0  0
    1.1711   -2.3767    3.5922 C   0  0  0  0  0  0  0  0  0  0  0  0
    2.2293   -2.8096    4.3772 C   0  0  0  0  0  0  0  0  0  0  0  0
    1.9633   -3.4744    5.5113 F   0  0  0  0  0  0  0  0  0  0  0  0
    3.5404   -2.5548    3.9842 C   0  0  0  0  0  0  0  0  0  0  0  0
    4.8581   -3.0975    4.9532 Cl  0  0  0  0  0  0  0  0  0  0  0  0
    3.7993   -1.8401    2.8059 C   0  0  0  0  0  0  0  0  0  0  0  0
    3.4648    0.3638   -1.3009 H   0  0  0  0  0  0  0  0  0  0  0  0
    0.4439    2.4064   -0.4046 H   0  0  0  0  0  0  0  0  0  0  0  0
   -0.8461    3.6429   -2.0450 H   0  0  0  0  0  0  0  0  0  0  0  0
   -2.8260    2.6069   -6.8842 H   0  0  0  0  0  0  0  0  0  0  0  0
   -4.4722    3.3624   -8.6145 H   0  0  0  0  0  0  0  0  0  0  0  0
   -4.5952    9.3157   -9.7636 H   0  0  0  0  0  0  0  0  0  0  0  0
   -6.0538    6.2878  -10.3787 H   0  0  0  0  0  0  0  0  0  0  0  0
   -7.1523    8.2622  -13.3553 H   0  0  0  0  0  0  0  0  0  0  0  0
   -9.0009    7.5581  -14.8163 H   0  0  0  0  0  0  0  0  0  0  0  0
   -7.7012    4.7084  -10.9629 H   0  0  0  0  0  0  0  0  0  0  0  0
   -2.8239    8.4170   -7.8066 H   0  0  0  0  0  0  0  0  0  0  0  0
    1.9955    2.5885   -5.1012 H   0  0  0  0  0  0  0  0  0  0  0  0
    3.2964    1.3127   -3.4538 H   0  0  0  0  0  0  0  0  0  0  0  0
    4.0163   -0.4295    0.6683 H   0  0  0  0  0  0  0  0  0  0  0  0
    0.5714   -1.3455    1.8282 H   0  0  0  0  0  0  0  0  0  0  0  0
    0.1503   -2.5909    3.8943 H   0  0  0  0  0  0  0  0  0  0  0  0
    4.8306   -1.6493    2.5240 H   0  0  0  0  0  0  0  0  0  0  0  0
  1  2  2  0  0  0  0
  2  3  1  0  0  0  0
  2 33  1  0  0  0  0
  3  4  1  0  0  0  0
  3 42  1  0  0  0  0
  4  5  1  0  0  0  0
  4 32  2  0  0  0  0
  5  6  2  0  0  0  0
  5 43  1  0  0  0  0
  6  7  1  0  0  0  0
  6 44  1  0  0  0  0
  7  8  1  0  0  0  0
  7 31  2  0  0  0  0
  8  9  3  0  0  0  0
  9 10  1  0  0  0  0
 10 11  1  0  0  0  0
 10 30  2  0  0  0  0
 11 12  2  0  0  0  0
 11 45  1  0  0  0  0
 12 13  1  0  0  0  0
 12 46  1  0  0  0  0
 13 14  2  0  0  0  0
 13 29  1  0  0  0  0
 14 15  1  0  0  0  0
 15 16  1  0  0  0  0
 15 28  2  0  0  0  0
 16 17  1  0  0  0  0
 16 47  1  0  0  0  0
 17 18  2  0  0  0  0
 17 19  1  0  0  0  0
 19 20  1  0  0  0  0
 19 48  1  0  0  0  0
 20 21  1  0  0  0  0
 20 27  2  0  0  0  0
 21 22  2  0  0  0  0
 21 49  1  0  0  0  0
 22 23  1  0  0  0  0
 22 50  1  0  0  0  0
 23 24  1  0  0  0  0
 23 25  2  0  0  0  0
 25 26  1  0  0  0  0
 25 27  1  0  0  0  0
 27 51  1  0  0  0  0
 28 29  1  0  0  0  0
 28 52  1  0  0  0  0
 29 30  1  0  0  0  0
 31 32  1  0  0  0  0
 31 53  1  0  0  0  0
 32 54  1  0  0  0  0
 33 34  1  0  0  0  0
 33 55  1  0  0  0  0
 34 35  1  0  0  0  0
 34 41  2  0  0  0  0
 35 36  2  0  0  0  0
 35 56  1  0  0  0  0
 36 37  1  0  0  0  0
 36 57  1  0  0  0  0
 37 38  1  0  0  0  0
 37 39  2  0  0  0  0
 39 40  1  0  0  0  0
 39 41  1  0  0  0  0
 41 58  1  0  0  0  0
M  END
$$$$
