CHEMBL444654
 OpenBabel04072215383D

 29 31  0  0  0  0  0  0  0  0999 V2000
    3.1881    0.4196   -1.1612 C   0  0  0  0  0  0  0  0  0  0  0  0
    1.9465    0.0643   -0.4327 C   0  0  0  0  0  0  0  0  0  0  0  0
    1.0363    1.0684   -0.1401 N   0  0  0  0  0  0  0  0  0  0  0  0
    0.0676    0.4350    0.4533 C   0  0  0  0  0  0  0  0  0  0  0  0
   -1.4481    0.9182    1.1500 S   0  0  0  0  0  0  0  0  0  0  0  0
   -1.7323   -0.7674    1.6087 C   0  0  0  0  0  0  0  0  0  0  0  0
   -0.7360   -1.5877    1.2325 C   0  0  0  0  0  0  0  0  0  0  0  0
    0.2744   -0.9065    0.5800 N   0  0  0  0  0  0  0  0  0  0  0  0
    1.4973   -1.1871    0.0078 C   0  0  0  0  0  0  0  0  0  0  0  0
    1.9807   -2.5216   -0.0322 C   0  0  0  0  0  0  0  0  0  0  0  0
    3.2953   -2.7983   -0.0255 C   0  0  0  0  0  0  0  0  0  0  0  0
    3.8510   -4.1619   -0.0769 C   0  0  0  0  0  0  0  0  0  0  0  0
    5.2178   -4.3501   -0.0791 C   0  0  0  0  0  0  0  0  0  0  0  0
    5.6387   -5.6565   -0.1158 C   0  0  0  0  0  0  0  0  0  0  0  0
    4.7979   -6.7035   -0.1625 N   0  0  0  0  0  0  0  0  0  0  0  0
    3.4942   -6.4180   -0.1875 C   0  0  0  0  0  0  0  0  0  0  0  0
    2.6143   -7.4771   -0.2502 N   0  0  0  0  0  0  0  0  0  0  0  0
    2.9785   -5.1881   -0.1212 N   0  0  0  0  0  0  0  0  0  0  0  0
    3.2031    1.4867   -1.4051 H   0  0  0  0  0  0  0  0  0  0  0  0
    3.2608   -0.1424   -2.0971 H   0  0  0  0  0  0  0  0  0  0  0  0
    4.0700    0.2090   -0.5501 H   0  0  0  0  0  0  0  0  0  0  0  0
   -2.6297   -1.0626    2.1371 H   0  0  0  0  0  0  0  0  0  0  0  0
   -0.6724   -2.6511    1.4015 H   0  0  0  0  0  0  0  0  0  0  0  0
    1.2612   -3.3380   -0.0670 H   0  0  0  0  0  0  0  0  0  0  0  0
    4.0300   -2.0033    0.0334 H   0  0  0  0  0  0  0  0  0  0  0  0
    5.9258   -3.5336   -0.0549 H   0  0  0  0  0  0  0  0  0  0  0  0
    6.6951   -5.9090   -0.1118 H   0  0  0  0  0  0  0  0  0  0  0  0
    3.0595   -8.3153    0.0953 H   0  0  0  0  0  0  0  0  0  0  0  0
    1.7265   -7.2163    0.1523 H   0  0  0  0  0  0  0  0  0  0  0  0
  1  2  1  0  0  0  0
  1 19  1  0  0  0  0
  1 20  1  0  0  0  0
  1 21  1  0  0  0  0
  2  3  1  0  0  0  0
  2  9  2  0  0  0  0
  3  4  2  0  0  0  0
  4  5  1  0  0  0  0
  4  8  1  0  0  0  0
  5  6  1  0  0  0  0
  6  7  2  0  0  0  0
  6 22  1  0  0  0  0
  7  8  1  0  0  0  0
  7 23  1  0  0  0  0
  8  9  1  0  0  0  0
  9 10  1  0  0  0  0
 10 11  2  0  0  0  0
 10 24  1  0  0  0  0
 11 12  1  0  0  0  0
 11 25  1  0  0  0  0
 12 13  1  0  0  0  0
 12 18  2  0  0  0  0
 13 14  2  0  0  0  0
 13 26  1  0  0  0  0
 14 15  1  0  0  0  0
 14 27  1  0  0  0  0
 15 16  2  0  0  0  0
 16 17  1  0  0  0  0
 16 18  1  0  0  0  0
 17 28  1  0  0  0  0
 17 29  1  0  0  0  0
M  END
$$$$
