CHEMBL272449
 OpenBabel04072215363D

 56 60  0  0  0  0  0  0  0  0999 V2000
    4.7360   -0.1437   -0.9373 C   0  0  0  0  0  0  0  0  0  0  0  0
    3.8807    0.9627   -0.6628 O   0  0  0  0  0  0  0  0  0  0  0  0
    3.8687    1.4078    0.6364 C   0  0  0  0  0  0  0  0  0  0  0  0
    2.6275    1.9150    1.0441 C   0  0  0  0  0  0  0  0  0  0  0  0
    2.4062    2.3854    2.3338 C   0  0  0  0  0  0  0  0  0  0  0  0
    1.1781    2.8080    2.6778 N   0  0  0  0  0  0  0  0  0  0  0  0
    0.9686    3.1959    3.9583 C   0  0  0  0  0  0  0  0  0  0  0  0
    1.9514    3.1991    4.9225 C   0  0  0  0  0  0  0  0  0  0  0  0
    1.6438    3.5624    6.1728 F   0  0  0  0  0  0  0  0  0  0  0  0
    3.2369    2.8284    4.5507 C   0  0  0  0  0  0  0  0  0  0  0  0
    4.2917    2.7766    5.4411 O   0  0  0  0  0  0  0  0  0  0  0  0
    4.4939    3.8046    6.3292 C   0  0  0  0  0  0  0  0  0  0  0  0
    4.0844    5.1190    6.1364 C   0  0  0  0  0  0  0  0  0  0  0  0
    4.3015    6.0656    7.1363 C   0  0  0  0  0  0  0  0  0  0  0  0
    4.9695    5.7365    8.3388 C   0  0  0  0  0  0  0  0  0  0  0  0
    5.1902    6.6382    9.4084 C   0  0  0  0  0  0  0  0  0  0  0  0
    4.5956    8.0007    9.4715 C   0  0  0  0  0  0  0  0  0  0  0  0
    5.3075    8.9020    9.9087 O   0  0  0  0  0  0  0  0  0  0  0  0
    3.2582    8.1119    9.1114 N   0  0  0  0  0  0  0  0  0  0  0  0
    2.5099    9.3087    9.1193 C   0  0  0  0  0  0  0  0  0  0  0  0
    3.1015   10.5702    9.2268 C   0  0  0  0  0  0  0  0  0  0  0  0
    2.3199   11.7178    9.3821 C   0  0  0  0  0  0  0  0  0  0  0  0
    0.9370   11.6088    9.3943 C   0  0  0  0  0  0  0  0  0  0  0  0
   -0.0226   13.0063    9.6797 Cl  0  0  0  0  0  0  0  0  0  0  0  0
    0.3283   10.3723    9.1928 C   0  0  0  0  0  0  0  0  0  0  0  0
    1.1127    9.2208    9.0393 C   0  0  0  0  0  0  0  0  0  0  0  0
    6.0206    6.2839   10.4862 C   0  0  0  0  0  0  0  0  0  0  0  0
    6.5758    5.0134   10.5595 C   0  0  0  0  0  0  0  0  0  0  0  0
    6.2853    4.0804    9.5691 C   0  0  0  0  0  0  0  0  0  0  0  0
    5.4924    4.4243    8.4630 C   0  0  0  0  0  0  0  0  0  0  0  0
    5.2296    3.4736    7.4670 C   0  0  0  0  0  0  0  0  0  0  0  0
    3.4882    2.3777    3.2379 C   0  0  0  0  0  0  0  0  0  0  0  0
    4.7566    1.9200    2.8106 C   0  0  0  0  0  0  0  0  0  0  0  0
    4.9580    1.4280    1.5192 C   0  0  0  0  0  0  0  0  0  0  0  0
    6.1618    0.9819    1.0540 O   0  0  0  0  0  0  0  0  0  0  0  0
    7.2704    0.9394    1.9382 C   0  0  0  0  0  0  0  0  0  0  0  0
    4.4081   -0.5940   -1.8787 H   0  0  0  0  0  0  0  0  0  0  0  0
    4.6702   -0.9136   -0.1602 H   0  0  0  0  0  0  0  0  0  0  0  0
    5.7674    0.1859   -1.0911 H   0  0  0  0  0  0  0  0  0  0  0  0
    1.7975    1.9167    0.3440 H   0  0  0  0  0  0  0  0  0  0  0  0
   -0.0418    3.5111    4.1965 H   0  0  0  0  0  0  0  0  0  0  0  0
    3.5822    5.4324    5.2266 H   0  0  0  0  0  0  0  0  0  0  0  0
    3.9645    7.0810    6.9388 H   0  0  0  0  0  0  0  0  0  0  0  0
    2.7445    7.2525    8.9688 H   0  0  0  0  0  0  0  0  0  0  0  0
    4.1805   10.6941    9.2122 H   0  0  0  0  0  0  0  0  0  0  0  0
    2.8103   12.6762    9.5143 H   0  0  0  0  0  0  0  0  0  0  0  0
   -0.7562   10.2919    9.1825 H   0  0  0  0  0  0  0  0  0  0  0  0
    0.6167    8.2646    8.9080 H   0  0  0  0  0  0  0  0  0  0  0  0
    6.2369    7.0075   11.2713 H   0  0  0  0  0  0  0  0  0  0  0  0
    7.2268    4.7490   11.3894 H   0  0  0  0  0  0  0  0  0  0  0  0
    6.7092    3.0807    9.6553 H   0  0  0  0  0  0  0  0  0  0  0  0
    5.6025    2.4557    7.5711 H   0  0  0  0  0  0  0  0  0  0  0  0
    5.5816    1.9530    3.5155 H   0  0  0  0  0  0  0  0  0  0  0  0
    8.0778    0.4060    1.4260 H   0  0  0  0  0  0  0  0  0  0  0  0
    7.0422    0.3829    2.8527 H   0  0  0  0  0  0  0  0  0  0  0  0
    7.6226    1.9510    2.1625 H   0  0  0  0  0  0  0  0  0  0  0  0
  1  2  1  0  0  0  0
  1 37  1  0  0  0  0
  1 38  1  0  0  0  0
  1 39  1  0  0  0  0
  2  3  1  0  0  0  0
  3  4  1  0  0  0  0
  3 34  2  0  0  0  0
  4  5  2  0  0  0  0
  4 40  1  0  0  0  0
  5  6  1  0  0  0  0
  5 32  1  0  0  0  0
  6  7  2  0  0  0  0
  7  8  1  0  0  0  0
  7 41  1  0  0  0  0
  8  9  1  0  0  0  0
  8 10  2  0  0  0  0
 10 11  1  0  0  0  0
 10 32  1  0  0  0  0
 11 12  1  0  0  0  0
 12 13  1  0  0  0  0
 12 31  2  0  0  0  0
 13 14  2  0  0  0  0
 13 42  1  0  0  0  0
 14 15  1  0  0  0  0
 14 43  1  0  0  0  0
 15 16  1  0  0  0  0
 15 30  2  0  0  0  0
 16 17  1  0  0  0  0
 16 27  2  0  0  0  0
 17 18  2  0  0  0  0
 17 19  1  0  0  0  0
 19 20  1  0  0  0  0
 19 44  1  0  0  0  0
 20 21  1  0  0  0  0
 20 26  2  0  0  0  0
 21 22  2  0  0  0  0
 21 45  1  0  0  0  0
 22 23  1  0  0  0  0
 22 46  1  0  0  0  0
 23 24  1  0  0  0  0
 23 25  2  0  0  0  0
 25 26  1  0  0  0  0
 25 47  1  0  0  0  0
 26 48  1  0  0  0  0
 27 28  1  0  0  0  0
 27 49  1  0  0  0  0
 28 29  2  0  0  0  0
 28 50  1  0  0  0  0
 29 30  1  0  0  0  0
 29 51  1  0  0  0  0
 30 31  1  0  0  0  0
 31 52  1  0  0  0  0
 32 33  2  0  0  0  0
 33 34  1  0  0  0  0
 33 53  1  0  0  0  0
 34 35  1  0  0  0  0
 35 36  1  0  0  0  0
 36 54  1  0  0  0  0
 36 55  1  0  0  0  0
 36 56  1  0  0  0  0
M  END
$$$$
