CHEMBL369760
 OpenBabel04072215373D

 55 58  0  0  0  0  0  0  0  0999 V2000
    5.3992   -1.7272   -0.8953 C   0  0  0  0  0  0  0  0  0  0  0  0
    4.2229   -1.3692   -0.1658 O   0  0  0  0  0  0  0  0  0  0  0  0
    4.4279   -0.7607    1.0445 C   0  0  0  0  0  0  0  0  0  0  0  0
    5.5828   -0.0157    1.3146 C   0  0  0  0  0  0  0  0  0  0  0  0
    5.8827    0.4773    2.5821 C   0  0  0  0  0  0  0  0  0  0  0  0
    7.0737    1.0766    2.7585 N   0  0  0  0  0  0  0  0  0  0  0  0
    7.4093    1.4679    4.0034 C   0  0  0  0  0  0  0  0  0  0  0  0
    6.6130    1.2695    5.1115 C   0  0  0  0  0  0  0  0  0  0  0  0
    5.3764    0.6539    4.9345 C   0  0  0  0  0  0  0  0  0  0  0  0
    4.6760    0.4848    6.1196 O   0  0  0  0  0  0  0  0  0  0  0  0
    3.8527   -0.6018    6.3127 C   0  0  0  0  0  0  0  0  0  0  0  0
    4.0910   -1.8709    5.7952 C   0  0  0  0  0  0  0  0  0  0  0  0
    3.0697   -2.8283    5.8136 C   0  0  0  0  0  0  0  0  0  0  0  0
    1.8388   -2.5711    6.4272 C   0  0  0  0  0  0  0  0  0  0  0  0
    0.7303   -3.4509    6.3527 N   0  0  0  0  0  0  0  0  0  0  0  0
    0.7012   -4.6761    5.6986 C   0  0  0  0  0  0  0  0  0  0  0  0
    1.6786   -5.2361    5.2189 O   0  0  0  0  0  0  0  0  0  0  0  0
   -0.5917   -5.1767    5.5893 N   0  0  0  0  0  0  0  0  0  0  0  0
   -0.8368   -6.4145    4.9427 C   0  0  0  0  0  0  0  0  0  0  0  0
   -1.9109   -6.5139    4.0578 C   0  0  0  0  0  0  0  0  0  0  0  0
   -2.1220   -7.6980    3.3457 C   0  0  0  0  0  0  0  0  0  0  0  0
   -1.2931   -8.8026    3.5509 C   0  0  0  0  0  0  0  0  0  0  0  0
   -0.2386   -8.7324    4.4652 C   0  0  0  0  0  0  0  0  0  0  0  0
    0.6543   -9.9132    4.7114 C   0  0  0  0  0  0  0  0  0  0  0  0
   -0.0156   -7.5314    5.1536 C   0  0  0  0  0  0  0  0  0  0  0  0
    1.6792   -1.3521    7.0973 C   0  0  0  0  0  0  0  0  0  0  0  0
    2.6813   -0.3719    7.0373 C   0  0  0  0  0  0  0  0  0  0  0  0
    4.9565    0.2929    3.6220 C   0  0  0  0  0  0  0  0  0  0  0  0
    3.6990   -0.2493    3.2720 C   0  0  0  0  0  0  0  0  0  0  0  0
    3.4513   -0.8504    2.0353 C   0  0  0  0  0  0  0  0  0  0  0  0
    2.2445   -1.4918    2.0309 O   0  0  0  0  0  0  0  0  0  0  0  0
    1.9310   -2.4283    1.0161 C   0  0  0  0  0  0  0  0  0  0  0  0
    5.1898   -2.6450   -1.4522 H   0  0  0  0  0  0  0  0  0  0  0  0
    6.2670   -1.9342   -0.2585 H   0  0  0  0  0  0  0  0  0  0  0  0
    5.6360   -0.9346   -1.6141 H   0  0  0  0  0  0  0  0  0  0  0  0
    6.3187    0.1776    0.5307 H   0  0  0  0  0  0  0  0  0  0  0  0
    8.3802    1.9483    4.0888 H   0  0  0  0  0  0  0  0  0  0  0  0
    6.9523    1.5743    6.0944 H   0  0  0  0  0  0  0  0  0  0  0  0
    5.0131   -2.1042    5.2695 H   0  0  0  0  0  0  0  0  0  0  0  0
    3.2637   -3.7515    5.2772 H   0  0  0  0  0  0  0  0  0  0  0  0
   -0.1115   -3.1765    6.8394 H   0  0  0  0  0  0  0  0  0  0  0  0
   -1.3138   -4.4780    5.4980 H   0  0  0  0  0  0  0  0  0  0  0  0
   -2.5524   -5.6607    3.8583 H   0  0  0  0  0  0  0  0  0  0  0  0
   -2.9244   -7.7569    2.6149 H   0  0  0  0  0  0  0  0  0  0  0  0
   -1.4708   -9.7149    2.9865 H   0  0  0  0  0  0  0  0  0  0  0  0
    0.3885  -10.7576    4.0670 H   0  0  0  0  0  0  0  0  0  0  0  0
    0.5633  -10.2435    5.7514 H   0  0  0  0  0  0  0  0  0  0  0  0
    1.6976   -9.6524    4.5056 H   0  0  0  0  0  0  0  0  0  0  0  0
    0.8123   -7.4713    5.8577 H   0  0  0  0  0  0  0  0  0  0  0  0
    0.7599   -1.1212    7.6288 H   0  0  0  0  0  0  0  0  0  0  0  0
    2.5226    0.5940    7.5098 H   0  0  0  0  0  0  0  0  0  0  0  0
    2.8942   -0.2873    4.0019 H   0  0  0  0  0  0  0  0  0  0  0  0
    1.1702   -3.1016    1.4273 H   0  0  0  0  0  0  0  0  0  0  0  0
    2.7740   -3.0568    0.7189 H   0  0  0  0  0  0  0  0  0  0  0  0
    1.4868   -1.9081    0.1641 H   0  0  0  0  0  0  0  0  0  0  0  0
  1  2  1  0  0  0  0
  1 33  1  0  0  0  0
  1 34  1  0  0  0  0
  1 35  1  0  0  0  0
  2  3  1  0  0  0  0
  3  4  1  0  0  0  0
  3 30  2  0  0  0  0
  4  5  2  0  0  0  0
  4 36  1  0  0  0  0
  5  6  1  0  0  0  0
  5 28  1  0  0  0  0
  6  7  2  0  0  0  0
  7  8  1  0  0  0  0
  7 37  1  0  0  0  0
  8  9  2  0  0  0  0
  8 38  1  0  0  0  0
  9 10  1  0  0  0  0
  9 28  1  0  0  0  0
 10 11  1  0  0  0  0
 11 12  1  0  0  0  0
 11 27  2  0  0  0  0
 12 13  2  0  0  0  0
 12 39  1  0  0  0  0
 13 14  1  0  0  0  0
 13 40  1  0  0  0  0
 14 15  1  0  0  0  0
 14 26  2  0  0  0  0
 15 16  1  0  0  0  0
 15 41  1  0  0  0  0
 16 17  2  0  0  0  0
 16 18  1  0  0  0  0
 18 19  1  0  0  0  0
 18 42  1  0  0  0  0
 19 20  1  0  0  0  0
 19 25  2  0  0  0  0
 20 21  2  0  0  0  0
 20 43  1  0  0  0  0
 21 22  1  0  0  0  0
 21 44  1  0  0  0  0
 22 23  2  0  0  0  0
 22 45  1  0  0  0  0
 23 24  1  0  0  0  0
 23 25  1  0  0  0  0
 24 46  1  0  0  0  0
 24 47  1  0  0  0  0
 24 48  1  0  0  0  0
 25 49  1  0  0  0  0
 26 27  1  0  0  0  0
 26 50  1  0  0  0  0
 27 51  1  0  0  0  0
 28 29  2  0  0  0  0
 29 30  1  0  0  0  0
 29 52  1  0  0  0  0
 30 31  1  0  0  0  0
 31 32  1  0  0  0  0
 32 53  1  0  0  0  0
 32 54  1  0  0  0  0
 32 55  1  0  0  0  0
M  END
$$$$
