CHEMBL2086759
 OpenBabel04072215363D

 58 62  0  0  0  0  0  0  0  0999 V2000
    1.3641    1.2570    4.3932 C   0  0  0  0  0  0  0  0  0  0  0  0
    2.4445    0.2493    4.7733 C   0  0  0  0  0  0  0  0  0  0  0  0
    3.8041    0.7841    4.5794 N   0  0  0  0  0  0  0  0  0  0  0  0
    4.7952   -0.2192    5.0135 C   0  0  0  0  0  0  0  0  0  0  0  0
    6.2178    0.3106    4.8370 C   0  0  0  0  0  0  0  0  0  0  0  0
    6.4910    0.6571    3.3684 C   0  0  0  0  0  0  0  0  0  0  0  0
    6.4010   -0.5312    2.4924 N   0  0  0  0  0  0  0  0  0  0  0  0
    7.2528   -1.6211    2.7037 C   0  0  0  0  0  0  0  0  0  0  0  0
    8.5518   -1.4753    3.2205 C   0  0  0  0  0  0  0  0  0  0  0  0
    9.3743   -2.5801    3.4369 C   0  0  0  0  0  0  0  0  0  0  0  0
    8.8774   -3.8180    3.0916 C   0  0  0  0  0  0  0  0  0  0  0  0
    7.6162   -4.0077    2.5147 C   0  0  0  0  0  0  0  0  0  0  0  0
    6.8063   -2.8994    2.3101 C   0  0  0  0  0  0  0  0  0  0  0  0
    7.4771   -5.4698    2.2991 C   0  0  0  0  0  0  0  0  0  0  0  0
    6.4501   -6.1990    1.7969 C   0  0  0  0  0  0  0  0  0  0  0  0
    5.2292   -5.5545    1.2578 C   0  0  0  0  0  0  0  0  0  0  0  0
    4.0959   -5.3664    2.0631 C   0  0  0  0  0  0  0  0  0  0  0  0
    2.9352   -4.7911    1.5314 C   0  0  0  0  0  0  0  0  0  0  0  0
    2.8994   -4.4090    0.1905 C   0  0  0  0  0  0  0  0  0  0  0  0
    4.0236   -4.6033   -0.6048 C   0  0  0  0  0  0  0  0  0  0  0  0
    3.9871   -4.2382   -1.8957 F   0  0  0  0  0  0  0  0  0  0  0  0
    5.1816   -5.1694   -0.0894 C   0  0  0  0  0  0  0  0  0  0  0  0
    6.5215   -7.6243    1.8402 C   0  0  0  0  0  0  0  0  0  0  0  0
    6.1296   -8.4731    2.7710 N   0  0  0  0  0  0  0  0  0  0  0  0
    6.4964   -9.7156    2.3199 C   0  0  0  0  0  0  0  0  0  0  0  0
    7.0637   -9.6346    1.0716 C   0  0  0  0  0  0  0  0  0  0  0  0
    7.0596   -8.2999    0.7693 N   0  0  0  0  0  0  0  0  0  0  0  0
    8.7906   -6.0832    2.7666 C   0  0  0  0  0  0  0  0  0  0  0  0
    9.1921   -7.2226    2.6777 O   0  0  0  0  0  0  0  0  0  0  0  0
    9.5364   -5.0244    3.2489 N   0  0  0  0  0  0  0  0  0  0  0  0
    5.4465    1.6861    2.9361 C   0  0  0  0  0  0  0  0  0  0  0  0
    4.0317    1.1727    3.1773 C   0  0  0  0  0  0  0  0  0  0  0  0
    0.3710    0.8484    4.5981 H   0  0  0  0  0  0  0  0  0  0  0  0
    1.3885    1.4992    3.3263 H   0  0  0  0  0  0  0  0  0  0  0  0
    1.4828    2.1851    4.9615 H   0  0  0  0  0  0  0  0  0  0  0  0
    2.2988   -0.6750    4.1991 H   0  0  0  0  0  0  0  0  0  0  0  0
    2.3047   -0.0043    5.8318 H   0  0  0  0  0  0  0  0  0  0  0  0
    4.6721   -1.1604    4.4611 H   0  0  0  0  0  0  0  0  0  0  0  0
    4.6483   -0.4540    6.0749 H   0  0  0  0  0  0  0  0  0  0  0  0
    6.9354   -0.4199    5.2237 H   0  0  0  0  0  0  0  0  0  0  0  0
    6.3451    1.2136    5.4503 H   0  0  0  0  0  0  0  0  0  0  0  0
    7.4777    1.1225    3.2624 H   0  0  0  0  0  0  0  0  0  0  0  0
    6.3999   -0.2824    1.5039 H   0  0  0  0  0  0  0  0  0  0  0  0
    8.9387   -0.4958    3.4841 H   0  0  0  0  0  0  0  0  0  0  0  0
   10.3637   -2.4575    3.8631 H   0  0  0  0  0  0  0  0  0  0  0  0
    5.8081   -2.9943    1.8956 H   0  0  0  0  0  0  0  0  0  0  0  0
    4.1071   -5.6757    3.1076 H   0  0  0  0  0  0  0  0  0  0  0  0
    2.0589   -4.6511    2.1604 H   0  0  0  0  0  0  0  0  0  0  0  0
    2.0031   -3.9695   -0.2373 H   0  0  0  0  0  0  0  0  0  0  0  0
    6.0333   -5.3145   -0.7485 H   0  0  0  0  0  0  0  0  0  0  0  0
    6.3396  -10.6015    2.9200 H   0  0  0  0  0  0  0  0  0  0  0  0
    7.4806  -10.3767    0.4069 H   0  0  0  0  0  0  0  0  0  0  0  0
    7.4367   -7.8747   -0.0631 H   0  0  0  0  0  0  0  0  0  0  0  0
   10.4692   -5.1447    3.6214 H   0  0  0  0  0  0  0  0  0  0  0  0
    5.5681    1.9455    1.8778 H   0  0  0  0  0  0  0  0  0  0  0  0
    5.5931    2.6120    3.5076 H   0  0  0  0  0  0  0  0  0  0  0  0
    3.8106    0.3374    2.5003 H   0  0  0  0  0  0  0  0  0  0  0  0
    3.3682    1.9989    2.9040 H   0  0  0  0  0  0  0  0  0  0  0  0
  1  2  1  0  0  0  0
  1 33  1  0  0  0  0
  1 34  1  0  0  0  0
  1 35  1  0  0  0  0
  2  3  1  0  0  0  0
  2 36  1  0  0  0  0
  2 37  1  0  0  0  0
  3  4  1  0  0  0  0
  3 32  1  0  0  0  0
  4  5  1  0  0  0  0
  4 38  1  0  0  0  0
  4 39  1  0  0  0  0
  5  6  1  0  0  0  0
  5 40  1  0  0  0  0
  5 41  1  0  0  0  0
  6  7  1  0  0  0  0
  6 31  1  0  0  0  0
  6 42  1  0  0  0  0
  7  8  1  0  0  0  0
  7 43  1  0  0  0  0
  8  9  1  0  0  0  0
  8 13  2  0  0  0  0
  9 10  2  0  0  0  0
  9 44  1  0  0  0  0
 10 11  1  0  0  0  0
 10 45  1  0  0  0  0
 11 12  2  0  0  0  0
 11 30  1  0  0  0  0
 12 13  1  0  0  0  0
 12 14  1  0  0  0  0
 13 46  1  0  0  0  0
 14 15  2  3  0  0  0
 14 28  1  0  0  0  0
 15 16  1  0  0  0  0
 15 23  1  0  0  0  0
 16 17  1  0  0  0  0
 16 22  2  0  0  0  0
 17 18  2  0  0  0  0
 17 47  1  0  0  0  0
 18 19  1  0  0  0  0
 18 48  1  0  0  0  0
 19 20  2  0  0  0  0
 19 49  1  0  0  0  0
 20 21  1  0  0  0  0
 20 22  1  0  0  0  0
 22 50  1  0  0  0  0
 23 24  2  0  0  0  0
 23 27  1  0  0  0  0
 24 25  1  0  0  0  0
 25 26  2  0  0  0  0
 25 51  1  0  0  0  0
 26 27  1  0  0  0  0
 26 52  1  0  0  0  0
 27 53  1  0  0  0  0
 28 29  2  0  0  0  0
 28 30  1  0  0  0  0
 30 54  1  0  0  0  0
 31 32  1  0  0  0  0
 31 55  1  0  0  0  0
 31 56  1  0  0  0  0
 32 57  1  0  0  0  0
 32 58  1  0  0  0  0
M  END
$$$$
