CHEMBL409872
 OpenBabel04072215383D

 47 50  0  0  0  0  0  0  0  0999 V2000
    4.2344    1.4569    3.0740 N   0  0  0  0  0  0  0  0  0  0  0  0
    4.7897    1.2292    1.8038 C   0  0  0  0  0  0  0  0  0  0  0  0
    5.6044    0.1679    1.7003 N   0  0  0  0  0  0  0  0  0  0  0  0
    6.0838   -0.0743    0.4761 C   0  0  0  0  0  0  0  0  0  0  0  0
    5.8217    0.6250   -0.6350 N   0  0  0  0  0  0  0  0  0  0  0  0
    4.9884    1.6739   -0.5029 C   0  0  0  0  0  0  0  0  0  0  0  0
    4.4238    2.0420    0.7273 C   0  0  0  0  0  0  0  0  0  0  0  0
    3.5992    3.1799    0.9560 N   0  0  0  0  0  0  0  0  0  0  0  0
    2.6367    3.4350    0.1223 C   0  0  0  0  0  0  0  0  0  0  0  0
    1.7815    4.6358    0.3439 C   0  0  0  0  0  0  0  0  0  0  0  0
    1.2462    5.3153   -0.7461 C   0  0  0  0  0  0  0  0  0  0  0  0
    0.4185    6.4175   -0.5512 C   0  0  0  0  0  0  0  0  0  0  0  0
    0.0962    6.8696    0.7316 C   0  0  0  0  0  0  0  0  0  0  0  0
   -0.7476    7.9812    0.9617 N   0  0  0  0  0  0  0  0  0  0  0  0
   -1.4843    8.6409   -0.0094 C   0  0  0  0  0  0  0  0  0  0  0  0
   -1.5761    8.3007   -1.1832 O   0  0  0  0  0  0  0  0  0  0  0  0
   -2.0915    9.7870    0.4880 N   0  0  0  0  0  0  0  0  0  0  0  0
   -2.8893   10.5902   -0.3628 C   0  0  0  0  0  0  0  0  0  0  0  0
   -2.6832   11.9713   -0.3726 C   0  0  0  0  0  0  0  0  0  0  0  0
   -3.3978   12.7783   -1.2622 C   0  0  0  0  0  0  0  0  0  0  0  0
   -4.3543   12.2140   -2.1074 C   0  0  0  0  0  0  0  0  0  0  0  0
   -4.5857   10.8410   -2.0689 C   0  0  0  0  0  0  0  0  0  0  0  0
   -5.7845   10.1494   -3.0931 Cl  0  0  0  0  0  0  0  0  0  0  0  0
   -3.8532   10.0262   -1.2081 C   0  0  0  0  0  0  0  0  0  0  0  0
    0.6688    6.2110    1.8284 C   0  0  0  0  0  0  0  0  0  0  0  0
    1.5061    5.0988    1.6366 C   0  0  0  0  0  0  0  0  0  0  0  0
    2.3338    2.5469   -1.0721 C   0  0  0  0  0  0  0  0  0  0  0  0
    3.4236    2.6947   -2.1210 C   0  0  0  0  0  0  0  0  0  0  0  0
    4.7797    2.3721   -1.6909 N   0  0  0  0  0  0  0  0  0  0  0  0
    4.7321    0.8904    3.7505 H   0  0  0  0  0  0  0  0  0  0  0  0
    4.2325    2.4548    3.2654 H   0  0  0  0  0  0  0  0  0  0  0  0
    6.7502   -0.9233    0.3706 H   0  0  0  0  0  0  0  0  0  0  0  0
    1.4633    5.0233   -1.7682 H   0  0  0  0  0  0  0  0  0  0  0  0
    0.0385    6.8995   -1.4444 H   0  0  0  0  0  0  0  0  0  0  0  0
   -0.9506    8.2177    1.9234 H   0  0  0  0  0  0  0  0  0  0  0  0
   -1.5466   10.2741    1.1845 H   0  0  0  0  0  0  0  0  0  0  0  0
   -1.9228   12.4257    0.2562 H   0  0  0  0  0  0  0  0  0  0  0  0
   -3.1980   13.8458   -1.3087 H   0  0  0  0  0  0  0  0  0  0  0  0
   -4.9101   12.8455   -2.7953 H   0  0  0  0  0  0  0  0  0  0  0  0
   -4.0323    8.9539   -1.2035 H   0  0  0  0  0  0  0  0  0  0  0  0
    0.4670    6.5384    2.8469 H   0  0  0  0  0  0  0  0  0  0  0  0
    1.9371    4.5915    2.4984 H   0  0  0  0  0  0  0  0  0  0  0  0
    1.3619    2.7944   -1.5108 H   0  0  0  0  0  0  0  0  0  0  0  0
    2.2396    1.5082   -0.7335 H   0  0  0  0  0  0  0  0  0  0  0  0
    3.4402    3.7223   -2.5025 H   0  0  0  0  0  0  0  0  0  0  0  0
    3.1709    2.0542   -2.9747 H   0  0  0  0  0  0  0  0  0  0  0  0
    5.3088    1.8706   -2.4021 H   0  0  0  0  0  0  0  0  0  0  0  0
  1  2  1  0  0  0  0
  1 30  1  0  0  0  0
  1 31  1  0  0  0  0
  2  3  1  0  0  0  0
  2  7  2  0  0  0  0
  3  4  2  0  0  0  0
  4  5  1  0  0  0  0
  4 32  1  0  0  0  0
  5  6  2  0  0  0  0
  6  7  1  0  0  0  0
  6 29  1  0  0  0  0
  7  8  1  0  0  0  0
  8  9  2  0  0  0  0
  9 10  1  0  0  0  0
  9 27  1  0  0  0  0
 10 11  1  0  0  0  0
 10 26  2  0  0  0  0
 11 12  2  0  0  0  0
 11 33  1  0  0  0  0
 12 13  1  0  0  0  0
 12 34  1  0  0  0  0
 13 14  1  0  0  0  0
 13 25  2  0  0  0  0
 14 15  1  0  0  0  0
 14 35  1  0  0  0  0
 15 16  2  0  0  0  0
 15 17  1  0  0  0  0
 17 18  1  0  0  0  0
 17 36  1  0  0  0  0
 18 19  1  0  0  0  0
 18 24  2  0  0  0  0
 19 20  2  0  0  0  0
 19 37  1  0  0  0  0
 20 21  1  0  0  0  0
 20 38  1  0  0  0  0
 21 22  2  0  0  0  0
 21 39  1  0  0  0  0
 22 23  1  0  0  0  0
 22 24  1  0  0  0  0
 24 40  1  0  0  0  0
 25 26  1  0  0  0  0
 25 41  1  0  0  0  0
 26 42  1  0  0  0  0
 27 28  1  0  0  0  0
 27 43  1  0  0  0  0
 27 44  1  0  0  0  0
 28 29  1  0  0  0  0
 28 45  1  0  0  0  0
 28 46  1  0  0  0  0
 29 47  1  0  0  0  0
M  END
$$$$
