CHEMBL458248
 OpenBabel04072215383D

 46 50  0  0  0  0  0  0  0  0999 V2000
    1.5186   -1.2916   -1.3884 C   0  0  0  0  0  0  0  0  0  0  0  0
    2.7911   -0.7562   -0.8037 C   0  0  0  0  0  0  0  0  0  0  0  0
    3.1856   -1.0325    0.3227 O   0  0  0  0  0  0  0  0  0  0  0  0
    3.4069    0.1337   -1.6942 O   0  0  0  0  0  0  0  0  0  0  0  0
    4.7684    0.3857   -1.3786 C   0  0  0  0  0  0  0  0  0  0  0  0
    5.6461   -0.6860   -1.1460 C   0  0  0  0  0  0  0  0  0  0  0  0
    5.4710   -2.0291   -1.4009 O   0  0  0  0  0  0  0  0  0  0  0  0
    6.5328   -2.6679   -0.8057 C   0  0  0  0  0  0  0  0  0  0  0  0
    6.8909   -4.0115   -0.8959 C   0  0  0  0  0  0  0  0  0  0  0  0
    7.9329   -4.4009   -0.0425 C   0  0  0  0  0  0  0  0  0  0  0  0
    8.4604   -5.6644   -0.0993 O   0  0  0  0  0  0  0  0  0  0  0  0
    8.5017   -3.5262    0.8885 C   0  0  0  0  0  0  0  0  0  0  0  0
    9.4411   -3.9518    1.7833 O   0  0  0  0  0  0  0  0  0  0  0  0
    8.1801   -2.1825    0.8962 C   0  0  0  0  0  0  0  0  0  0  0  0
    7.2522   -1.7496   -0.0544 C   0  0  0  0  0  0  0  0  0  0  0  0
    6.8979   -0.5009   -0.5897 C   0  0  0  0  0  0  0  0  0  0  0  0
    7.4716    0.7621   -0.6553 C   0  0  0  0  0  0  0  0  0  0  0  0
    8.8558    0.9909   -0.3923 O   0  0  0  0  0  0  0  0  0  0  0  0
    9.7887    0.1332   -0.9843 C   0  0  0  0  0  0  0  0  0  0  0  0
   11.1812    0.5974   -0.6754 C   0  0  0  0  0  0  0  0  0  0  0  0
    9.5540   -0.8247   -1.7114 O   0  0  0  0  0  0  0  0  0  0  0  0
    6.6559    1.8255   -1.0105 C   0  0  0  0  0  0  0  0  0  0  0  0
    7.0678    3.1110   -1.0912 O   0  0  0  0  0  0  0  0  0  0  0  0
    5.9663    3.8610   -1.3165 C   0  0  0  0  0  0  0  0  0  0  0  0
    5.9963    5.2499   -1.4092 C   0  0  0  0  0  0  0  0  0  0  0  0
    4.7631    5.8711   -1.5636 C   0  0  0  0  0  0  0  0  0  0  0  0
    4.6682    7.2302   -1.6401 O   0  0  0  0  0  0  0  0  0  0  0  0
    3.5877    5.1192   -1.6216 C   0  0  0  0  0  0  0  0  0  0  0  0
    2.3929    5.7801   -1.7298 O   0  0  0  0  0  0  0  0  0  0  0  0
    3.5868    3.7181   -1.5622 C   0  0  0  0  0  0  0  0  0  0  0  0
    4.8263    3.0597   -1.4084 C   0  0  0  0  0  0  0  0  0  0  0  0
    5.2911    1.7014   -1.2997 C   0  0  0  0  0  0  0  0  0  0  0  0
    1.3664   -2.3171   -1.0334 H   0  0  0  0  0  0  0  0  0  0  0  0
    1.5831   -1.3301   -2.4789 H   0  0  0  0  0  0  0  0  0  0  0  0
    0.6812   -0.6611   -1.0807 H   0  0  0  0  0  0  0  0  0  0  0  0
    6.4080   -4.6797   -1.5945 H   0  0  0  0  0  0  0  0  0  0  0  0
    8.3119   -5.9957   -1.0032 H   0  0  0  0  0  0  0  0  0  0  0  0
    9.5210   -4.9068    1.6021 H   0  0  0  0  0  0  0  0  0  0  0  0
    8.6554   -1.4924    1.5830 H   0  0  0  0  0  0  0  0  0  0  0  0
   11.1802    1.3320    0.1335 H   0  0  0  0  0  0  0  0  0  0  0  0
   11.6037    1.0517   -1.5757 H   0  0  0  0  0  0  0  0  0  0  0  0
   11.7922   -0.2545   -0.3626 H   0  0  0  0  0  0  0  0  0  0  0  0
    6.9325    5.7885   -1.3403 H   0  0  0  0  0  0  0  0  0  0  0  0
    5.5629    7.6035   -1.6071 H   0  0  0  0  0  0  0  0  0  0  0  0
    2.6332    6.7296   -1.7253 H   0  0  0  0  0  0  0  0  0  0  0  0
    2.6510    3.1707   -1.5997 H   0  0  0  0  0  0  0  0  0  0  0  0
  1  2  1  0  0  0  0
  1 33  1  0  0  0  0
  1 34  1  0  0  0  0
  1 35  1  0  0  0  0
  2  3  2  0  0  0  0
  2  4  1  0  0  0  0
  4  5  1  0  0  0  0
  5  6  1  0  0  0  0
  5 32  2  0  0  0  0
  6  7  1  0  0  0  0
  6 16  2  0  0  0  0
  7  8  1  0  0  0  0
  8  9  1  0  0  0  0
  8 15  2  0  0  0  0
  9 10  2  0  0  0  0
  9 36  1  0  0  0  0
 10 11  1  0  0  0  0
 10 12  1  0  0  0  0
 11 37  1  0  0  0  0
 12 13  1  0  0  0  0
 12 14  2  0  0  0  0
 13 38  1  0  0  0  0
 14 15  1  0  0  0  0
 14 39  1  0  0  0  0
 15 16  1  0  0  0  0
 16 17  1  0  0  0  0
 17 18  1  0  0  0  0
 17 22  2  0  0  0  0
 18 19  1  0  0  0  0
 19 20  1  0  0  0  0
 19 21  2  0  0  0  0
 20 40  1  0  0  0  0
 20 41  1  0  0  0  0
 20 42  1  0  0  0  0
 22 23  1  0  0  0  0
 22 32  1  0  0  0  0
 23 24  1  0  0  0  0
 24 25  1  0  0  0  0
 24 31  2  0  0  0  0
 25 26  2  0  0  0  0
 25 43  1  0  0  0  0
 26 27  1  0  0  0  0
 26 28  1  0  0  0  0
 27 44  1  0  0  0  0
 28 29  1  0  0  0  0
 28 30  2  0  0  0  0
 29 45  1  0  0  0  0
 30 31  1  0  0  0  0
 30 46  1  0  0  0  0
 31 32  1  0  0  0  0
M  END
$$$$
