CHEMBL3656075
 OpenBabel04072215373D

 77 80  0  0  1  0  0  0  0  0999 V2000
    2.8646    7.1668    2.5518 C   0  0  0  0  0  0  0  0  0  0  0  0
    1.7349    6.1985    2.3494 C   0  0  0  0  0  0  0  0  0  0  0  0
    2.0145    4.8942    1.9298 C   0  0  0  0  0  0  0  0  0  0  0  0
    0.9811    3.9832    1.7618 C   0  0  0  0  0  0  0  0  0  0  0  0
   -0.3372    4.3699    1.9960 C   0  0  0  0  0  0  0  0  0  0  0  0
   -1.2465    3.3880    1.9407 F   0  0  0  0  0  0  0  0  0  0  0  0
   -0.6674    5.6851    2.3627 C   0  0  0  0  0  0  0  0  0  0  0  0
   -1.9981    6.1740    2.5477 N   0  0  0  0  0  0  0  0  0  0  0  0
   -3.1279    5.5864    2.0331 C   0  0  0  0  0  0  0  0  0  0  0  0
   -3.1365    4.5907    1.3122 O   0  0  0  0  0  0  0  0  0  0  0  0
   -4.3057    6.2728    2.3257 N   0  0  0  0  0  0  0  0  0  0  0  0
   -5.5359    5.7097    1.8910 C   0  0  0  0  0  0  0  0  0  0  0  0
   -5.8567    4.3868    2.2162 C   0  0  0  0  0  0  0  0  0  0  0  0
   -7.0000    3.7823    1.6917 C   0  0  0  0  0  0  0  0  0  0  0  0
   -7.8729    4.5140    0.8853 C   0  0  0  0  0  0  0  0  0  0  0  0
   -9.0280    3.9987    0.3336 O   0  0  0  0  0  0  0  0  0  0  0  0
   -9.7358    3.0336    1.0186 C   0  0  0  0  0  0  0  0  0  0  0  0
   -9.8608    2.9984    2.4049 C   0  0  0  0  0  0  0  0  0  0  0  0
  -10.5555    1.9442    2.9696 C   0  0  0  0  0  0  0  0  0  0  0  0
  -11.1654    0.9721    2.2566 N   0  0  0  0  0  0  0  0  0  0  0  0
  -11.0833    1.0638    0.9072 C   0  0  0  0  0  0  0  0  0  0  0  0
  -11.7810    0.0052    0.1821 C   0  0  0  0  0  0  0  0  0  0  0  0
  -11.9454   -0.2208   -1.1743 C   0  0  0  0  0  0  0  0  0  0  0  0
  -12.7411   -1.3908   -1.3635 C   0  0  0  0  0  0  0  0  0  0  0  0
  -13.2060   -2.0195   -2.5998 C   0  0  0  0  0  0  0  0  0  0  0  0
  -13.9291   -3.0119   -2.6031 O   0  0  0  0  0  0  0  0  0  0  0  0
  -12.7754   -1.4079   -3.7587 N   0  0  0  0  0  0  0  0  0  0  0  0
  -13.1570   -1.8801   -5.0695 C   0  0  0  0  0  0  0  0  0  0  0  0
  -14.4797   -1.2765   -5.5480 C   0  0  0  0  0  0  0  0  0  0  0  0
  -14.4397    0.2441   -5.7025 C   0  0  0  0  0  0  0  0  0  0  0  0
  -13.3554    0.6942   -6.6558 C   0  0  0  0  0  0  0  0  0  0  0  0
  -12.3993    1.3663   -6.2803 O   0  0  0  0  0  0  0  0  0  0  0  0
  -13.5065    0.2534   -7.9507 N   0  0  0  0  0  0  0  0  0  0  0  0
  -12.5429    0.6392   -8.9661 C   0  0  0  0  0  0  0  0  0  0  0  0
  -12.8594    0.0149  -10.3277 C   0  0  3  0  0  0  0  0  0  0  0  0
  -14.1582    0.4568  -10.7510 O   0  0  0  0  0  0  0  0  0  0  0  0
  -11.7827    0.3978  -11.3540 C   0  0  0  0  0  0  0  0  0  0  0  0
  -12.0672   -0.1454  -12.6395 O   0  0  0  0  0  0  0  0  0  0  0  0
  -13.0201   -1.8583   -0.0887 C   0  0  0  0  0  0  0  0  0  0  0  0
  -12.4370   -1.0208    0.8237 N   0  0  0  0  0  0  0  0  0  0  0  0
  -10.3901    2.0752    0.2531 C   0  0  0  0  0  0  0  0  0  0  0  0
   -7.5521    5.8343    0.5521 C   0  0  0  0  0  0  0  0  0  0  0  0
   -6.3987    6.4418    1.0730 C   0  0  0  0  0  0  0  0  0  0  0  0
    0.3948    6.5870    2.5663 C   0  0  0  0  0  0  0  0  0  0  0  0
    3.8333    6.6921    2.3558 H   0  0  0  0  0  0  0  0  0  0  0  0
    2.8780    7.5255    3.5853 H   0  0  0  0  0  0  0  0  0  0  0  0
    2.7680    8.0150    1.8678 H   0  0  0  0  0  0  0  0  0  0  0  0
    3.0375    4.5717    1.7489 H   0  0  0  0  0  0  0  0  0  0  0  0
    1.1843    2.9595    1.4645 H   0  0  0  0  0  0  0  0  0  0  0  0
   -2.1050    7.0788    2.9707 H   0  0  0  0  0  0  0  0  0  0  0  0
   -4.2212    7.2742    2.2309 H   0  0  0  0  0  0  0  0  0  0  0  0
   -5.2008    3.8027    2.8578 H   0  0  0  0  0  0  0  0  0  0  0  0
   -7.1816    2.7351    1.9164 H   0  0  0  0  0  0  0  0  0  0  0  0
   -9.4092    3.7516    3.0391 H   0  0  0  0  0  0  0  0  0  0  0  0
  -10.6325    1.8494    4.0491 H   0  0  0  0  0  0  0  0  0  0  0  0
  -11.5366    0.4098   -1.9511 H   0  0  0  0  0  0  0  0  0  0  0  0
  -12.2055   -0.5761   -3.7031 H   0  0  0  0  0  0  0  0  0  0  0  0
  -13.2458   -2.9716   -5.0427 H   0  0  0  0  0  0  0  0  0  0  0  0
  -12.3375   -1.6365   -5.7531 H   0  0  0  0  0  0  0  0  0  0  0  0
  -15.2796   -1.5347   -4.8434 H   0  0  0  0  0  0  0  0  0  0  0  0
  -14.7426   -1.7368   -6.5078 H   0  0  0  0  0  0  0  0  0  0  0  0
  -14.2637    0.7241   -4.7325 H   0  0  0  0  0  0  0  0  0  0  0  0
  -15.4044    0.6146   -6.0677 H   0  0  0  0  0  0  0  0  0  0  0  0
  -14.4286   -0.0283   -8.2687 H   0  0  0  0  0  0  0  0  0  0  0  0
  -11.5490    0.3344   -8.6205 H   0  0  0  0  0  0  0  0  0  0  0  0
  -12.5672    1.7324   -9.0300 H   0  0  0  0  0  0  0  0  0  0  0  0
  -12.9238   -1.0761  -10.2476 H   0  0  0  0  0  0  0  0  0  0  0  0
  -14.0571    1.3430  -11.1439 H   0  0  0  0  0  0  0  0  0  0  0  0
  -10.7976    0.0385  -11.0394 H   0  0  0  0  0  0  0  0  0  0  0  0
  -11.7323    1.4847  -11.4748 H   0  0  0  0  0  0  0  0  0  0  0  0
  -12.2625   -1.0925  -12.5311 H   0  0  0  0  0  0  0  0  0  0  0  0
  -13.5880   -2.7198    0.2344 H   0  0  0  0  0  0  0  0  0  0  0  0
  -12.4706   -1.1155    1.8331 H   0  0  0  0  0  0  0  0  0  0  0  0
  -10.3432    2.1206   -0.8273 H   0  0  0  0  0  0  0  0  0  0  0  0
   -8.1884    6.3845   -0.1374 H   0  0  0  0  0  0  0  0  0  0  0  0
   -6.1533    7.4538    0.7657 H   0  0  0  0  0  0  0  0  0  0  0  0
    0.1917    7.6104    2.8701 H   0  0  0  0  0  0  0  0  0  0  0  0
  1  2  1  0  0  0  0
  1 45  1  0  0  0  0
  1 46  1  0  0  0  0
  1 47  1  0  0  0  0
  2  3  1  0  0  0  0
  2 44  2  0  0  0  0
  3  4  2  0  0  0  0
  3 48  1  0  0  0  0
  4  5  1  0  0  0  0
  4 49  1  0  0  0  0
  5  6  1  0  0  0  0
  5  7  2  0  0  0  0
  7  8  1  0  0  0  0
  7 44  1  0  0  0  0
  8  9  1  0  0  0  0
  8 50  1  0  0  0  0
  9 10  2  0  0  0  0
  9 11  1  0  0  0  0
 11 12  1  0  0  0  0
 11 51  1  0  0  0  0
 12 13  1  0  0  0  0
 12 43  2  0  0  0  0
 13 14  2  0  0  0  0
 13 52  1  0  0  0  0
 14 15  1  0  0  0  0
 14 53  1  0  0  0  0
 15 16  1  0  0  0  0
 15 42  2  0  0  0  0
 16 17  1  0  0  0  0
 17 18  1  0  0  0  0
 17 41  2  0  0  0  0
 18 19  2  0  0  0  0
 18 54  1  0  0  0  0
 19 20  1  0  0  0  0
 19 55  1  0  0  0  0
 20 21  2  0  0  0  0
 21 22  1  0  0  0  0
 21 41  1  0  0  0  0
 22 23  2  0  0  0  0
 22 40  1  0  0  0  0
 23 24  1  0  0  0  0
 23 56  1  0  0  0  0
 24 25  1  0  0  0  0
 24 39  2  0  0  0  0
 25 26  2  0  0  0  0
 25 27  1  0  0  0  0
 27 28  1  0  0  0  0
 27 57  1  0  0  0  0
 28 29  1  0  0  0  0
 28 58  1  0  0  0  0
 28 59  1  0  0  0  0
 29 30  1  0  0  0  0
 29 60  1  0  0  0  0
 29 61  1  0  0  0  0
 30 31  1  0  0  0  0
 30 62  1  0  0  0  0
 30 63  1  0  0  0  0
 31 32  2  0  0  0  0
 31 33  1  0  0  0  0
 33 34  1  0  0  0  0
 33 64  1  0  0  0  0
 34 35  1  0  0  0  0
 34 65  1  0  0  0  0
 34 66  1  0  0  0  0
 35 36  1  0  0  0  0
 35 37  1  0  0  0  0
 35 67  1  0  0  0  0
 36 68  1  0  0  0  0
 37 38  1  0  0  0  0
 37 69  1  0  0  0  0
 37 70  1  0  0  0  0
 38 71  1  0  0  0  0
 39 40  1  0  0  0  0
 39 72  1  0  0  0  0
 40 73  1  0  0  0  0
 41 74  1  0  0  0  0
 42 43  1  0  0  0  0
 42 75  1  0  0  0  0
 43 76  1  0  0  0  0
 44 77  1  0  0  0  0
M  END
$$$$
