CHEMBL1254923
 OpenBabel04072215363D

 47 50  0  0  0  0  0  0  0  0999 V2000
    2.3669   -0.4461    1.5571 C   0  0  0  0  0  0  0  0  0  0  0  0
    0.8722   -0.3309    1.5145 C   0  0  0  0  0  0  0  0  0  0  0  0
    0.2633    0.8612    1.9210 C   0  0  0  0  0  0  0  0  0  0  0  0
   -1.1183    0.9815    1.8930 C   0  0  0  0  0  0  0  0  0  0  0  0
   -1.9031   -0.0889    1.4634 C   0  0  0  0  0  0  0  0  0  0  0  0
   -1.3297   -1.2933    1.0375 C   0  0  0  0  0  0  0  0  0  0  0  0
   -2.1028   -2.4045    0.5965 N   0  0  0  0  0  0  0  0  0  0  0  0
   -3.4741   -2.3920    0.3950 C   0  0  0  0  0  0  0  0  0  0  0  0
   -4.1813   -1.3929    0.4984 O   0  0  0  0  0  0  0  0  0  0  0  0
   -4.0007   -3.6476    0.1140 N   0  0  0  0  0  0  0  0  0  0  0  0
   -5.4038   -3.7714   -0.0857 C   0  0  0  0  0  0  0  0  0  0  0  0
   -6.0945   -2.8686   -0.9026 C   0  0  0  0  0  0  0  0  0  0  0  0
   -7.4905   -2.8787   -0.9635 C   0  0  0  0  0  0  0  0  0  0  0  0
   -8.2177   -3.8231   -0.2396 C   0  0  0  0  0  0  0  0  0  0  0  0
   -9.5959   -3.8442   -0.1589 O   0  0  0  0  0  0  0  0  0  0  0  0
  -10.3405   -3.4414   -1.2622 C   0  0  0  0  0  0  0  0  0  0  0  0
   -9.8524   -3.6183   -2.5100 N   0  0  0  0  0  0  0  0  0  0  0  0
  -10.6012   -3.2163   -3.5477 C   0  0  0  0  0  0  0  0  0  0  0  0
  -11.8251   -2.6788   -3.5173 N   0  0  0  0  0  0  0  0  0  0  0  0
  -12.3273   -2.5589   -2.2708 C   0  0  0  0  0  0  0  0  0  0  0  0
  -13.5860   -2.0567   -1.8739 C   0  0  0  0  0  0  0  0  0  0  0  0
  -13.6421   -2.1346   -0.4996 C   0  0  0  0  0  0  0  0  0  0  0  0
  -12.4496   -2.6586   -0.0560 N   0  0  0  0  0  0  0  0  0  0  0  0
  -12.1375   -2.8917    1.3351 C   0  0  0  0  0  0  0  0  0  0  0  0
  -11.6234   -2.9270   -1.1264 C   0  0  0  0  0  0  0  0  0  0  0  0
   -7.5272   -4.7513    0.5498 C   0  0  0  0  0  0  0  0  0  0  0  0
   -6.1231   -4.7453    0.6082 C   0  0  0  0  0  0  0  0  0  0  0  0
    0.0693   -1.4066    1.0748 C   0  0  0  0  0  0  0  0  0  0  0  0
    2.8256    0.4708    1.9474 H   0  0  0  0  0  0  0  0  0  0  0  0
    2.7642   -0.6100    0.5514 H   0  0  0  0  0  0  0  0  0  0  0  0
    2.6693   -1.2680    2.2115 H   0  0  0  0  0  0  0  0  0  0  0  0
    0.8591    1.7059    2.2578 H   0  0  0  0  0  0  0  0  0  0  0  0
   -1.5973    1.9060    2.2025 H   0  0  0  0  0  0  0  0  0  0  0  0
   -2.9755    0.0722    1.4737 H   0  0  0  0  0  0  0  0  0  0  0  0
   -1.6018   -3.2159    0.2690 H   0  0  0  0  0  0  0  0  0  0  0  0
   -3.5451   -4.4103    0.5925 H   0  0  0  0  0  0  0  0  0  0  0  0
   -5.5544   -2.1143   -1.4710 H   0  0  0  0  0  0  0  0  0  0  0  0
   -7.9859   -2.1217   -1.5641 H   0  0  0  0  0  0  0  0  0  0  0  0
  -10.1575   -3.3396   -4.5303 H   0  0  0  0  0  0  0  0  0  0  0  0
  -14.3642   -1.6867   -2.5277 H   0  0  0  0  0  0  0  0  0  0  0  0
  -14.4318   -1.8602    0.1892 H   0  0  0  0  0  0  0  0  0  0  0  0
  -12.9921   -2.6027    1.9537 H   0  0  0  0  0  0  0  0  0  0  0  0
  -11.2697   -2.2847    1.6028 H   0  0  0  0  0  0  0  0  0  0  0  0
  -11.9331   -3.9562    1.4706 H   0  0  0  0  0  0  0  0  0  0  0  0
   -8.0842   -5.4656    1.1506 H   0  0  0  0  0  0  0  0  0  0  0  0
   -5.6202   -5.4491    1.2645 H   0  0  0  0  0  0  0  0  0  0  0  0
    0.5549   -2.3272    0.7606 H   0  0  0  0  0  0  0  0  0  0  0  0
  1  2  1  0  0  0  0
  1 29  1  0  0  0  0
  1 30  1  0  0  0  0
  1 31  1  0  0  0  0
  2  3  1  0  0  0  0
  2 28  2  0  0  0  0
  3  4  2  0  0  0  0
  3 32  1  0  0  0  0
  4  5  1  0  0  0  0
  4 33  1  0  0  0  0
  5  6  2  0  0  0  0
  5 34  1  0  0  0  0
  6  7  1  0  0  0  0
  6 28  1  0  0  0  0
  7  8  1  0  0  0  0
  7 35  1  0  0  0  0
  8  9  2  0  0  0  0
  8 10  1  0  0  0  0
 10 11  1  0  0  0  0
 10 36  1  0  0  0  0
 11 12  1  0  0  0  0
 11 27  2  0  0  0  0
 12 13  2  0  0  0  0
 12 37  1  0  0  0  0
 13 14  1  0  0  0  0
 13 38  1  0  0  0  0
 14 15  1  0  0  0  0
 14 26  2  0  0  0  0
 15 16  1  0  0  0  0
 16 17  1  0  0  0  0
 16 25  2  0  0  0  0
 17 18  2  0  0  0  0
 18 19  1  0  0  0  0
 18 39  1  0  0  0  0
 19 20  2  0  0  0  0
 20 21  1  0  0  0  0
 20 25  1  0  0  0  0
 21 22  2  0  0  0  0
 21 40  1  0  0  0  0
 22 23  1  0  0  0  0
 22 41  1  0  0  0  0
 23 24  1  0  0  0  0
 23 25  1  0  0  0  0
 24 42  1  0  0  0  0
 24 43  1  0  0  0  0
 24 44  1  0  0  0  0
 26 27  1  0  0  0  0
 26 45  1  0  0  0  0
 27 46  1  0  0  0  0
 28 47  1  0  0  0  0
M  END
$$$$
