CHEMBL462232
 OpenBabel04072215383D

 59 64  0  0  0  0  0  0  0  0999 V2000
    0.3497    3.1222   -2.4645 C   0  0  0  0  0  0  0  0  0  0  0  0
    0.0792    1.7712   -2.8804 N   0  0  0  0  0  0  0  0  0  0  0  0
    0.9576    0.9051   -3.4612 C   0  0  0  0  0  0  0  0  0  0  0  0
    0.4203   -0.2846   -3.6220 N   0  0  0  0  0  0  0  0  0  0  0  0
   -0.8680   -0.1653   -3.1567 C   0  0  0  0  0  0  0  0  0  0  0  0
   -1.8447   -1.2872   -3.1178 C   0  0  0  0  0  0  0  0  0  0  0  0
   -1.5263   -2.5903   -3.4260 C   0  0  0  0  0  0  0  0  0  0  0  0
   -2.6308   -3.4728   -3.2419 C   0  0  0  0  0  0  0  0  0  0  0  0
   -2.5978   -4.8210   -3.4293 N   0  0  0  0  0  0  0  0  0  0  0  0
   -3.7458   -5.4755   -3.1762 C   0  0  0  0  0  0  0  0  0  0  0  0
   -4.9297   -4.8849   -2.7797 C   0  0  0  0  0  0  0  0  0  0  0  0
   -4.9824   -3.4946   -2.6676 C   0  0  0  0  0  0  0  0  0  0  0  0
   -6.1401   -2.8064   -2.3602 O   0  0  0  0  0  0  0  0  0  0  0  0
   -7.2954   -3.1475   -3.0288 C   0  0  0  0  0  0  0  0  0  0  0  0
   -7.3098   -3.7520   -4.2855 C   0  0  0  0  0  0  0  0  0  0  0  0
   -8.5062   -4.2226   -4.8169 C   0  0  0  0  0  0  0  0  0  0  0  0
   -9.7121   -4.0250   -4.1428 C   0  0  0  0  0  0  0  0  0  0  0  0
  -10.9190   -4.5584   -4.6238 N   0  0  0  0  0  0  0  0  0  0  0  0
  -11.0391   -5.6480   -5.4622 C   0  0  0  0  0  0  0  0  0  0  0  0
  -10.1072   -6.3415   -5.8670 O   0  0  0  0  0  0  0  0  0  0  0  0
  -12.3380   -5.9514   -5.8217 N   0  0  0  0  0  0  0  0  0  0  0  0
  -12.6261   -7.1208   -6.6115 C   0  0  0  0  0  0  0  0  0  0  0  0
  -14.1380   -7.1440   -6.6657 C   0  0  0  0  0  0  0  0  0  0  0  0
  -14.4964   -5.7537   -6.5188 N   0  0  0  0  0  0  0  0  0  0  0  0
  -15.7839   -5.2373   -6.7883 C   0  0  0  0  0  0  0  0  0  0  0  0
  -16.0226   -3.8572   -6.7961 C   0  0  0  0  0  0  0  0  0  0  0  0
  -17.3019   -3.3484   -7.0321 C   0  0  0  0  0  0  0  0  0  0  0  0
  -18.3624   -4.2146   -7.2709 C   0  0  0  0  0  0  0  0  0  0  0  0
  -18.1395   -5.5878   -7.2965 C   0  0  0  0  0  0  0  0  0  0  0  0
  -16.8568   -6.0953   -7.0673 C   0  0  0  0  0  0  0  0  0  0  0  0
  -13.4374   -5.0641   -5.8812 C   0  0  0  0  0  0  0  0  0  0  0  0
  -13.4492   -3.9451   -5.3865 O   0  0  0  0  0  0  0  0  0  0  0  0
   -9.7200   -3.2786   -2.9656 C   0  0  0  0  0  0  0  0  0  0  0  0
   -8.5113   -2.8624   -2.4054 C   0  0  0  0  0  0  0  0  0  0  0  0
   -8.5317   -2.2057   -1.2361 F   0  0  0  0  0  0  0  0  0  0  0  0
   -3.7841   -2.7917   -2.8516 C   0  0  0  0  0  0  0  0  0  0  0  0
   -3.4792   -1.1131   -2.6739 S   0  0  0  0  0  0  0  0  0  0  0  0
   -1.1063    1.1173   -2.7137 C   0  0  0  0  0  0  0  0  0  0  0  0
    1.3350    3.4270   -2.8211 H   0  0  0  0  0  0  0  0  0  0  0  0
    0.3223    3.1534   -1.3713 H   0  0  0  0  0  0  0  0  0  0  0  0
   -0.4180    3.7775   -2.8831 H   0  0  0  0  0  0  0  0  0  0  0  0
    1.9686    1.1796   -3.7330 H   0  0  0  0  0  0  0  0  0  0  0  0
   -0.5394   -2.9120   -3.7343 H   0  0  0  0  0  0  0  0  0  0  0  0
   -3.6957   -6.5526   -3.3211 H   0  0  0  0  0  0  0  0  0  0  0  0
   -5.8066   -5.4993   -2.6055 H   0  0  0  0  0  0  0  0  0  0  0  0
   -6.3994   -3.9091   -4.8563 H   0  0  0  0  0  0  0  0  0  0  0  0
   -8.4678   -4.7381   -5.7718 H   0  0  0  0  0  0  0  0  0  0  0  0
  -11.7878   -4.2069   -4.2292 H   0  0  0  0  0  0  0  0  0  0  0  0
  -12.1884   -8.0208   -6.1707 H   0  0  0  0  0  0  0  0  0  0  0  0
  -12.1946   -6.9701   -7.6089 H   0  0  0  0  0  0  0  0  0  0  0  0
  -14.5430   -7.6891   -5.8047 H   0  0  0  0  0  0  0  0  0  0  0  0
  -14.5027   -7.5835   -7.5981 H   0  0  0  0  0  0  0  0  0  0  0  0
  -15.2201   -3.1423   -6.6372 H   0  0  0  0  0  0  0  0  0  0  0  0
  -17.4619   -2.2733   -7.0257 H   0  0  0  0  0  0  0  0  0  0  0  0
  -19.3606   -3.8186   -7.4385 H   0  0  0  0  0  0  0  0  0  0  0  0
  -18.9657   -6.2678   -7.4866 H   0  0  0  0  0  0  0  0  0  0  0  0
  -16.7313   -7.1734   -7.0834 H   0  0  0  0  0  0  0  0  0  0  0  0
  -10.6437   -3.0649   -2.4309 H   0  0  0  0  0  0  0  0  0  0  0  0
   -1.9751    1.5875   -2.2750 H   0  0  0  0  0  0  0  0  0  0  0  0
  1  2  1  0  0  0  0
  1 39  1  0  0  0  0
  1 40  1  0  0  0  0
  1 41  1  0  0  0  0
  2  3  1  0  0  0  0
  2 38  1  0  0  0  0
  3  4  2  0  0  0  0
  3 42  1  0  0  0  0
  4  5  1  0  0  0  0
  5  6  1  0  0  0  0
  5 38  2  0  0  0  0
  6  7  2  0  0  0  0
  6 37  1  0  0  0  0
  7  8  1  0  0  0  0
  7 43  1  0  0  0  0
  8  9  1  0  0  0  0
  8 36  2  0  0  0  0
  9 10  2  0  0  0  0
 10 11  1  0  0  0  0
 10 44  1  0  0  0  0
 11 12  2  0  0  0  0
 11 45  1  0  0  0  0
 12 13  1  0  0  0  0
 12 36  1  0  0  0  0
 13 14  1  0  0  0  0
 14 15  1  0  0  0  0
 14 34  2  0  0  0  0
 15 16  2  0  0  0  0
 15 46  1  0  0  0  0
 16 17  1  0  0  0  0
 16 47  1  0  0  0  0
 17 18  1  0  0  0  0
 17 33  2  0  0  0  0
 18 19  1  0  0  0  0
 18 48  1  0  0  0  0
 19 20  2  0  0  0  0
 19 21  1  0  0  0  0
 21 22  1  0  0  0  0
 21 31  1  0  0  0  0
 22 23  1  0  0  0  0
 22 49  1  0  0  0  0
 22 50  1  0  0  0  0
 23 24  1  0  0  0  0
 23 51  1  0  0  0  0
 23 52  1  0  0  0  0
 24 25  1  0  0  0  0
 24 31  1  0  0  0  0
 25 26  1  0  0  0  0
 25 30  2  0  0  0  0
 26 27  2  0  0  0  0
 26 53  1  0  0  0  0
 27 28  1  0  0  0  0
 27 54  1  0  0  0  0
 28 29  2  0  0  0  0
 28 55  1  0  0  0  0
 29 30  1  0  0  0  0
 29 56  1  0  0  0  0
 30 57  1  0  0  0  0
 31 32  2  0  0  0  0
 33 34  1  0  0  0  0
 33 58  1  0  0  0  0
 34 35  1  0  0  0  0
 36 37  1  0  0  0  0
 38 59  1  0  0  0  0
M  END
$$$$
