CHEMBL600604
 OpenBabel04072215383D

 61 64  0  0  1  0  0  0  0  0999 V2000
    9.4994    0.0455    2.2570 C   0  0  0  0  0  0  0  0  0  0  0  0
    8.8429   -0.6132    3.3461 O   0  0  0  0  0  0  0  0  0  0  0  0
    8.2225   -1.7952    3.0320 C   0  0  0  0  0  0  0  0  0  0  0  0
    8.7267   -2.6317    2.0222 C   0  0  0  0  0  0  0  0  0  0  0  0
    8.0583   -3.7639    1.5865 C   0  0  0  0  0  0  0  0  0  0  0  0
    8.5701   -4.4408    0.5455 N   0  0  0  0  0  0  0  0  0  0  0  0
    7.8844   -5.5023    0.0775 C   0  0  0  0  0  0  0  0  0  0  0  0
    6.6894   -5.9368    0.6081 C   0  0  0  0  0  0  0  0  0  0  0  0
    6.1455   -5.2094    1.6656 C   0  0  0  0  0  0  0  0  0  0  0  0
    4.9005   -5.5146    2.1892 O   0  0  0  0  0  0  0  0  0  0  0  0
    3.8775   -5.8131    1.3124 C   0  0  0  0  0  0  0  0  0  0  0  0
    2.9573   -6.7716    1.7313 C   0  0  0  0  0  0  0  0  0  0  0  0
    1.9328   -7.1871    0.8679 C   0  0  0  0  0  0  0  0  0  0  0  0
    1.8064   -6.6652   -0.4287 C   0  0  0  0  0  0  0  0  0  0  0  0
    0.9085   -7.2672   -1.2950 N   0  0  0  0  0  0  0  0  0  0  0  0
    0.9138   -7.0848   -2.7763 C   0  0  3  0  0  0  0  0  0  0  0  0
    2.0956   -7.8942   -3.3472 C   0  0  0  0  0  0  0  0  0  0  0  0
    2.2266   -7.7190   -4.8420 C   0  0  0  0  0  0  0  0  0  0  0  0
    1.7415   -6.7368   -5.3858 O   0  0  0  0  0  0  0  0  0  0  0  0
    2.9382   -8.7458   -5.4449 N   0  0  0  0  0  0  0  0  0  0  0  0
    3.2110   -8.8860   -6.8235 C   0  0  0  0  0  0  0  0  0  0  0  0
    2.8840   -7.9255   -7.7802 C   0  0  0  0  0  0  0  0  0  0  0  0
    3.1419   -8.1491   -9.1348 C   0  0  0  0  0  0  0  0  0  0  0  0
    3.7317   -9.3398   -9.5505 C   0  0  0  0  0  0  0  0  0  0  0  0
    4.0799  -10.3021   -8.6060 C   0  0  0  0  0  0  0  0  0  0  0  0
    3.8232  -10.0743   -7.2473 C   0  0  0  0  0  0  0  0  0  0  0  0
   -0.4282   -7.5321   -3.4310 C   0  0  0  0  0  0  0  0  0  0  0  0
   -1.3646   -7.7658   -2.4711 F   0  0  0  0  0  0  0  0  0  0  0  0
   -0.9391   -6.5835   -4.2447 F   0  0  0  0  0  0  0  0  0  0  0  0
   -0.3095   -8.6787   -4.1375 F   0  0  0  0  0  0  0  0  0  0  0  0
    2.6961   -5.6582   -0.8062 C   0  0  0  0  0  0  0  0  0  0  0  0
    3.6953   -5.2182    0.0636 C   0  0  0  0  0  0  0  0  0  0  0  0
    4.5015   -4.2341   -0.3607 F   0  0  0  0  0  0  0  0  0  0  0  0
    6.8578   -4.1243    2.2189 C   0  0  0  0  0  0  0  0  0  0  0  0
    6.4247   -3.3724    3.3318 C   0  0  0  0  0  0  0  0  0  0  0  0
    7.0831   -2.2011    3.7349 C   0  0  0  0  0  0  0  0  0  0  0  0
    6.4658   -1.6104    4.8013 O   0  0  0  0  0  0  0  0  0  0  0  0
    6.7139   -0.2450    5.0926 C   0  0  0  0  0  0  0  0  0  0  0  0
    9.3731    1.1249    2.3821 H   0  0  0  0  0  0  0  0  0  0  0  0
    9.0851   -0.2067    1.2724 H   0  0  0  0  0  0  0  0  0  0  0  0
   10.5695   -0.1826    2.2859 H   0  0  0  0  0  0  0  0  0  0  0  0
    9.6596   -2.3916    1.5188 H   0  0  0  0  0  0  0  0  0  0  0  0
    8.3276   -5.9942   -0.7833 H   0  0  0  0  0  0  0  0  0  0  0  0
    6.1806   -6.7874    0.1726 H   0  0  0  0  0  0  0  0  0  0  0  0
    3.0510   -7.2261    2.7142 H   0  0  0  0  0  0  0  0  0  0  0  0
    1.2567   -7.9720    1.2026 H   0  0  0  0  0  0  0  0  0  0  0  0
    0.0059   -7.5246   -0.8912 H   0  0  0  0  0  0  0  0  0  0  0  0
    1.0252   -6.0180   -3.0039 H   0  0  0  0  0  0  0  0  0  0  0  0
    1.9797   -8.9554   -3.0964 H   0  0  0  0  0  0  0  0  0  0  0  0
    3.0421   -7.5592   -2.9073 H   0  0  0  0  0  0  0  0  0  0  0  0
    3.2508   -9.5066   -4.8519 H   0  0  0  0  0  0  0  0  0  0  0  0
    2.4268   -6.9808   -7.5070 H   0  0  0  0  0  0  0  0  0  0  0  0
    2.8729   -7.3890   -9.8644 H   0  0  0  0  0  0  0  0  0  0  0  0
    3.9162   -9.5135  -10.6071 H   0  0  0  0  0  0  0  0  0  0  0  0
    4.5456  -11.2309   -8.9281 H   0  0  0  0  0  0  0  0  0  0  0  0
    4.1003  -10.8464   -6.5370 H   0  0  0  0  0  0  0  0  0  0  0  0
    2.6442   -5.1827   -1.7795 H   0  0  0  0  0  0  0  0  0  0  0  0
    5.5360   -3.6815    3.8799 H   0  0  0  0  0  0  0  0  0  0  0  0
    5.8185    0.1417    5.5922 H   0  0  0  0  0  0  0  0  0  0  0  0
    6.8601    0.3714    4.2025 H   0  0  0  0  0  0  0  0  0  0  0  0
    7.5490   -0.1533    5.7932 H   0  0  0  0  0  0  0  0  0  0  0  0
  1  2  1  0  0  0  0
  1 39  1  0  0  0  0
  1 40  1  0  0  0  0
  1 41  1  0  0  0  0
  2  3  1  0  0  0  0
  3  4  1  0  0  0  0
  3 36  2  0  0  0  0
  4  5  2  0  0  0  0
  4 42  1  0  0  0  0
  5  6  1  0  0  0  0
  5 34  1  0  0  0  0
  6  7  2  0  0  0  0
  7  8  1  0  0  0  0
  7 43  1  0  0  0  0
  8  9  2  0  0  0  0
  8 44  1  0  0  0  0
  9 10  1  0  0  0  0
  9 34  1  0  0  0  0
 10 11  1  0  0  0  0
 11 12  1  0  0  0  0
 11 32  2  0  0  0  0
 12 13  2  0  0  0  0
 12 45  1  0  0  0  0
 13 14  1  0  0  0  0
 13 46  1  0  0  0  0
 14 15  1  0  0  0  0
 14 31  2  0  0  0  0
 15 16  1  0  0  0  0
 15 47  1  0  0  0  0
 16 17  1  0  0  0  0
 16 27  1  0  0  0  0
 16 48  1  0  0  0  0
 17 18  1  0  0  0  0
 17 49  1  0  0  0  0
 17 50  1  0  0  0  0
 18 19  2  0  0  0  0
 18 20  1  0  0  0  0
 20 21  1  0  0  0  0
 20 51  1  0  0  0  0
 21 22  1  0  0  0  0
 21 26  2  0  0  0  0
 22 23  2  0  0  0  0
 22 52  1  0  0  0  0
 23 24  1  0  0  0  0
 23 53  1  0  0  0  0
 24 25  2  0  0  0  0
 24 54  1  0  0  0  0
 25 26  1  0  0  0  0
 25 55  1  0  0  0  0
 26 56  1  0  0  0  0
 27 28  1  0  0  0  0
 27 29  1  0  0  0  0
 27 30  1  0  0  0  0
 31 32  1  0  0  0  0
 31 57  1  0  0  0  0
 32 33  1  0  0  0  0
 34 35  2  0  0  0  0
 35 36  1  0  0  0  0
 35 58  1  0  0  0  0
 36 37  1  0  0  0  0
 37 38  1  0  0  0  0
 38 59  1  0  0  0  0
 38 60  1  0  0  0  0
 38 61  1  0  0  0  0
M  END
$$$$
