CHEMBL3128229
 OpenBabel04072215363D

 58 62  0  0  0  0  0  0  0  0999 V2000
   -2.1676   -0.1986   -1.4363 O   0  0  0  0  0  0  0  0  0  0  0  0
   -2.3530   -1.2819   -1.9837 C   0  0  0  0  0  0  0  0  0  0  0  0
   -1.4596   -1.9575   -2.8004 N   0  0  0  0  0  0  0  0  0  0  0  0
   -0.1497   -1.5182   -3.1129 C   0  0  0  0  0  0  0  0  0  0  0  0
    0.5030   -0.5157   -2.3916 C   0  0  0  0  0  0  0  0  0  0  0  0
    1.7646   -0.0612   -2.7747 C   0  0  0  0  0  0  0  0  0  0  0  0
    2.4025   -0.6204   -3.8781 C   0  0  0  0  0  0  0  0  0  0  0  0
    1.7957   -1.6620   -4.5931 C   0  0  0  0  0  0  0  0  0  0  0  0
    2.5154   -2.2997   -5.7636 C   0  0  0  0  0  0  0  0  0  0  0  0
    1.7393   -2.1026   -6.9778 N   0  0  0  0  0  0  0  0  0  0  0  0
    2.2937   -2.6524   -8.1351 C   0  0  0  0  0  0  0  0  0  0  0  0
    3.1111   -3.7322   -8.0600 N   0  0  0  0  0  0  0  0  0  0  0  0
    3.6180   -4.2487   -9.1979 C   0  0  0  0  0  0  0  0  0  0  0  0
    3.4362   -3.8192  -10.4572 N   0  0  0  0  0  0  0  0  0  0  0  0
    2.6139   -2.7572  -10.5022 C   0  0  0  0  0  0  0  0  0  0  0  0
    2.0182   -2.1392   -9.4138 C   0  0  0  0  0  0  0  0  0  0  0  0
    1.2599   -1.0968   -9.9749 C   0  0  0  0  0  0  0  0  0  0  0  0
    1.3601   -1.0352  -11.3062 N   0  0  0  0  0  0  0  0  0  0  0  0
    2.1911   -2.0656  -11.6126 N   0  0  0  0  0  0  0  0  0  0  0  0
    2.5804   -2.2472  -13.0022 C   0  0  0  0  0  0  0  0  0  0  0  0
    2.7880   -3.6960  -13.4461 C   0  0  0  0  0  0  0  0  0  0  0  0
    3.0905   -3.8429  -14.9219 C   0  0  0  0  0  0  0  0  0  0  0  0
    4.3140   -4.3889  -15.3390 C   0  0  0  0  0  0  0  0  0  0  0  0
    4.5794   -4.5887  -16.6952 C   0  0  0  0  0  0  0  0  0  0  0  0
    3.6274   -4.2415  -17.6504 C   0  0  0  0  0  0  0  0  0  0  0  0
    2.4123   -3.6897  -17.2502 C   0  0  0  0  0  0  0  0  0  0  0  0
    2.1428   -3.4932  -15.8934 C   0  0  0  0  0  0  0  0  0  0  0  0
    0.5178   -2.1092   -4.1946 C   0  0  0  0  0  0  0  0  0  0  0  0
   -3.6897   -1.9008   -1.8054 C   0  0  0  0  0  0  0  0  0  0  0  0
   -4.7967   -1.0428   -1.6942 C   0  0  0  0  0  0  0  0  0  0  0  0
   -6.0715   -1.5590   -1.4624 C   0  0  0  0  0  0  0  0  0  0  0  0
   -6.2383   -2.9358   -1.3321 C   0  0  0  0  0  0  0  0  0  0  0  0
   -7.9610   -3.6375   -0.9953 Br  0  0  0  0  0  0  0  0  0  0  0  0
   -5.1437   -3.7974   -1.4305 C   0  0  0  0  0  0  0  0  0  0  0  0
   -3.8642   -3.2820   -1.6684 C   0  0  0  0  0  0  0  0  0  0  0  0
   -1.8139   -2.7366   -3.3419 H   0  0  0  0  0  0  0  0  0  0  0  0
    0.0561   -0.0640   -1.5118 H   0  0  0  0  0  0  0  0  0  0  0  0
    2.2421    0.7335   -2.2075 H   0  0  0  0  0  0  0  0  0  0  0  0
    3.3809   -0.2419   -4.1672 H   0  0  0  0  0  0  0  0  0  0  0  0
    2.6629   -3.3621   -5.5363 H   0  0  0  0  0  0  0  0  0  0  0  0
    3.5065   -1.8413   -5.8804 H   0  0  0  0  0  0  0  0  0  0  0  0
    1.4343   -1.1447   -7.1080 H   0  0  0  0  0  0  0  0  0  0  0  0
    4.2521   -5.1232   -9.0798 H   0  0  0  0  0  0  0  0  0  0  0  0
    0.6398   -0.3718   -9.4652 H   0  0  0  0  0  0  0  0  0  0  0  0
    3.4883   -1.6532  -13.1520 H   0  0  0  0  0  0  0  0  0  0  0  0
    1.7858   -1.7865  -13.6049 H   0  0  0  0  0  0  0  0  0  0  0  0
    1.9031   -4.3003  -13.2115 H   0  0  0  0  0  0  0  0  0  0  0  0
    3.6175   -4.1380  -12.8845 H   0  0  0  0  0  0  0  0  0  0  0  0
    5.0673   -4.6787  -14.6092 H   0  0  0  0  0  0  0  0  0  0  0  0
    5.5256   -5.0251  -17.0048 H   0  0  0  0  0  0  0  0  0  0  0  0
    3.8297   -4.4073  -18.7054 H   0  0  0  0  0  0  0  0  0  0  0  0
    1.6675   -3.4227  -17.9956 H   0  0  0  0  0  0  0  0  0  0  0  0
    1.1793   -3.0795  -15.6045 H   0  0  0  0  0  0  0  0  0  0  0  0
    0.0464   -2.9065   -4.7665 H   0  0  0  0  0  0  0  0  0  0  0  0
   -4.6601    0.0347   -1.7749 H   0  0  0  0  0  0  0  0  0  0  0  0
   -6.9155   -0.8804   -1.3724 H   0  0  0  0  0  0  0  0  0  0  0  0
   -5.2757   -4.8695   -1.3038 H   0  0  0  0  0  0  0  0  0  0  0  0
   -3.0153   -3.9594   -1.6968 H   0  0  0  0  0  0  0  0  0  0  0  0
  1  2  2  0  0  0  0
  2  3  1  0  0  0  0
  2 29  1  0  0  0  0
  3  4  1  0  0  0  0
  3 36  1  0  0  0  0
  4  5  1  0  0  0  0
  4 28  2  0  0  0  0
  5  6  2  0  0  0  0
  5 37  1  0  0  0  0
  6  7  1  0  0  0  0
  6 38  1  0  0  0  0
  7  8  2  0  0  0  0
  7 39  1  0  0  0  0
  8  9  1  0  0  0  0
  8 28  1  0  0  0  0
  9 10  1  0  0  0  0
  9 40  1  0  0  0  0
  9 41  1  0  0  0  0
 10 11  1  0  0  0  0
 10 42  1  0  0  0  0
 11 12  1  0  0  0  0
 11 16  2  0  0  0  0
 12 13  2  0  0  0  0
 13 14  1  0  0  0  0
 13 43  1  0  0  0  0
 14 15  2  0  0  0  0
 15 16  1  0  0  0  0
 15 19  1  0  0  0  0
 16 17  1  0  0  0  0
 17 18  2  0  0  0  0
 17 44  1  0  0  0  0
 18 19  1  0  0  0  0
 19 20  1  0  0  0  0
 20 21  1  0  0  0  0
 20 45  1  0  0  0  0
 20 46  1  0  0  0  0
 21 22  1  0  0  0  0
 21 47  1  0  0  0  0
 21 48  1  0  0  0  0
 22 23  1  0  0  0  0
 22 27  2  0  0  0  0
 23 24  2  0  0  0  0
 23 49  1  0  0  0  0
 24 25  1  0  0  0  0
 24 50  1  0  0  0  0
 25 26  2  0  0  0  0
 25 51  1  0  0  0  0
 26 27  1  0  0  0  0
 26 52  1  0  0  0  0
 27 53  1  0  0  0  0
 28 54  1  0  0  0  0
 29 30  1  0  0  0  0
 29 35  2  0  0  0  0
 30 31  2  0  0  0  0
 30 55  1  0  0  0  0
 31 32  1  0  0  0  0
 31 56  1  0  0  0  0
 32 33  1  0  0  0  0
 32 34  2  0  0  0  0
 34 35  1  0  0  0  0
 34 57  1  0  0  0  0
 35 58  1  0  0  0  0
M  END
$$$$
