CHEMBL3633278
 OpenBabel04072215373D

 72 74  0  0  0  0  0  0  0  0999 V2000
    6.2758  -10.6160    1.3079 C   0  0  0  0  0  0  0  0  0  0  0  0
    6.8938   -9.3500    0.7263 C   0  0  0  0  0  0  0  0  0  0  0  0
    5.9180   -8.3731    0.2018 N   0  0  0  0  0  0  0  0  0  0  0  0
    4.9028   -7.9592    1.1822 C   0  0  0  0  0  0  0  0  0  0  0  0
    5.4045   -7.1527    2.3766 C   0  0  0  0  0  0  0  0  0  0  0  0
    6.6505   -7.2398   -0.3862 C   0  0  0  0  0  0  0  0  0  0  0  0
    5.8180   -6.1368   -1.0704 C   0  0  0  0  0  0  0  0  0  0  0  0
    6.7493   -5.1616   -1.5735 O   0  0  0  0  0  0  0  0  0  0  0  0
    7.1260   -4.2339   -0.6637 C   0  0  0  0  0  0  0  0  0  0  0  0
    6.4005   -3.7010    0.1583 O   0  0  0  0  0  0  0  0  0  0  0  0
    8.6087   -4.1047   -0.6651 C   0  0  0  0  0  0  0  0  0  0  0  0
    9.2017   -3.2501    0.2702 C   0  0  0  0  0  0  0  0  0  0  0  0
   10.5947   -3.1977    0.3984 C   0  0  0  0  0  0  0  0  0  0  0  0
   11.4057   -4.0263   -0.3818 C   0  0  0  0  0  0  0  0  0  0  0  0
   12.7780   -4.0559   -0.3496 O   0  0  0  0  0  0  0  0  0  0  0  0
   13.4176   -3.1636    0.5540 C   0  0  0  0  0  0  0  0  0  0  0  0
   10.8084   -4.8936   -1.3122 C   0  0  0  0  0  0  0  0  0  0  0  0
   11.6333   -5.7955   -2.0253 N   0  0  0  0  0  0  0  0  0  0  0  0
   11.4809   -6.0405   -3.3798 C   0  0  0  0  0  0  0  0  0  0  0  0
   10.7379   -5.4148   -4.1224 O   0  0  0  0  0  0  0  0  0  0  0  0
   12.2858   -7.0980   -3.7735 N   0  0  0  0  0  0  0  0  0  0  0  0
   12.4045   -7.4714   -5.1289 C   0  0  0  0  0  0  0  0  0  0  0  0
   12.8752   -6.4893   -6.0277 C   0  0  0  0  0  0  0  0  0  0  0  0
   13.0355   -6.7253   -7.4074 C   0  0  0  0  0  0  0  0  0  0  0  0
   13.5640   -5.6845   -8.3210 C   0  0  0  0  0  0  0  0  0  0  0  0
   13.4170   -4.3124   -8.0676 C   0  0  0  0  0  0  0  0  0  0  0  0
   13.9564   -3.3603   -8.9351 C   0  0  0  0  0  0  0  0  0  0  0  0
   14.6278   -3.7993  -10.0603 C   0  0  0  0  0  0  0  0  0  0  0  0
   15.1371   -2.8240  -10.8935 O   0  0  0  0  0  0  0  0  0  0  0  0
   15.7987   -3.3622  -12.0338 C   0  0  0  0  0  0  0  0  0  0  0  0
   14.7964   -5.1004  -10.3615 N   0  0  0  0  0  0  0  0  0  0  0  0
   14.2689   -5.9976   -9.4894 C   0  0  0  0  0  0  0  0  0  0  0  0
   12.6739   -7.9971   -7.8669 C   0  0  0  0  0  0  0  0  0  0  0  0
   12.2211   -8.9859   -6.9857 C   0  0  0  0  0  0  0  0  0  0  0  0
   12.1090   -8.7517   -5.6077 C   0  0  0  0  0  0  0  0  0  0  0  0
   11.5408   -9.8033   -4.9578 O   0  0  0  0  0  0  0  0  0  0  0  0
   11.8915  -10.1511   -3.6362 C   0  0  0  0  0  0  0  0  0  0  0  0
   12.8785   -9.3953   -3.1106 F   0  0  0  0  0  0  0  0  0  0  0  0
   10.8042  -10.0339   -2.8443 F   0  0  0  0  0  0  0  0  0  0  0  0
   12.2972  -11.4384   -3.6133 F   0  0  0  0  0  0  0  0  0  0  0  0
    9.4194   -4.9204   -1.4651 C   0  0  0  0  0  0  0  0  0  0  0  0
    7.0539  -11.3698    1.4681 H   0  0  0  0  0  0  0  0  0  0  0  0
    5.5298  -11.0427    0.6302 H   0  0  0  0  0  0  0  0  0  0  0  0
    5.8041  -10.4240    2.2766 H   0  0  0  0  0  0  0  0  0  0  0  0
    7.5450   -9.6650   -0.0997 H   0  0  0  0  0  0  0  0  0  0  0  0
    7.5493   -8.8951    1.4796 H   0  0  0  0  0  0  0  0  0  0  0  0
    4.3654   -8.8412    1.5471 H   0  0  0  0  0  0  0  0  0  0  0  0
    4.1261   -7.3789    0.6695 H   0  0  0  0  0  0  0  0  0  0  0  0
    6.2603   -7.6257    2.8660 H   0  0  0  0  0  0  0  0  0  0  0  0
    4.6078   -7.0654    3.1225 H   0  0  0  0  0  0  0  0  0  0  0  0
    5.6924   -6.1388    2.0814 H   0  0  0  0  0  0  0  0  0  0  0  0
    7.3380   -7.6274   -1.1523 H   0  0  0  0  0  0  0  0  0  0  0  0
    7.3040   -6.7801    0.3675 H   0  0  0  0  0  0  0  0  0  0  0  0
    5.0935   -5.6702   -0.3962 H   0  0  0  0  0  0  0  0  0  0  0  0
    5.2700   -6.5449   -1.9255 H   0  0  0  0  0  0  0  0  0  0  0  0
    8.5810   -2.6348    0.9200 H   0  0  0  0  0  0  0  0  0  0  0  0
   11.0091   -2.5073    1.1264 H   0  0  0  0  0  0  0  0  0  0  0  0
   14.4979   -3.2742    0.4216 H   0  0  0  0  0  0  0  0  0  0  0  0
   13.1755   -3.4294    1.5874 H   0  0  0  0  0  0  0  0  0  0  0  0
   13.1631   -2.1196    0.3408 H   0  0  0  0  0  0  0  0  0  0  0  0
   12.5949   -5.8242   -1.7036 H   0  0  0  0  0  0  0  0  0  0  0  0
   12.3485   -7.8195   -3.0706 H   0  0  0  0  0  0  0  0  0  0  0  0
   13.1491   -5.5186   -5.6161 H   0  0  0  0  0  0  0  0  0  0  0  0
   12.8693   -3.9583   -7.1975 H   0  0  0  0  0  0  0  0  0  0  0  0
   13.8488   -2.3005   -8.7349 H   0  0  0  0  0  0  0  0  0  0  0  0
   16.1426   -2.5240  -12.6473 H   0  0  0  0  0  0  0  0  0  0  0  0
   15.1155   -3.9620  -12.6455 H   0  0  0  0  0  0  0  0  0  0  0  0
   16.6794   -3.9444  -11.7409 H   0  0  0  0  0  0  0  0  0  0  0  0
   14.4565   -7.0285   -9.7785 H   0  0  0  0  0  0  0  0  0  0  0  0
   12.7130   -8.2442   -8.9261 H   0  0  0  0  0  0  0  0  0  0  0  0
   11.9301   -9.9541   -7.3934 H   0  0  0  0  0  0  0  0  0  0  0  0
    8.9769   -5.6236   -2.1670 H   0  0  0  0  0  0  0  0  0  0  0  0
  1  2  1  0  0  0  0
  1 42  1  0  0  0  0
  1 43  1  0  0  0  0
  1 44  1  0  0  0  0
  2  3  1  0  0  0  0
  2 45  1  0  0  0  0
  2 46  1  0  0  0  0
  3  4  1  0  0  0  0
  3  6  1  0  0  0  0
  4  5  1  0  0  0  0
  4 47  1  0  0  0  0
  4 48  1  0  0  0  0
  5 49  1  0  0  0  0
  5 50  1  0  0  0  0
  5 51  1  0  0  0  0
  6  7  1  0  0  0  0
  6 52  1  0  0  0  0
  6 53  1  0  0  0  0
  7  8  1  0  0  0  0
  7 54  1  0  0  0  0
  7 55  1  0  0  0  0
  8  9  1  0  0  0  0
  9 10  2  0  0  0  0
  9 11  1  0  0  0  0
 11 12  1  0  0  0  0
 11 41  2  0  0  0  0
 12 13  2  0  0  0  0
 12 56  1  0  0  0  0
 13 14  1  0  0  0  0
 13 57  1  0  0  0  0
 14 15  1  0  0  0  0
 14 17  2  0  0  0  0
 15 16  1  0  0  0  0
 16 58  1  0  0  0  0
 16 59  1  0  0  0  0
 16 60  1  0  0  0  0
 17 18  1  0  0  0  0
 17 41  1  0  0  0  0
 18 19  1  0  0  0  0
 18 61  1  0  0  0  0
 19 20  2  0  0  0  0
 19 21  1  0  0  0  0
 21 22  1  0  0  0  0
 21 62  1  0  0  0  0
 22 23  1  0  0  0  0
 22 35  2  0  0  0  0
 23 24  2  0  0  0  0
 23 63  1  0  0  0  0
 24 25  1  0  0  0  0
 24 33  1  0  0  0  0
 25 26  1  0  0  0  0
 25 32  2  0  0  0  0
 26 27  2  0  0  0  0
 26 64  1  0  0  0  0
 27 28  1  0  0  0  0
 27 65  1  0  0  0  0
 28 29  1  0  0  0  0
 28 31  2  0  0  0  0
 29 30  1  0  0  0  0
 30 66  1  0  0  0  0
 30 67  1  0  0  0  0
 30 68  1  0  0  0  0
 31 32  1  0  0  0  0
 32 69  1  0  0  0  0
 33 34  2  0  0  0  0
 33 70  1  0  0  0  0
 34 35  1  0  0  0  0
 34 71  1  0  0  0  0
 35 36  1  0  0  0  0
 36 37  1  0  0  0  0
 37 38  1  0  0  0  0
 37 39  1  0  0  0  0
 37 40  1  0  0  0  0
 41 72  1  0  0  0  0
M  END
$$$$
