CHEMBL3323604
 OpenBabel04072215363D

 42 46  0  0  0  0  0  0  0  0999 V2000
   -2.1355    0.1512   -0.0204 Cl  0  0  0  0  0  0  0  0  0  0  0  0
   -0.4164    0.1120    0.0109 C   0  0  0  0  0  0  0  0  0  0  0  0
    0.2544    0.1916    1.2292 C   0  0  0  0  0  0  0  0  0  0  0  0
    1.6521    0.1593    1.2578 C   0  0  0  0  0  0  0  0  0  0  0  0
    2.3867    0.0468    0.0673 C   0  0  0  0  0  0  0  0  0  0  0  0
    3.8486    0.0093    0.0646 C   0  0  0  0  0  0  0  0  0  0  0  0
    4.6154   -0.5748   -0.8400 N   0  0  0  0  0  0  0  0  0  0  0  0
    5.9103   -0.3551   -0.4389 C   0  0  0  0  0  0  0  0  0  0  0  0
    7.1165   -0.7674   -1.0199 C   0  0  0  0  0  0  0  0  0  0  0  0
    8.3185   -0.3921   -0.4008 C   0  0  0  0  0  0  0  0  0  0  0  0
    8.3322    0.3678    0.7799 C   0  0  0  0  0  0  0  0  0  0  0  0
    9.5822    0.7310    1.3318 N   0  0  0  0  0  0  0  0  0  0  0  0
    9.9175    0.9592    2.6919 C   0  0  0  0  0  0  0  0  0  0  0  0
    9.2839    0.2081    3.6882 C   0  0  0  0  0  0  0  0  0  0  0  0
    9.6575    0.3860    5.0027 C   0  0  0  0  0  0  0  0  0  0  0  0
   10.6236    1.2352    5.3946 N   0  0  0  0  0  0  0  0  0  0  0  0
   11.2590    1.9468    4.4515 C   0  0  0  0  0  0  0  0  0  0  0  0
   12.2786    2.7917    4.8672 C   0  0  0  0  0  0  0  0  0  0  0  0
   12.9982    3.5817    3.9704 C   0  0  0  0  0  0  0  0  0  0  0  0
   12.6860    3.5407    2.6210 C   0  0  0  0  0  0  0  0  0  0  0  0
   11.6702    2.6946    2.1748 C   0  0  0  0  0  0  0  0  0  0  0  0
   10.9454    1.8676    3.0730 C   0  0  0  0  0  0  0  0  0  0  0  0
    7.1240    0.7897    1.3557 C   0  0  0  0  0  0  0  0  0  0  0  0
    5.9436    0.4005    0.7220 C   0  0  0  0  0  0  0  0  0  0  0  0
    4.6265    0.6271    1.0164 N   0  0  0  0  0  0  0  0  0  0  0  0
    1.6936   -0.0424   -1.1484 C   0  0  0  0  0  0  0  0  0  0  0  0
    0.2969   -0.0048   -1.1791 C   0  0  0  0  0  0  0  0  0  0  0  0
   -0.3025    0.2703    2.1592 H   0  0  0  0  0  0  0  0  0  0  0  0
    2.1494    0.1973    2.2232 H   0  0  0  0  0  0  0  0  0  0  0  0
    7.1111   -1.3662   -1.9230 H   0  0  0  0  0  0  0  0  0  0  0  0
    9.2566   -0.7224   -0.8421 H   0  0  0  0  0  0  0  0  0  0  0  0
   10.1050    1.2913    0.6700 H   0  0  0  0  0  0  0  0  0  0  0  0
    8.5278   -0.5303    3.4452 H   0  0  0  0  0  0  0  0  0  0  0  0
    9.1844   -0.1799    5.7998 H   0  0  0  0  0  0  0  0  0  0  0  0
   12.5245    2.8313    5.9263 H   0  0  0  0  0  0  0  0  0  0  0  0
   13.7952    4.2255    4.3323 H   0  0  0  0  0  0  0  0  0  0  0  0
   13.2310    4.1612    1.9142 H   0  0  0  0  0  0  0  0  0  0  0  0
   11.4530    2.6989    1.1115 H   0  0  0  0  0  0  0  0  0  0  0  0
    7.1057    1.4095    2.2452 H   0  0  0  0  0  0  0  0  0  0  0  0
    4.2829    1.1715    1.7923 H   0  0  0  0  0  0  0  0  0  0  0  0
    2.2475   -0.1390   -2.0816 H   0  0  0  0  0  0  0  0  0  0  0  0
   -0.2216   -0.0709   -2.1317 H   0  0  0  0  0  0  0  0  0  0  0  0
  1  2  1  0  0  0  0
  2  3  1  0  0  0  0
  2 27  2  0  0  0  0
  3  4  2  0  0  0  0
  3 28  1  0  0  0  0
  4  5  1  0  0  0  0
  4 29  1  0  0  0  0
  5  6  1  0  0  0  0
  5 26  2  0  0  0  0
  6  7  2  0  0  0  0
  6 25  1  0  0  0  0
  7  8  1  0  0  0  0
  8  9  1  0  0  0  0
  8 24  2  0  0  0  0
  9 10  2  0  0  0  0
  9 30  1  0  0  0  0
 10 11  1  0  0  0  0
 10 31  1  0  0  0  0
 11 12  1  0  0  0  0
 11 23  2  0  0  0  0
 12 13  1  0  0  0  0
 12 32  1  0  0  0  0
 13 14  1  0  0  0  0
 13 22  2  0  0  0  0
 14 15  2  0  0  0  0
 14 33  1  0  0  0  0
 15 16  1  0  0  0  0
 15 34  1  0  0  0  0
 16 17  2  0  0  0  0
 17 18  1  0  0  0  0
 17 22  1  0  0  0  0
 18 19  2  0  0  0  0
 18 35  1  0  0  0  0
 19 20  1  0  0  0  0
 19 36  1  0  0  0  0
 20 21  2  0  0  0  0
 20 37  1  0  0  0  0
 21 22  1  0  0  0  0
 21 38  1  0  0  0  0
 23 24  1  0  0  0  0
 23 39  1  0  0  0  0
 24 25  1  0  0  0  0
 25 40  1  0  0  0  0
 26 27  1  0  0  0  0
 26 41  1  0  0  0  0
 27 42  1  0  0  0  0
M  END
$$$$
