CHEMBL68888
 OpenBabel04072215383D

 51 55  0  0  0  0  0  0  0  0999 V2000
    1.1562   -0.3753   -0.2443 N   0  0  0  0  0  0  0  0  0  0  0  0
    2.3068   -0.2331   -0.1950 C   0  0  0  0  0  0  0  0  0  0  0  0
    3.7237   -0.1070   -0.0810 C   0  0  0  0  0  0  0  0  0  0  0  0
    4.4919    1.0542   -0.0459 C   0  0  0  0  0  0  0  0  0  0  0  0
    3.9194    2.4088   -0.0868 C   0  0  0  0  0  0  0  0  0  0  0  0
    2.7205    2.7126    0.5691 C   0  0  0  0  0  0  0  0  0  0  0  0
    2.2041    4.0077    0.5562 C   0  0  0  0  0  0  0  0  0  0  0  0
    2.9536    5.0541    0.0237 C   0  0  0  0  0  0  0  0  0  0  0  0
    2.6099    6.3834    0.1176 O   0  0  0  0  0  0  0  0  0  0  0  0
    1.8405    6.8056    1.1819 C   0  0  0  0  0  0  0  0  0  0  0  0
    1.9453    6.2925    2.4797 C   0  0  0  0  0  0  0  0  0  0  0  0
    1.0531    6.7048    3.4686 C   0  0  0  0  0  0  0  0  0  0  0  0
    0.1088    7.6889    3.1839 C   0  0  0  0  0  0  0  0  0  0  0  0
    0.0652    8.2685    1.9155 C   0  0  0  0  0  0  0  0  0  0  0  0
    0.9293    7.8259    0.9138 C   0  0  0  0  0  0  0  0  0  0  0  0
    4.1205    4.7628   -0.6765 C   0  0  0  0  0  0  0  0  0  0  0  0
    4.5701    3.4415   -0.7717 C   0  0  0  0  0  0  0  0  0  0  0  0
    5.8731    0.6364    0.0087 C   0  0  0  0  0  0  0  0  0  0  0  0
    7.1473    1.2429    0.0436 C   0  0  0  0  0  0  0  0  0  0  0  0
    7.3905    2.6106    0.0723 N   0  0  0  0  0  0  0  0  0  0  0  0
    8.2457    0.4615    0.0603 N   0  0  0  0  0  0  0  0  0  0  0  0
    8.0944   -0.8629    0.0499 C   0  0  0  0  0  0  0  0  0  0  0  0
    6.9493   -1.5566    0.0459 N   0  0  0  0  0  0  0  0  0  0  0  0
    5.8710   -0.7557    0.0200 C   0  0  0  0  0  0  0  0  0  0  0  0
    4.5701   -1.1955   -0.0113 N   0  0  0  0  0  0  0  0  0  0  0  0
    4.1284   -2.5764   -0.0691 C   0  0  0  0  0  0  0  0  0  0  0  0
    4.5846   -3.5190    1.0436 C   0  0  0  0  0  0  0  0  0  0  0  0
    4.2661   -4.9104    0.4881 C   0  0  0  0  0  0  0  0  0  0  0  0
    4.1288   -4.7549   -1.0303 C   0  0  0  0  0  0  0  0  0  0  0  0
    4.5284   -3.3187   -1.3408 C   0  0  0  0  0  0  0  0  0  0  0  0
    2.1567    1.9663    1.1201 H   0  0  0  0  0  0  0  0  0  0  0  0
    1.2363    4.1842    1.0187 H   0  0  0  0  0  0  0  0  0  0  0  0
    2.6900    5.5405    2.7260 H   0  0  0  0  0  0  0  0  0  0  0  0
    1.0920    6.2521    4.4559 H   0  0  0  0  0  0  0  0  0  0  0  0
   -0.5882    8.0094    3.9534 H   0  0  0  0  0  0  0  0  0  0  0  0
   -0.6527    9.0563    1.7026 H   0  0  0  0  0  0  0  0  0  0  0  0
    0.8819    8.2647   -0.0792 H   0  0  0  0  0  0  0  0  0  0  0  0
    4.6911    5.5619   -1.1425 H   0  0  0  0  0  0  0  0  0  0  0  0
    5.4577    3.2448   -1.3701 H   0  0  0  0  0  0  0  0  0  0  0  0
    6.7242    3.1423    0.6176 H   0  0  0  0  0  0  0  0  0  0  0  0
    8.3653    2.7893    0.2815 H   0  0  0  0  0  0  0  0  0  0  0  0
    9.0102   -1.4470    0.0542 H   0  0  0  0  0  0  0  0  0  0  0  0
    3.0319   -2.5716   -0.0272 H   0  0  0  0  0  0  0  0  0  0  0  0
    4.0609   -3.3289    1.9867 H   0  0  0  0  0  0  0  0  0  0  0  0
    5.6576   -3.4419    1.2446 H   0  0  0  0  0  0  0  0  0  0  0  0
    3.3260   -5.2873    0.9081 H   0  0  0  0  0  0  0  0  0  0  0  0
    5.0510   -5.6271    0.7491 H   0  0  0  0  0  0  0  0  0  0  0  0
    3.0846   -4.9203   -1.3229 H   0  0  0  0  0  0  0  0  0  0  0  0
    4.7421   -5.4757   -1.5783 H   0  0  0  0  0  0  0  0  0  0  0  0
    4.0183   -2.9286   -2.2272 H   0  0  0  0  0  0  0  0  0  0  0  0
    5.6071   -3.2623   -1.5235 H   0  0  0  0  0  0  0  0  0  0  0  0
  1  2  3  0  0  0  0
  2  3  1  0  0  0  0
  3  4  2  0  0  0  0
  3 25  1  0  0  0  0
  4  5  1  0  0  0  0
  4 18  1  0  0  0  0
  5  6  1  0  0  0  0
  5 17  2  0  0  0  0
  6  7  2  0  0  0  0
  6 31  1  0  0  0  0
  7  8  1  0  0  0  0
  7 32  1  0  0  0  0
  8  9  1  0  0  0  0
  8 16  2  0  0  0  0
  9 10  1  0  0  0  0
 10 11  1  0  0  0  0
 10 15  2  0  0  0  0
 11 12  2  0  0  0  0
 11 33  1  0  0  0  0
 12 13  1  0  0  0  0
 12 34  1  0  0  0  0
 13 14  2  0  0  0  0
 13 35  1  0  0  0  0
 14 15  1  0  0  0  0
 14 36  1  0  0  0  0
 15 37  1  0  0  0  0
 16 17  1  0  0  0  0
 16 38  1  0  0  0  0
 17 39  1  0  0  0  0
 18 19  1  0  0  0  0
 18 24  2  0  0  0  0
 19 20  1  0  0  0  0
 19 21  2  0  0  0  0
 20 40  1  0  0  0  0
 20 41  1  0  0  0  0
 21 22  1  0  0  0  0
 22 23  2  0  0  0  0
 22 42  1  0  0  0  0
 23 24  1  0  0  0  0
 24 25  1  0  0  0  0
 25 26  1  0  0  0  0
 26 27  1  0  0  0  0
 26 30  1  0  0  0  0
 26 43  1  0  0  0  0
 27 28  1  0  0  0  0
 27 44  1  0  0  0  0
 27 45  1  0  0  0  0
 28 29  1  0  0  0  0
 28 46  1  0  0  0  0
 28 47  1  0  0  0  0
 29 30  1  0  0  0  0
 29 48  1  0  0  0  0
 29 49  1  0  0  0  0
 30 50  1  0  0  0  0
 30 51  1  0  0  0  0
M  END
$$$$
