CHEMBL245744
 OpenBabel04072215363D

 60 63  0  0  0  0  0  0  0  0999 V2000
   14.1235    2.0069   -4.3669 C   0  0  0  0  0  0  0  0  0  0  0  0
   12.9260    1.2071   -4.2606 N   0  0  0  0  0  0  0  0  0  0  0  0
   12.1372    1.4370   -3.1446 C   0  0  0  0  0  0  0  0  0  0  0  0
   12.6662    1.7994   -1.9863 N   0  0  0  0  0  0  0  0  0  0  0  0
   11.7918    1.9377   -0.9909 C   0  0  0  0  0  0  0  0  0  0  0  0
   10.4751    1.7544   -1.0619 N   0  0  0  0  0  0  0  0  0  0  0  0
   10.0453    1.3990   -2.2683 C   0  0  0  0  0  0  0  0  0  0  0  0
    8.6296    1.0670   -2.4820 C   0  0  0  0  0  0  0  0  0  0  0  0
    8.2916    0.1424   -3.5005 C   0  0  0  0  0  0  0  0  0  0  0  0
    6.9731   -0.2035   -3.7737 C   0  0  0  0  0  0  0  0  0  0  0  0
    5.9893    0.4035   -3.0304 C   0  0  0  0  0  0  0  0  0  0  0  0
    6.2476    1.2911   -2.0529 N   0  0  0  0  0  0  0  0  0  0  0  0
    7.5499    1.5903   -1.7661 C   0  0  0  0  0  0  0  0  0  0  0  0
    7.7831    2.4795   -0.7158 O   0  0  0  0  0  0  0  0  0  0  0  0
    6.7738    2.6437    0.2217 C   0  0  0  0  0  0  0  0  0  0  0  0
    6.0692    1.5376    0.7410 C   0  0  0  0  0  0  0  0  0  0  0  0
    4.9896    1.7241    1.6023 C   0  0  0  0  0  0  0  0  0  0  0  0
    4.0742    0.6266    2.0625 C   0  0  0  0  0  0  0  0  0  0  0  0
    3.2082    0.9306    2.8780 O   0  0  0  0  0  0  0  0  0  0  0  0
    4.2657   -0.6525    1.5587 N   0  0  0  0  0  0  0  0  0  0  0  0
    3.3922   -1.7510    1.7752 C   0  0  0  0  0  0  0  0  0  0  0  0
    2.0671   -1.5926    2.1888 C   0  0  0  0  0  0  0  0  0  0  0  0
    1.2402   -2.6985    2.3808 C   0  0  0  0  0  0  0  0  0  0  0  0
    1.7402   -3.9833    2.1999 C   0  0  0  0  0  0  0  0  0  0  0  0
    3.0768   -4.1801    1.8253 C   0  0  0  0  0  0  0  0  0  0  0  0
    3.6829   -5.5752    1.8389 C   0  0  0  0  0  0  0  0  0  0  0  0
    3.6728   -6.1260    3.2723 C   0  0  0  0  0  0  0  0  0  0  0  0
    2.9821   -6.5514    0.8913 C   0  0  0  0  0  0  0  0  0  0  0  0
    3.8803   -3.0507    1.5627 C   0  0  0  0  0  0  0  0  0  0  0  0
    4.6897    3.0280    2.0269 C   0  0  0  0  0  0  0  0  0  0  0  0
    5.4334    4.1215    1.5805 C   0  0  0  0  0  0  0  0  0  0  0  0
    6.4809    3.9444    0.6676 C   0  0  0  0  0  0  0  0  0  0  0  0
    7.2341    5.1458    0.1742 C   0  0  0  0  0  0  0  0  0  0  0  0
   10.8412    1.2347   -3.3326 N   0  0  0  0  0  0  0  0  0  0  0  0
   14.5607    1.8644   -5.3609 H   0  0  0  0  0  0  0  0  0  0  0  0
   14.8741    1.6994   -3.6320 H   0  0  0  0  0  0  0  0  0  0  0  0
   13.9102    3.0747   -4.2501 H   0  0  0  0  0  0  0  0  0  0  0  0
   12.3108    1.2356   -5.0661 H   0  0  0  0  0  0  0  0  0  0  0  0
   12.1969    2.2230   -0.0247 H   0  0  0  0  0  0  0  0  0  0  0  0
    9.0793   -0.3258   -4.0932 H   0  0  0  0  0  0  0  0  0  0  0  0
    6.7303   -0.9194   -4.5496 H   0  0  0  0  0  0  0  0  0  0  0  0
    4.9386    0.1847   -3.1955 H   0  0  0  0  0  0  0  0  0  0  0  0
    6.3561    0.5489    0.4069 H   0  0  0  0  0  0  0  0  0  0  0  0
    5.1162   -0.8607    1.0609 H   0  0  0  0  0  0  0  0  0  0  0  0
    1.6390   -0.6095    2.3568 H   0  0  0  0  0  0  0  0  0  0  0  0
    0.2122   -2.5524    2.7016 H   0  0  0  0  0  0  0  0  0  0  0  0
    1.0873   -4.8297    2.3991 H   0  0  0  0  0  0  0  0  0  0  0  0
    4.7308   -5.5087    1.5191 H   0  0  0  0  0  0  0  0  0  0  0  0
    2.6531   -6.2388    3.6592 H   0  0  0  0  0  0  0  0  0  0  0  0
    4.2090   -5.4540    3.9523 H   0  0  0  0  0  0  0  0  0  0  0  0
    4.1534   -7.1082    3.3194 H   0  0  0  0  0  0  0  0  0  0  0  0
    1.9305   -6.7040    1.1567 H   0  0  0  0  0  0  0  0  0  0  0  0
    3.4728   -7.5314    0.9232 H   0  0  0  0  0  0  0  0  0  0  0  0
    3.0198   -6.1922   -0.1422 H   0  0  0  0  0  0  0  0  0  0  0  0
    4.9137   -3.1958    1.2569 H   0  0  0  0  0  0  0  0  0  0  0  0
    3.8549    3.2055    2.7045 H   0  0  0  0  0  0  0  0  0  0  0  0
    5.1674    5.1155    1.9357 H   0  0  0  0  0  0  0  0  0  0  0  0
    6.8793    6.0652    0.6560 H   0  0  0  0  0  0  0  0  0  0  0  0
    7.0970    5.2664   -0.9042 H   0  0  0  0  0  0  0  0  0  0  0  0
    8.2994    5.0488    0.4039 H   0  0  0  0  0  0  0  0  0  0  0  0
  1  2  1  0  0  0  0
  1 35  1  0  0  0  0
  1 36  1  0  0  0  0
  1 37  1  0  0  0  0
  2  3  1  0  0  0  0
  2 38  1  0  0  0  0
  3  4  1  0  0  0  0
  3 34  2  0  0  0  0
  4  5  2  0  0  0  0
  5  6  1  0  0  0  0
  5 39  1  0  0  0  0
  6  7  2  0  0  0  0
  7  8  1  0  0  0  0
  7 34  1  0  0  0  0
  8  9  1  0  0  0  0
  8 13  2  0  0  0  0
  9 10  2  0  0  0  0
  9 40  1  0  0  0  0
 10 11  1  0  0  0  0
 10 41  1  0  0  0  0
 11 12  2  0  0  0  0
 11 42  1  0  0  0  0
 12 13  1  0  0  0  0
 13 14  1  0  0  0  0
 14 15  1  0  0  0  0
 15 16  1  0  0  0  0
 15 32  2  0  0  0  0
 16 17  2  0  0  0  0
 16 43  1  0  0  0  0
 17 18  1  0  0  0  0
 17 30  1  0  0  0  0
 18 19  2  0  0  0  0
 18 20  1  0  0  0  0
 20 21  1  0  0  0  0
 20 44  1  0  0  0  0
 21 22  1  0  0  0  0
 21 29  2  0  0  0  0
 22 23  2  0  0  0  0
 22 45  1  0  0  0  0
 23 24  1  0  0  0  0
 23 46  1  0  0  0  0
 24 25  2  0  0  0  0
 24 47  1  0  0  0  0
 25 26  1  0  0  0  0
 25 29  1  0  0  0  0
 26 27  1  0  0  0  0
 26 28  1  0  0  0  0
 26 48  1  0  0  0  0
 27 49  1  0  0  0  0
 27 50  1  0  0  0  0
 27 51  1  0  0  0  0
 28 52  1  0  0  0  0
 28 53  1  0  0  0  0
 28 54  1  0  0  0  0
 29 55  1  0  0  0  0
 30 31  2  0  0  0  0
 30 56  1  0  0  0  0
 31 32  1  0  0  0  0
 31 57  1  0  0  0  0
 32 33  1  0  0  0  0
 33 58  1  0  0  0  0
 33 59  1  0  0  0  0
 33 60  1  0  0  0  0
M  END
$$$$
