CHEMBL3967039
 OpenBabel04072215373D

 53 58  0  0  0  0  0  0  0  0999 V2000
    2.2770   -0.1000   -0.0266 O   0  0  0  0  0  0  0  0  0  0  0  0
    0.9092   -0.0761   -0.0201 C   0  0  0  0  0  0  0  0  0  0  0  0
    0.1971   -1.1296    0.5483 C   0  0  0  0  0  0  0  0  0  0  0  0
   -1.2014   -1.0961    0.5601 C   0  0  0  0  0  0  0  0  0  0  0  0
   -1.9109   -0.0233   -0.0044 C   0  0  0  0  0  0  0  0  0  0  0  0
   -3.3896    0.0386    0.0020 C   0  0  0  0  0  0  0  0  0  0  0  0
   -4.1254   -0.4645    1.0882 C   0  0  0  0  0  0  0  0  0  0  0  0
   -5.5251   -0.4360    1.1144 C   0  0  0  0  0  0  0  0  0  0  0  0
   -6.2157    0.1269    0.0288 C   0  0  0  0  0  0  0  0  0  0  0  0
   -7.5720    0.3128   -0.3429 C   0  0  0  0  0  0  0  0  0  0  0  0
   -8.7423   -0.1314    0.4607 C   0  0  0  0  0  0  0  0  0  0  0  0
  -10.0677   -0.0580    0.0777 C   0  0  0  0  0  0  0  0  0  0  0  0
  -10.8308   -0.6308    1.1273 C   0  0  0  0  0  0  0  0  0  0  0  0
  -12.1931   -0.8837    1.3582 C   0  0  0  0  0  0  0  0  0  0  0  0
  -12.5681   -1.4827    2.5689 C   0  0  0  0  0  0  0  0  0  0  0  0
  -11.6152   -1.8232    3.5339 C   0  0  0  0  0  0  0  0  0  0  0  0
  -10.2542   -1.5852    3.3198 C   0  0  0  0  0  0  0  0  0  0  0  0
   -9.9159   -0.9970    2.1062 C   0  0  0  0  0  0  0  0  0  0  0  0
   -8.6523   -0.7009    1.7011 O   0  0  0  0  0  0  0  0  0  0  0  0
   -7.6933    0.9216   -1.5327 N   0  0  0  0  0  0  0  0  0  0  0  0
   -6.4206    1.1257   -1.9119 N   0  0  0  0  0  0  0  0  0  0  0  0
   -5.4891    0.6481   -1.0297 C   0  0  0  0  0  0  0  0  0  0  0  0
   -4.0914    0.6217   -1.0774 C   0  0  0  0  0  0  0  0  0  0  0  0
   -1.1615    1.0162   -0.5765 C   0  0  0  0  0  0  0  0  0  0  0  0
    0.2367    1.0177   -0.5669 C   0  0  0  0  0  0  0  0  0  0  0  0
    0.9883    2.0497   -1.0693 O   0  0  0  0  0  0  0  0  0  0  0  0
    0.3122    3.3089   -1.1412 C   0  0  0  0  0  0  0  0  0  0  0  0
    1.2632    4.4775   -1.2088 C   0  0  0  0  0  0  0  0  0  0  0  0
    2.6490    4.3086   -1.2982 C   0  0  0  0  0  0  0  0  0  0  0  0
    3.4917    5.4176   -1.3328 C   0  0  0  0  0  0  0  0  0  0  0  0
    2.9588    6.7055   -1.2819 C   0  0  0  0  0  0  0  0  0  0  0  0
    1.5802    6.8872   -1.2002 C   0  0  0  0  0  0  0  0  0  0  0  0
    0.7358    5.7788   -1.1665 C   0  0  0  0  0  0  0  0  0  0  0  0
    2.5804   -0.9274    0.3783 H   0  0  0  0  0  0  0  0  0  0  0  0
    0.7063   -1.9789    0.9931 H   0  0  0  0  0  0  0  0  0  0  0  0
   -1.7329   -1.9328    1.0088 H   0  0  0  0  0  0  0  0  0  0  0  0
   -3.6143   -0.8878    1.9513 H   0  0  0  0  0  0  0  0  0  0  0  0
   -6.0620   -0.8513    1.9633 H   0  0  0  0  0  0  0  0  0  0  0  0
  -10.4271    0.3446   -0.8592 H   0  0  0  0  0  0  0  0  0  0  0  0
  -12.9400   -0.6244    0.6139 H   0  0  0  0  0  0  0  0  0  0  0  0
  -13.6202   -1.6852    2.7598 H   0  0  0  0  0  0  0  0  0  0  0  0
  -11.9349   -2.2803    4.4678 H   0  0  0  0  0  0  0  0  0  0  0  0
   -9.4986   -1.8463    4.0517 H   0  0  0  0  0  0  0  0  0  0  0  0
   -6.2519    1.5886   -2.7978 H   0  0  0  0  0  0  0  0  0  0  0  0
   -3.5720    1.0248   -1.9414 H   0  0  0  0  0  0  0  0  0  0  0  0
   -1.6952    1.8490   -1.0211 H   0  0  0  0  0  0  0  0  0  0  0  0
   -0.3043    3.4604   -0.2447 H   0  0  0  0  0  0  0  0  0  0  0  0
   -0.3144    3.3239   -2.0419 H   0  0  0  0  0  0  0  0  0  0  0  0
    3.0812    3.3104   -1.3312 H   0  0  0  0  0  0  0  0  0  0  0  0
    4.5670    5.2745   -1.3933 H   0  0  0  0  0  0  0  0  0  0  0  0
    3.6199    7.5671   -1.3029 H   0  0  0  0  0  0  0  0  0  0  0  0
    1.1642    7.8901   -1.1578 H   0  0  0  0  0  0  0  0  0  0  0  0
   -0.3389    5.9333   -1.0958 H   0  0  0  0  0  0  0  0  0  0  0  0
  1  2  1  0  0  0  0
  1 34  1  0  0  0  0
  2  3  1  0  0  0  0
  2 25  2  0  0  0  0
  3  4  2  0  0  0  0
  3 35  1  0  0  0  0
  4  5  1  0  0  0  0
  4 36  1  0  0  0  0
  5  6  1  0  0  0  0
  5 24  2  0  0  0  0
  6  7  1  0  0  0  0
  6 23  2  0  0  0  0
  7  8  2  0  0  0  0
  7 37  1  0  0  0  0
  8  9  1  0  0  0  0
  8 38  1  0  0  0  0
  9 10  1  0  0  0  0
  9 22  2  0  0  0  0
 10 11  1  0  0  0  0
 10 20  2  0  0  0  0
 11 12  2  0  0  0  0
 11 19  1  0  0  0  0
 12 13  1  0  0  0  0
 12 39  1  0  0  0  0
 13 14  1  0  0  0  0
 13 18  2  0  0  0  0
 14 15  2  0  0  0  0
 14 40  1  0  0  0  0
 15 16  1  0  0  0  0
 15 41  1  0  0  0  0
 16 17  2  0  0  0  0
 16 42  1  0  0  0  0
 17 18  1  0  0  0  0
 17 43  1  0  0  0  0
 18 19  1  0  0  0  0
 20 21  1  0  0  0  0
 21 22  1  0  0  0  0
 21 44  1  0  0  0  0
 22 23  1  0  0  0  0
 23 45  1  0  0  0  0
 24 25  1  0  0  0  0
 24 46  1  0  0  0  0
 25 26  1  0  0  0  0
 26 27  1  0  0  0  0
 27 28  1  0  0  0  0
 27 47  1  0  0  0  0
 27 48  1  0  0  0  0
 28 29  1  0  0  0  0
 28 33  2  0  0  0  0
 29 30  2  0  0  0  0
 29 49  1  0  0  0  0
 30 31  1  0  0  0  0
 30 50  1  0  0  0  0
 31 32  2  0  0  0  0
 31 51  1  0  0  0  0
 32 33  1  0  0  0  0
 32 52  1  0  0  0  0
 33 53  1  0  0  0  0
M  END
$$$$
