CHEMBL3648077
 OpenBabel04072215373D

 78 80  0  0  1  0  0  0  0  0999 V2000
    4.0679   -0.2045    0.3537 C   0  0  0  0  0  0  0  0  0  0  0  0
    4.0324   -1.6120   -0.2555 C   0  0  1  0  0  0  0  0  0  0  0  0
    2.7487   -2.2875    0.0727 N   0  0  0  0  0  0  0  0  0  0  0  0
    2.4801   -2.5051    1.4463 C   0  0  0  0  0  0  0  0  0  0  0  0
    3.5185   -2.6055    2.3039 N   0  0  0  0  0  0  0  0  0  0  0  0
    3.2522   -2.8633    3.5928 C   0  0  0  0  0  0  0  0  0  0  0  0
    4.3273   -3.1100    4.4442 N   0  0  0  0  0  0  0  0  0  0  0  0
    4.3165   -3.8955    5.6074 C   0  0  0  0  0  0  0  0  0  0  0  0
    3.4219   -4.9618    5.7822 C   0  0  0  0  0  0  0  0  0  0  0  0
    3.3069   -5.6244    7.0059 C   0  0  0  0  0  0  0  0  0  0  0  0
    4.0882   -5.2071    8.0787 C   0  0  0  0  0  0  0  0  0  0  0  0
    3.8560   -5.9455    9.6477 S   0  0  3  0  0  0  0  0  0  0  0  0
    2.7820   -6.9010    9.6250 O   0  0  0  0  0  0  0  0  0  0  0  0
    5.3310   -6.5954   10.0635 N   0  0  0  0  0  0  0  0  0  0  0  0
    5.9713   -7.9954    9.3805 S   0  0  0  0  0  0  0  0  0  0  0  0
    6.8747   -8.5814   10.3562 O   0  0  0  0  0  0  0  0  0  0  0  0
    4.9381   -8.7934    8.7504 O   0  0  0  0  0  0  0  0  0  0  0  0
    6.9973   -7.3179    8.0671 C   0  0  0  0  0  0  0  0  0  0  0  0
    7.6685   -8.4493    7.2852 C   0  0  0  0  0  0  0  0  0  0  0  0
    8.7748   -7.9354    5.8376 Si  0  0  0  0  0  0  0  0  0  0  0  0
    7.7679   -6.9728    4.5867 C   0  0  0  0  0  0  0  0  0  0  0  0
   10.1901   -6.8967    6.4867 C   0  0  0  0  0  0  0  0  0  0  0  0
    9.4570   -9.4853    5.0222 C   0  0  0  0  0  0  0  0  0  0  0  0
    3.5579   -4.6927   10.8747 C   0  0  0  0  0  0  0  0  0  0  0  0
    3.3249   -5.3027   12.2610 C   0  0  0  0  0  0  0  0  0  0  0  0
    2.4175   -4.3369   13.0103 C   0  0  0  0  0  0  0  0  0  0  0  0
    1.8793   -3.3504   11.9812 C   0  0  0  0  0  0  0  0  0  0  0  0
    2.2951   -3.8778   10.6170 C   0  0  0  0  0  0  0  0  0  0  0  0
    5.0466   -4.2094    7.9076 C   0  0  0  0  0  0  0  0  0  0  0  0
    5.1666   -3.5630    6.6718 C   0  0  0  0  0  0  0  0  0  0  0  0
    2.0070   -2.9185    4.0965 N   0  0  0  0  0  0  0  0  0  0  0  0
    0.9908   -2.8292    3.2273 C   0  0  0  0  0  0  0  0  0  0  0  0
    1.1695   -2.6932    1.8743 C   0  0  0  0  0  0  0  0  0  0  0  0
   -0.3264   -2.7649    0.7289 Br  0  0  0  0  0  0  0  0  0  0  0  0
    4.2275   -1.5733   -1.8186 C   0  0  0  0  0  0  0  0  0  0  0  0
    3.1774   -0.7296   -2.5569 C   0  0  0  0  0  0  0  0  0  0  0  0
    5.6255   -1.0599   -2.1987 C   0  0  0  0  0  0  0  0  0  0  0  0
    4.1503   -2.9215   -2.3208 O   0  0  0  0  0  0  0  0  0  0  0  0
    4.0937   -0.2374    1.4486 H   0  0  0  0  0  0  0  0  0  0  0  0
    3.1860    0.3806    0.0743 H   0  0  0  0  0  0  0  0  0  0  0  0
    4.9603    0.3471    0.0448 H   0  0  0  0  0  0  0  0  0  0  0  0
    4.8516   -2.2158    0.1552 H   0  0  0  0  0  0  0  0  0  0  0  0
    2.7202   -3.2160   -0.3491 H   0  0  0  0  0  0  0  0  0  0  0  0
    5.2115   -3.0212    3.9583 H   0  0  0  0  0  0  0  0  0  0  0  0
    2.7800   -5.2803    4.9625 H   0  0  0  0  0  0  0  0  0  0  0  0
    2.5892   -6.4346    7.1119 H   0  0  0  0  0  0  0  0  0  0  0  0
    7.7355   -6.6562    8.5331 H   0  0  0  0  0  0  0  0  0  0  0  0
    6.3558   -6.7313    7.4057 H   0  0  0  0  0  0  0  0  0  0  0  0
    6.8955   -9.1118    6.8806 H   0  0  0  0  0  0  0  0  0  0  0  0
    8.2720   -9.0557    7.9683 H   0  0  0  0  0  0  0  0  0  0  0  0
    7.3378   -6.0751    5.0372 H   0  0  0  0  0  0  0  0  0  0  0  0
    6.9473   -7.5869    4.2005 H   0  0  0  0  0  0  0  0  0  0  0  0
    8.3903   -6.6677    3.7404 H   0  0  0  0  0  0  0  0  0  0  0  0
    9.8168   -5.9943    6.9787 H   0  0  0  0  0  0  0  0  0  0  0  0
   10.8564   -6.5942    5.6738 H   0  0  0  0  0  0  0  0  0  0  0  0
   10.7776   -7.4639    7.2155 H   0  0  0  0  0  0  0  0  0  0  0  0
    8.6438  -10.1095    4.6396 H   0  0  0  0  0  0  0  0  0  0  0  0
   10.0343  -10.0772    5.7386 H   0  0  0  0  0  0  0  0  0  0  0  0
   10.1118   -9.2252    4.1852 H   0  0  0  0  0  0  0  0  0  0  0  0
    4.4286   -4.0313   10.9025 H   0  0  0  0  0  0  0  0  0  0  0  0
    4.2710   -5.4542   12.7909 H   0  0  0  0  0  0  0  0  0  0  0  0
    2.8363   -6.2833   12.1996 H   0  0  0  0  0  0  0  0  0  0  0  0
    2.9679   -3.8082   13.7969 H   0  0  0  0  0  0  0  0  0  0  0  0
    1.6005   -4.8788   13.5032 H   0  0  0  0  0  0  0  0  0  0  0  0
    2.3150   -2.3589   12.1602 H   0  0  0  0  0  0  0  0  0  0  0  0
    0.7910   -3.2409   12.0598 H   0  0  0  0  0  0  0  0  0  0  0  0
    2.4818   -3.0569    9.9190 H   0  0  0  0  0  0  0  0  0  0  0  0
    1.4898   -4.4918   10.1920 H   0  0  0  0  0  0  0  0  0  0  0  0
    5.6955   -3.9026    8.7260 H   0  0  0  0  0  0  0  0  0  0  0  0
    5.8819   -2.7510    6.5603 H   0  0  0  0  0  0  0  0  0  0  0  0
    0.0050   -2.8946    3.6804 H   0  0  0  0  0  0  0  0  0  0  0  0
    3.1852    0.3157   -2.2340 H   0  0  0  0  0  0  0  0  0  0  0  0
    2.1686   -1.1328   -2.4177 H   0  0  0  0  0  0  0  0  0  0  0  0
    3.3646   -0.7425   -3.6378 H   0  0  0  0  0  0  0  0  0  0  0  0
    5.7547    0.0035   -1.9738 H   0  0  0  0  0  0  0  0  0  0  0  0
    5.8117   -1.1965   -3.2709 H   0  0  0  0  0  0  0  0  0  0  0  0
    6.4064   -1.6233   -1.6770 H   0  0  0  0  0  0  0  0  0  0  0  0
    3.2083   -3.1562   -2.3703 H   0  0  0  0  0  0  0  0  0  0  0  0
  1  2  1  0  0  0  0
  1 39  1  0  0  0  0
  1 40  1  0  0  0  0
  1 41  1  0  0  0  0
  2  3  1  0  0  0  0
  2 35  1  0  0  0  0
  2 42  1  1  0  0  0
  3  4  1  0  0  0  0
  3 43  1  0  0  0  0
  4  5  1  0  0  0  0
  4 33  2  0  0  0  0
  5  6  2  0  0  0  0
  6  7  1  0  0  0  0
  6 31  1  0  0  0  0
  7  8  1  0  0  0  0
  7 44  1  0  0  0  0
  8  9  1  0  0  0  0
  8 30  2  0  0  0  0
  9 10  2  0  0  0  0
  9 45  1  0  0  0  0
 10 11  1  0  0  0  0
 10 46  1  0  0  0  0
 11 12  1  0  0  0  0
 11 29  2  0  0  0  0
 12 13  2  0  0  0  0
 12 14  2  0  0  0  0
 12 24  1  0  0  0  0
 14 15  1  0  0  0  0
 15 16  2  0  0  0  0
 15 17  2  0  0  0  0
 15 18  1  0  0  0  0
 18 19  1  0  0  0  0
 18 47  1  0  0  0  0
 18 48  1  0  0  0  0
 19 20  1  0  0  0  0
 19 49  1  0  0  0  0
 19 50  1  0  0  0  0
 20 21  1  0  0  0  0
 20 22  1  0  0  0  0
 20 23  1  0  0  0  0
 21 51  1  0  0  0  0
 21 52  1  0  0  0  0
 21 53  1  0  0  0  0
 22 54  1  0  0  0  0
 22 55  1  0  0  0  0
 22 56  1  0  0  0  0
 23 57  1  0  0  0  0
 23 58  1  0  0  0  0
 23 59  1  0  0  0  0
 24 25  1  0  0  0  0
 24 28  1  0  0  0  0
 24 60  1  0  0  0  0
 25 26  1  0  0  0  0
 25 61  1  0  0  0  0
 25 62  1  0  0  0  0
 26 27  1  0  0  0  0
 26 63  1  0  0  0  0
 26 64  1  0  0  0  0
 27 28  1  0  0  0  0
 27 65  1  0  0  0  0
 27 66  1  0  0  0  0
 28 67  1  0  0  0  0
 28 68  1  0  0  0  0
 29 30  1  0  0  0  0
 29 69  1  0  0  0  0
 30 70  1  0  0  0  0
 31 32  2  0  0  0  0
 32 33  1  0  0  0  0
 32 71  1  0  0  0  0
 33 34  1  0  0  0  0
 35 36  1  0  0  0  0
 35 37  1  0  0  0  0
 35 38  1  0  0  0  0
 36 72  1  0  0  0  0
 36 73  1  0  0  0  0
 36 74  1  0  0  0  0
 37 75  1  0  0  0  0
 37 76  1  0  0  0  0
 37 77  1  0  0  0  0
 38 78  1  0  0  0  0
M  END
$$$$
