CHEMBL524086
 OpenBabel04072215383D

 54 58  0  0  0  0  0  0  0  0999 V2000
   -0.3799    0.1659   -0.0093 C   0  0  0  0  0  0  0  0  0  0  0  0
    1.0973    0.0512    0.0785 C   0  0  0  0  0  0  0  0  0  0  0  0
    1.8392    1.1622    0.0061 N   0  0  0  0  0  0  0  0  0  0  0  0
    3.1010    0.7385    0.1706 N   0  0  0  0  0  0  0  0  0  0  0  0
    4.1116    1.6334    0.1316 N   0  0  0  0  0  0  0  0  0  0  0  0
    5.2730    1.0875    0.3100 C   0  0  0  0  0  0  0  0  0  0  0  0
    5.5412   -0.3520    0.5410 C   0  0  0  0  0  0  0  0  0  0  0  0
    4.4843   -1.1665    0.5496 C   0  0  0  0  0  0  0  0  0  0  0  0
    3.1878   -0.6272    0.3487 C   0  0  0  0  0  0  0  0  0  0  0  0
    1.8904   -1.1173    0.2582 C   0  0  0  0  0  0  0  0  0  0  0  0
    1.5198   -2.5206    0.3670 C   0  0  0  0  0  0  0  0  0  0  0  0
    0.4472   -3.0645   -0.2959 C   0  0  0  0  0  0  0  0  0  0  0  0
    0.2678   -4.4185   -0.1324 C   0  0  0  0  0  0  0  0  0  0  0  0
    1.0686   -5.1984    0.6164 N   0  0  0  0  0  0  0  0  0  0  0  0
    2.0413   -4.5745    1.2861 C   0  0  0  0  0  0  0  0  0  0  0  0
    2.8065   -5.3117    2.1906 N   0  0  0  0  0  0  0  0  0  0  0  0
    3.4629   -4.7598    3.2968 C   0  0  0  0  0  0  0  0  0  0  0  0
    2.8639   -3.7207    4.0175 C   0  0  0  0  0  0  0  0  0  0  0  0
    3.5350   -3.0714    5.0464 C   0  0  0  0  0  0  0  0  0  0  0  0
    4.8307   -3.4391    5.4142 C   0  0  0  0  0  0  0  0  0  0  0  0
    5.4696   -2.7843    6.4414 N   0  0  0  0  0  0  0  0  0  0  0  0
    6.5138   -3.4219    7.2469 C   0  0  0  0  0  0  0  0  0  0  0  0
    6.3039   -3.0551    8.7334 C   0  0  0  0  0  0  0  0  0  0  0  0
    6.2662   -1.5920    8.9589 N   0  0  0  0  0  0  0  0  0  0  0  0
    6.0530   -1.2990   10.3721 C   0  0  0  0  0  0  0  0  0  0  0  0
    5.1840   -1.0055    8.1337 C   0  0  0  0  0  0  0  0  0  0  0  0
    5.3509   -1.3278    6.6317 C   0  0  0  0  0  0  0  0  0  0  0  0
    5.4041   -4.5174    4.7217 C   0  0  0  0  0  0  0  0  0  0  0  0
    4.7330   -5.1762    3.6801 C   0  0  0  0  0  0  0  0  0  0  0  0
    2.2989   -3.2641    1.1609 N   0  0  0  0  0  0  0  0  0  0  0  0
   -0.7011    1.2094   -0.0845 H   0  0  0  0  0  0  0  0  0  0  0  0
   -0.8481   -0.2683    0.8801 H   0  0  0  0  0  0  0  0  0  0  0  0
   -0.7549   -0.3544   -0.8943 H   0  0  0  0  0  0  0  0  0  0  0  0
    6.1675    1.7316    0.2948 H   0  0  0  0  0  0  0  0  0  0  0  0
    6.5569   -0.6847    0.6951 H   0  0  0  0  0  0  0  0  0  0  0  0
    4.6096   -2.2336    0.7281 H   0  0  0  0  0  0  0  0  0  0  0  0
   -0.2118   -2.4948   -0.9309 H   0  0  0  0  0  0  0  0  0  0  0  0
   -0.5592   -4.9327   -0.6137 H   0  0  0  0  0  0  0  0  0  0  0  0
    3.1850   -6.1395    1.7619 H   0  0  0  0  0  0  0  0  0  0  0  0
    1.8556   -3.3920    3.7759 H   0  0  0  0  0  0  0  0  0  0  0  0
    3.0043   -2.2859    5.5739 H   0  0  0  0  0  0  0  0  0  0  0  0
    7.5017   -3.0918    6.9040 H   0  0  0  0  0  0  0  0  0  0  0  0
    6.4776   -4.5146    7.1729 H   0  0  0  0  0  0  0  0  0  0  0  0
    7.1182   -3.5016    9.3155 H   0  0  0  0  0  0  0  0  0  0  0  0
    5.3648   -3.5124    9.0763 H   0  0  0  0  0  0  0  0  0  0  0  0
    6.8682   -1.7175   10.9727 H   0  0  0  0  0  0  0  0  0  0  0  0
    5.1059   -1.7047   10.7445 H   0  0  0  0  0  0  0  0  0  0  0  0
    6.0580   -0.2174   10.5420 H   0  0  0  0  0  0  0  0  0  0  0  0
    5.1768    0.0841    8.2546 H   0  0  0  0  0  0  0  0  0  0  0  0
    4.2058   -1.3792    8.4672 H   0  0  0  0  0  0  0  0  0  0  0  0
    6.2568   -0.8423    6.2462 H   0  0  0  0  0  0  0  0  0  0  0  0
    4.5126   -0.8838    6.0851 H   0  0  0  0  0  0  0  0  0  0  0  0
    6.4118   -4.8476    4.9604 H   0  0  0  0  0  0  0  0  0  0  0  0
    5.2303   -5.9905    3.1622 H   0  0  0  0  0  0  0  0  0  0  0  0
  1  2  1  0  0  0  0
  1 31  1  0  0  0  0
  1 32  1  0  0  0  0
  1 33  1  0  0  0  0
  2  3  2  0  0  0  0
  2 10  1  0  0  0  0
  3  4  1  0  0  0  0
  4  5  1  0  0  0  0
  4  9  1  0  0  0  0
  5  6  2  0  0  0  0
  6  7  1  0  0  0  0
  6 34  1  0  0  0  0
  7  8  2  0  0  0  0
  7 35  1  0  0  0  0
  8  9  1  0  0  0  0
  8 36  1  0  0  0  0
  9 10  2  0  0  0  0
 10 11  1  0  0  0  0
 11 12  1  0  0  0  0
 11 30  2  0  0  0  0
 12 13  2  0  0  0  0
 12 37  1  0  0  0  0
 13 14  1  0  0  0  0
 13 38  1  0  0  0  0
 14 15  2  0  0  0  0
 15 16  1  0  0  0  0
 15 30  1  0  0  0  0
 16 17  1  0  0  0  0
 16 39  1  0  0  0  0
 17 18  1  0  0  0  0
 17 29  2  0  0  0  0
 18 19  2  0  0  0  0
 18 40  1  0  0  0  0
 19 20  1  0  0  0  0
 19 41  1  0  0  0  0
 20 21  1  0  0  0  0
 20 28  2  0  0  0  0
 21 22  1  0  0  0  0
 21 27  1  0  0  0  0
 22 23  1  0  0  0  0
 22 42  1  0  0  0  0
 22 43  1  0  0  0  0
 23 24  1  0  0  0  0
 23 44  1  0  0  0  0
 23 45  1  0  0  0  0
 24 25  1  0  0  0  0
 24 26  1  0  0  0  0
 25 46  1  0  0  0  0
 25 47  1  0  0  0  0
 25 48  1  0  0  0  0
 26 27  1  0  0  0  0
 26 49  1  0  0  0  0
 26 50  1  0  0  0  0
 27 51  1  0  0  0  0
 27 52  1  0  0  0  0
 28 29  1  0  0  0  0
 28 53  1  0  0  0  0
 29 54  1  0  0  0  0
M  END
$$$$
