CHEMBL185331
 OpenBabel04072215363D

 49 52  0  0  0  0  0  0  0  0999 V2000
    2.9961   -5.7235   -0.5250 C   0  0  0  0  0  0  0  0  0  0  0  0
    1.5565   -6.1152   -0.6892 C   0  0  0  0  0  0  0  0  0  0  0  0
    1.2332   -7.3998   -1.1381 C   0  0  0  0  0  0  0  0  0  0  0  0
   -0.0950   -7.7707   -1.3006 C   0  0  0  0  0  0  0  0  0  0  0  0
   -1.1129   -6.8635   -1.0140 C   0  0  0  0  0  0  0  0  0  0  0  0
   -0.8249   -5.5784   -0.5468 C   0  0  0  0  0  0  0  0  0  0  0  0
   -1.8285   -4.6273   -0.2430 N   0  0  0  0  0  0  0  0  0  0  0  0
   -3.1938   -4.8689   -0.2259 C   0  0  0  0  0  0  0  0  0  0  0  0
   -3.7236   -5.9692   -0.3732 O   0  0  0  0  0  0  0  0  0  0  0  0
   -3.9264   -3.7015   -0.0709 N   0  0  0  0  0  0  0  0  0  0  0  0
   -5.3395   -3.7587   -0.0634 C   0  0  0  0  0  0  0  0  0  0  0  0
   -6.0497   -2.9329   -0.9136 C   0  0  0  0  0  0  0  0  0  0  0  0
   -7.4425   -3.0502   -0.9789 C   0  0  0  0  0  0  0  0  0  0  0  0
   -8.1995   -3.8709   -0.1082 C   0  0  0  0  0  0  0  0  0  0  0  0
   -9.6915   -3.7514   -0.1218 C   0  0  0  0  0  0  0  0  0  0  0  0
  -10.5463   -4.8666    0.0348 C   0  0  0  0  0  0  0  0  0  0  0  0
  -11.9462   -4.7472    0.1927 C   0  0  0  0  0  0  0  0  0  0  0  0
  -12.5621   -3.5046    0.1290 C   0  0  0  0  0  0  0  0  0  0  0  0
  -11.7467   -2.4231   -0.1209 C   0  0  0  0  0  0  0  0  0  0  0  0
  -10.3519   -2.5194   -0.2528 C   0  0  0  0  0  0  0  0  0  0  0  0
   -9.8182   -1.1464   -0.5417 C   0  0  0  0  0  0  0  0  0  0  0  0
  -10.9830   -0.3053   -0.4680 N   0  0  0  0  0  0  0  0  0  0  0  0
  -12.1406   -1.0168   -0.2748 C   0  0  0  0  0  0  0  0  0  0  0  0
  -13.2677   -0.5842   -0.2486 O   0  0  0  0  0  0  0  0  0  0  0  0
   -7.4556   -4.6997    0.7714 C   0  0  0  0  0  0  0  0  0  0  0  0
   -8.0222   -5.6689    1.7807 C   0  0  0  0  0  0  0  0  0  0  0  0
   -6.0380   -4.6520    0.7493 C   0  0  0  0  0  0  0  0  0  0  0  0
    0.5201   -5.2081   -0.3941 C   0  0  0  0  0  0  0  0  0  0  0  0
    3.6673   -6.5427   -0.8081 H   0  0  0  0  0  0  0  0  0  0  0  0
    3.2049   -5.4708    0.5189 H   0  0  0  0  0  0  0  0  0  0  0  0
    3.2328   -4.8680   -1.1648 H   0  0  0  0  0  0  0  0  0  0  0  0
    2.0132   -8.1217   -1.3676 H   0  0  0  0  0  0  0  0  0  0  0  0
   -0.3503   -8.7674   -1.6506 H   0  0  0  0  0  0  0  0  0  0  0  0
   -2.1299   -7.2061   -1.1737 H   0  0  0  0  0  0  0  0  0  0  0  0
   -1.5230   -3.7361    0.1183 H   0  0  0  0  0  0  0  0  0  0  0  0
   -3.5163   -2.9020   -0.5307 H   0  0  0  0  0  0  0  0  0  0  0  0
   -5.5427   -2.2473   -1.5848 H   0  0  0  0  0  0  0  0  0  0  0  0
   -7.9349   -2.4740   -1.7554 H   0  0  0  0  0  0  0  0  0  0  0  0
  -10.1316   -5.8738    0.0573 H   0  0  0  0  0  0  0  0  0  0  0  0
  -12.5460   -5.6357    0.3760 H   0  0  0  0  0  0  0  0  0  0  0  0
  -13.6324   -3.3809    0.2543 H   0  0  0  0  0  0  0  0  0  0  0  0
   -9.4450   -1.0604   -1.5659 H   0  0  0  0  0  0  0  0  0  0  0  0
   -9.0788   -0.8061    0.1858 H   0  0  0  0  0  0  0  0  0  0  0  0
  -11.0084    0.6793   -0.6996 H   0  0  0  0  0  0  0  0  0  0  0  0
   -9.1009   -5.6179    1.9113 H   0  0  0  0  0  0  0  0  0  0  0  0
   -7.5970   -5.4632    2.7692 H   0  0  0  0  0  0  0  0  0  0  0  0
   -7.7599   -6.6947    1.4952 H   0  0  0  0  0  0  0  0  0  0  0  0
   -5.4783   -5.3194    1.4050 H   0  0  0  0  0  0  0  0  0  0  0  0
    0.7788   -4.2122   -0.0429 H   0  0  0  0  0  0  0  0  0  0  0  0
  1  2  1  0  0  0  0
  1 29  1  0  0  0  0
  1 30  1  0  0  0  0
  1 31  1  0  0  0  0
  2  3  1  0  0  0  0
  2 28  2  0  0  0  0
  3  4  2  0  0  0  0
  3 32  1  0  0  0  0
  4  5  1  0  0  0  0
  4 33  1  0  0  0  0
  5  6  2  0  0  0  0
  5 34  1  0  0  0  0
  6  7  1  0  0  0  0
  6 28  1  0  0  0  0
  7  8  1  0  0  0  0
  7 35  1  0  0  0  0
  8  9  2  0  0  0  0
  8 10  1  0  0  0  0
 10 11  1  0  0  0  0
 10 36  1  0  0  0  0
 11 12  1  0  0  0  0
 11 27  2  0  0  0  0
 12 13  2  0  0  0  0
 12 37  1  0  0  0  0
 13 14  1  0  0  0  0
 13 38  1  0  0  0  0
 14 15  1  0  0  0  0
 14 25  2  0  0  0  0
 15 16  1  0  0  0  0
 15 20  2  0  0  0  0
 16 17  2  0  0  0  0
 16 39  1  0  0  0  0
 17 18  1  0  0  0  0
 17 40  1  0  0  0  0
 18 19  2  0  0  0  0
 18 41  1  0  0  0  0
 19 20  1  0  0  0  0
 19 23  1  0  0  0  0
 20 21  1  0  0  0  0
 21 22  1  0  0  0  0
 21 42  1  0  0  0  0
 21 43  1  0  0  0  0
 22 23  1  0  0  0  0
 22 44  1  0  0  0  0
 23 24  2  0  0  0  0
 25 26  1  0  0  0  0
 25 27  1  0  0  0  0
 26 45  1  0  0  0  0
 26 46  1  0  0  0  0
 26 47  1  0  0  0  0
 27 48  1  0  0  0  0
 28 49  1  0  0  0  0
M  END
$$$$
