CHEMBL3690404
 OpenBabel04072215373D

 59 63  0  0  1  0  0  0  0  0999 V2000
    2.6358    1.2457   -0.7124 O   0  0  0  0  0  0  0  0  0  0  0  0
    2.5050    0.0309   -0.6496 C   0  0  0  0  0  0  0  0  0  0  0  0
    1.4343   -0.6039   -1.2450 N   0  0  0  0  0  0  0  0  0  0  0  0
    0.3660    0.2181   -1.8240 C   0  0  0  0  0  0  0  0  0  0  0  0
   -0.6869    0.7103   -0.8215 C   0  0  0  0  0  0  0  0  0  0  0  0
   -0.4669    0.2206    0.4216 F   0  0  0  0  0  0  0  0  0  0  0  0
   -0.7351    2.0550   -0.7417 F   0  0  0  0  0  0  0  0  0  0  0  0
   -1.9175    0.2799   -1.1960 F   0  0  0  0  0  0  0  0  0  0  0  0
    3.3468   -0.8716   -0.0389 N   0  0  0  0  0  0  0  0  0  0  0  0
    4.5509   -0.5862    0.6387 C   0  0  0  0  0  0  0  0  0  0  0  0
    5.0716    0.7023    0.7739 C   0  0  0  0  0  0  0  0  0  0  0  0
    6.3066    0.9025    1.3852 C   0  0  0  0  0  0  0  0  0  0  0  0
    7.0195   -0.1804    1.8924 C   0  0  0  0  0  0  0  0  0  0  0  0
    6.4741   -1.4699    1.8676 C   0  0  0  0  0  0  0  0  0  0  0  0
    7.1358   -2.5962    2.5325 C   0  0  0  0  0  0  0  0  0  0  0  0
    7.1903   -3.9314    2.1595 C   0  0  0  0  0  0  0  0  0  0  0  0
    7.8470   -4.7004    3.0785 N   0  0  0  0  0  0  0  0  0  0  0  0
    8.2024   -3.8662    4.0284 C   0  0  0  0  0  0  0  0  0  0  0  0
    8.9066   -4.1015    5.2405 C   0  0  0  0  0  0  0  0  0  0  0  0
    9.1939   -3.0927    6.1008 C   0  0  0  0  0  0  0  0  0  0  0  0
    9.9313   -3.3282    7.3041 C   0  0  0  0  0  0  0  0  0  0  0  0
    9.9053   -2.6697    8.5503 C   0  0  0  0  0  0  0  0  0  0  0  0
   10.7527   -3.2106    9.4343 N   0  0  0  0  0  0  0  0  0  0  0  0
   11.3251   -4.2263    8.7482 N   0  0  0  0  0  0  0  0  0  0  0  0
   12.3020   -5.0886    9.4079 C   0  0  3  0  0  0  0  0  0  0  0  0
   13.7345   -4.5627    9.2485 C   0  0  0  0  0  0  0  0  0  0  0  0
   14.3245   -4.8953    7.8782 C   0  0  0  0  0  0  0  0  0  0  0  0
   14.1634   -6.3737    7.5218 C   0  0  0  0  0  0  0  0  0  0  0  0
   12.7794   -6.8253    7.6312 N   0  0  0  0  0  0  0  0  0  0  0  0
   12.2129   -6.5646    8.9626 C   0  0  0  0  0  0  0  0  0  0  0  0
   10.8777   -4.3093    7.4634 C   0  0  0  0  0  0  0  0  0  0  0  0
    8.7470   -1.7375    5.7706 C   0  0  0  0  0  0  0  0  0  0  0  0
    8.0564   -1.5124    4.6420 C   0  0  0  0  0  0  0  0  0  0  0  0
    7.7959   -2.5636    3.7588 N   0  0  0  0  0  0  0  0  0  0  0  0
    5.2531   -1.6626    1.1999 C   0  0  0  0  0  0  0  0  0  0  0  0
    1.1405   -1.4657   -0.8079 H   0  0  0  0  0  0  0  0  0  0  0  0
   -0.1129   -0.4004   -2.5895 H   0  0  0  0  0  0  0  0  0  0  0  0
    0.8134    1.0783   -2.3354 H   0  0  0  0  0  0  0  0  0  0  0  0
    3.1149   -1.8466   -0.1526 H   0  0  0  0  0  0  0  0  0  0  0  0
    4.5515    1.5754    0.3942 H   0  0  0  0  0  0  0  0  0  0  0  0
    6.7119    1.9077    1.4639 H   0  0  0  0  0  0  0  0  0  0  0  0
    8.0030    0.0082    2.3136 H   0  0  0  0  0  0  0  0  0  0  0  0
    6.7797   -4.3812    1.2646 H   0  0  0  0  0  0  0  0  0  0  0  0
    9.1972   -5.1273    5.4413 H   0  0  0  0  0  0  0  0  0  0  0  0
    9.3007   -1.8273    8.8610 H   0  0  0  0  0  0  0  0  0  0  0  0
   12.0375   -5.0513   10.4738 H   0  0  0  0  0  0  0  0  0  0  0  0
   14.3639   -5.0284   10.0179 H   0  0  0  0  0  0  0  0  0  0  0  0
   13.7788   -3.4802    9.4177 H   0  0  0  0  0  0  0  0  0  0  0  0
   15.3900   -4.6369    7.8720 H   0  0  0  0  0  0  0  0  0  0  0  0
   13.8490   -4.2728    7.1107 H   0  0  0  0  0  0  0  0  0  0  0  0
   14.8045   -6.9892    8.1625 H   0  0  0  0  0  0  0  0  0  0  0  0
   14.4993   -6.5252    6.4897 H   0  0  0  0  0  0  0  0  0  0  0  0
   12.7143   -7.8189    7.4105 H   0  0  0  0  0  0  0  0  0  0  0  0
   12.7377   -7.1925    9.6929 H   0  0  0  0  0  0  0  0  0  0  0  0
   11.1654   -6.8900    8.9644 H   0  0  0  0  0  0  0  0  0  0  0  0
   11.2550   -5.0497    6.7735 H   0  0  0  0  0  0  0  0  0  0  0  0
    8.9896   -0.9185    6.4405 H   0  0  0  0  0  0  0  0  0  0  0  0
    7.7011   -0.5238    4.3958 H   0  0  0  0  0  0  0  0  0  0  0  0
    4.8365   -2.6656    1.1366 H   0  0  0  0  0  0  0  0  0  0  0  0
  1  2  2  0  0  0  0
  2  3  1  0  0  0  0
  2  9  1  0  0  0  0
  3  4  1  0  0  0  0
  3 36  1  0  0  0  0
  4  5  1  0  0  0  0
  4 37  1  0  0  0  0
  4 38  1  0  0  0  0
  5  6  1  0  0  0  0
  5  7  1  0  0  0  0
  5  8  1  0  0  0  0
  9 10  1  0  0  0  0
  9 39  1  0  0  0  0
 10 11  1  0  0  0  0
 10 35  2  0  0  0  0
 11 12  2  0  0  0  0
 11 40  1  0  0  0  0
 12 13  1  0  0  0  0
 12 41  1  0  0  0  0
 13 14  2  0  0  0  0
 13 42  1  0  0  0  0
 14 15  1  0  0  0  0
 14 35  1  0  0  0  0
 15 16  2  0  0  0  0
 15 34  1  0  0  0  0
 16 17  1  0  0  0  0
 16 43  1  0  0  0  0
 17 18  2  0  0  0  0
 18 19  1  0  0  0  0
 18 34  1  0  0  0  0
 19 20  2  0  0  0  0
 19 44  1  0  0  0  0
 20 21  1  0  0  0  0
 20 32  1  0  0  0  0
 21 22  1  0  0  0  0
 21 31  2  0  0  0  0
 22 23  2  0  0  0  0
 22 45  1  0  0  0  0
 23 24  1  0  0  0  0
 24 25  1  0  0  0  0
 24 31  1  0  0  0  0
 25 26  1  0  0  0  0
 25 30  1  0  0  0  0
 25 46  1  0  0  0  0
 26 27  1  0  0  0  0
 26 47  1  0  0  0  0
 26 48  1  0  0  0  0
 27 28  1  0  0  0  0
 27 49  1  0  0  0  0
 27 50  1  0  0  0  0
 28 29  1  0  0  0  0
 28 51  1  0  0  0  0
 28 52  1  0  0  0  0
 29 30  1  0  0  0  0
 29 53  1  0  0  0  0
 30 54  1  0  0  0  0
 30 55  1  0  0  0  0
 31 56  1  0  0  0  0
 32 33  2  0  0  0  0
 32 57  1  0  0  0  0
 33 34  1  0  0  0  0
 33 58  1  0  0  0  0
 35 59  1  0  0  0  0
M  END
$$$$
