CHEMBL1835870
 OpenBabel04072215363D

 60 64  0  0  1  0  0  0  0  0999 V2000
    9.6158   -7.9793    8.5113 N   0  0  0  0  0  0  0  0  0  0  0  0
    8.8594   -8.0035    7.3989 C   0  0  0  0  0  0  0  0  0  0  0  0
    7.9155   -8.8816    7.1272 N   0  0  0  0  0  0  0  0  0  0  0  0
    7.4676   -8.4788    5.9030 C   0  0  0  0  0  0  0  0  0  0  0  0
    6.4889   -9.1832    5.3029 N   0  0  0  0  0  0  0  0  0  0  0  0
    5.9152   -8.8745    4.0563 C   0  0  0  0  0  0  0  0  0  0  0  0
    6.6404   -8.2094    3.0570 C   0  0  0  0  0  0  0  0  0  0  0  0
    6.0228   -7.7152    1.9208 C   0  0  0  0  0  0  0  0  0  0  0  0
    4.6597   -7.9286    1.7103 C   0  0  0  0  0  0  0  0  0  0  0  0
    4.0554   -7.4198    0.4144 C   0  0  1  0  0  0  0  0  0  0  0  0
    4.7705   -8.0534   -0.7997 C   0  0  0  0  0  0  0  0  0  0  0  0
    4.2551   -9.4417   -1.1602 C   0  0  0  0  0  0  0  0  0  0  0  0
    2.7220   -9.5588   -1.3011 C   0  0  2  0  0  0  0  0  0  0  0  0
    2.0735   -9.1766   -2.5654 N   0  0  0  0  0  0  0  0  0  0  0  0
    2.8135   -9.4225   -3.8099 C   0  0  0  0  0  0  0  0  0  0  0  0
    3.6477   -8.2153   -4.2825 C   0  0  0  0  0  0  0  0  0  0  0  0
    2.8815   -7.0009   -4.3321 O   0  0  0  0  0  0  0  0  0  0  0  0
    2.2348   -6.7438   -3.0813 C   0  0  0  0  0  0  0  0  0  0  0  0
    1.3351   -7.9178   -2.6821 C   0  0  0  0  0  0  0  0  0  0  0  0
    2.0669   -8.9851   -0.0291 C   0  0  0  0  0  0  0  0  0  0  0  0
    2.5275   -7.5655    0.3293 C   0  0  0  0  0  0  0  0  0  0  0  0
    3.9323   -8.5908    2.7099 C   0  0  0  0  0  0  0  0  0  0  0  0
    4.5507   -9.0655    3.8632 C   0  0  0  0  0  0  0  0  0  0  0  0
    8.0259   -7.3752    5.4413 N   0  0  0  0  0  0  0  0  0  0  0  0
    8.9552   -7.0852    6.3582 N   0  0  0  0  0  0  0  0  0  0  0  0
    9.8376   -5.9835    6.1732 C   0  0  0  0  0  0  0  0  0  0  0  0
    9.7010   -5.2095    5.0155 C   0  0  0  0  0  0  0  0  0  0  0  0
   10.5703   -4.1447    4.8051 C   0  0  0  0  0  0  0  0  0  0  0  0
   11.5552   -3.8868    5.7475 C   0  0  0  0  0  0  0  0  0  0  0  0
   11.6255   -4.6985    6.8686 C   0  0  0  0  0  0  0  0  0  0  0  0
   10.7856   -5.7276    7.1173 N   0  0  0  0  0  0  0  0  0  0  0  0
    9.2969   -8.5126    9.3128 H   0  0  0  0  0  0  0  0  0  0  0  0
   10.1504   -7.1380    8.7193 H   0  0  0  0  0  0  0  0  0  0  0  0
    6.0162   -9.8882    5.8467 H   0  0  0  0  0  0  0  0  0  0  0  0
    7.7083   -8.0446    3.1609 H   0  0  0  0  0  0  0  0  0  0  0  0
    6.6247   -7.1581    1.2062 H   0  0  0  0  0  0  0  0  0  0  0  0
    4.2690   -6.3398    0.3954 H   0  0  0  0  0  0  0  0  0  0  0  0
    5.8528   -8.1360   -0.6382 H   0  0  0  0  0  0  0  0  0  0  0  0
    4.6883   -7.3814   -1.6527 H   0  0  0  0  0  0  0  0  0  0  0  0
    4.5703  -10.1289   -0.3612 H   0  0  0  0  0  0  0  0  0  0  0  0
    4.7754   -9.8085   -2.0508 H   0  0  0  0  0  0  0  0  0  0  0  0
    2.5318  -10.6412   -1.2513 H   0  0  0  0  0  0  0  0  0  0  0  0
    2.0661   -9.6262   -4.5887 H   0  0  0  0  0  0  0  0  0  0  0  0
    3.4247  -10.3292   -3.7532 H   0  0  0  0  0  0  0  0  0  0  0  0
    4.0172   -8.4006   -5.2949 H   0  0  0  0  0  0  0  0  0  0  0  0
    4.5268   -8.0566   -3.6542 H   0  0  0  0  0  0  0  0  0  0  0  0
    1.6354   -5.8358   -3.1826 H   0  0  0  0  0  0  0  0  0  0  0  0
    2.9932   -6.5257   -2.3290 H   0  0  0  0  0  0  0  0  0  0  0  0
    0.5942   -8.0526   -3.4823 H   0  0  0  0  0  0  0  0  0  0  0  0
    0.7320   -7.6896   -1.8003 H   0  0  0  0  0  0  0  0  0  0  0  0
    2.3094   -9.6675    0.7937 H   0  0  0  0  0  0  0  0  0  0  0  0
    0.9739   -9.0208   -0.0946 H   0  0  0  0  0  0  0  0  0  0  0  0
    2.0514   -7.2459    1.2642 H   0  0  0  0  0  0  0  0  0  0  0  0
    2.1538   -6.8488   -0.4026 H   0  0  0  0  0  0  0  0  0  0  0  0
    2.8605   -8.7383    2.6371 H   0  0  0  0  0  0  0  0  0  0  0  0
    3.9441   -9.5433    4.6276 H   0  0  0  0  0  0  0  0  0  0  0  0
    8.9325   -5.4212    4.2751 H   0  0  0  0  0  0  0  0  0  0  0  0
   10.4799   -3.5316    3.9130 H   0  0  0  0  0  0  0  0  0  0  0  0
   12.2557   -3.0687    5.6099 H   0  0  0  0  0  0  0  0  0  0  0  0
   12.3890   -4.5342    7.6241 H   0  0  0  0  0  0  0  0  0  0  0  0
  1  2  1  0  0  0  0
  1 32  1  0  0  0  0
  1 33  1  0  0  0  0
  2  3  2  0  0  0  0
  2 25  1  0  0  0  0
  3  4  1  0  0  0  0
  4  5  1  0  0  0  0
  4 24  2  0  0  0  0
  5  6  1  0  0  0  0
  5 34  1  0  0  0  0
  6  7  1  0  0  0  0
  6 23  2  0  0  0  0
  7  8  2  0  0  0  0
  7 35  1  0  0  0  0
  8  9  1  0  0  0  0
  8 36  1  0  0  0  0
  9 22  2  0  0  0  0
 10 11  1  0  0  0  0
 10 21  1  0  0  0  0
 10  9  1  0  0  0  0
 10 37  1  6  0  0  0
 11 12  1  0  0  0  0
 11 38  1  0  0  0  0
 11 39  1  0  0  0  0
 12 13  1  0  0  0  0
 12 40  1  0  0  0  0
 12 41  1  0  0  0  0
 13 20  1  0  0  0  0
 13 14  1  0  0  0  0
 13 42  1  1  0  0  0
 14 15  1  0  0  0  0
 14 19  1  0  0  0  0
 15 16  1  0  0  0  0
 15 43  1  0  0  0  0
 15 44  1  0  0  0  0
 16 17  1  0  0  0  0
 16 45  1  0  0  0  0
 16 46  1  0  0  0  0
 17 18  1  0  0  0  0
 18 19  1  0  0  0  0
 18 47  1  0  0  0  0
 18 48  1  0  0  0  0
 19 49  1  0  0  0  0
 19 50  1  0  0  0  0
 20 21  1  0  0  0  0
 20 51  1  0  0  0  0
 20 52  1  0  0  0  0
 21 53  1  0  0  0  0
 21 54  1  0  0  0  0
 22 23  1  0  0  0  0
 22 55  1  0  0  0  0
 23 56  1  0  0  0  0
 24 25  1  0  0  0  0
 25 26  1  0  0  0  0
 26 27  1  0  0  0  0
 26 31  2  0  0  0  0
 27 28  2  0  0  0  0
 27 57  1  0  0  0  0
 28 29  1  0  0  0  0
 28 58  1  0  0  0  0
 29 30  2  0  0  0  0
 29 59  1  0  0  0  0
 30 31  1  0  0  0  0
 30 60  1  0  0  0  0
M  END
$$$$
