CHEMBL46696
 OpenBabel04072215383D

 46 49  0  0  0  0  0  0  0  0999 V2000
    3.3883   -6.0895    7.6976 C   0  0  0  0  0  0  0  0  0  0  0  0
    4.0681   -4.8706    7.9742 O   0  0  0  0  0  0  0  0  0  0  0  0
    4.1293   -3.9556    6.9590 C   0  0  0  0  0  0  0  0  0  0  0  0
    3.6493   -4.1393    5.6620 C   0  0  0  0  0  0  0  0  0  0  0  0
    3.7245   -3.1103    4.7108 C   0  0  0  0  0  0  0  0  0  0  0  0
    3.1871   -3.2510    3.4222 N   0  0  0  0  0  0  0  0  0  0  0  0
    1.9824   -3.8622    3.0819 C   0  0  0  0  0  0  0  0  0  0  0  0
    1.0210   -4.0066    4.0088 N   0  0  0  0  0  0  0  0  0  0  0  0
   -0.1405   -4.5568    3.6266 C   0  0  0  0  0  0  0  0  0  0  0  0
   -0.3888   -4.9824    2.3485 C   0  0  0  0  0  0  0  0  0  0  0  0
    0.6674   -4.8541    1.4721 C   0  0  0  0  0  0  0  0  0  0  0  0
    0.5530   -5.4248    0.1735 N   0  0  0  0  0  0  0  0  0  0  0  0
   -0.6112   -5.4975   -0.5658 C   0  0  0  0  0  0  0  0  0  0  0  0
   -0.2500   -5.9940   -1.7903 C   0  0  0  0  0  0  0  0  0  0  0  0
    1.0784   -6.3068   -1.8063 N   0  0  0  0  0  0  0  0  0  0  0  0
    1.5533   -6.0198   -0.6005 C   0  0  0  0  0  0  0  0  0  0  0  0
    2.9225   -6.3764   -0.1653 C   0  0  0  0  0  0  0  0  0  0  0  0
    3.9565   -6.4314   -1.1102 C   0  0  0  0  0  0  0  0  0  0  0  0
    5.2674   -6.7347   -0.7239 C   0  0  0  0  0  0  0  0  0  0  0  0
    5.5659   -6.9741    0.6150 C   0  0  0  0  0  0  0  0  0  0  0  0
    4.5465   -6.9700    1.5593 C   0  0  0  0  0  0  0  0  0  0  0  0
    3.2326   -6.7173    1.1606 C   0  0  0  0  0  0  0  0  0  0  0  0
    1.8401   -4.2776    1.8192 N   0  0  0  0  0  0  0  0  0  0  0  0
    4.3608   -1.9140    5.0584 C   0  0  0  0  0  0  0  0  0  0  0  0
    4.8286   -1.6998    6.3634 C   0  0  0  0  0  0  0  0  0  0  0  0
    5.3980   -0.3700    6.7814 C   0  0  0  0  0  0  0  0  0  0  0  0
    5.3958    0.5621    5.7877 F   0  0  0  0  0  0  0  0  0  0  0  0
    4.7072    0.1892    7.8141 F   0  0  0  0  0  0  0  0  0  0  0  0
    6.6902   -0.4613    7.2028 F   0  0  0  0  0  0  0  0  0  0  0  0
    4.7133   -2.7360    7.3036 C   0  0  0  0  0  0  0  0  0  0  0  0
    3.3172   -6.6541    8.6328 H   0  0  0  0  0  0  0  0  0  0  0  0
    3.9553   -6.6944    6.9826 H   0  0  0  0  0  0  0  0  0  0  0  0
    2.3668   -5.9128    7.3436 H   0  0  0  0  0  0  0  0  0  0  0  0
    3.1892   -5.0766    5.3682 H   0  0  0  0  0  0  0  0  0  0  0  0
    3.8585   -3.3588    2.6693 H   0  0  0  0  0  0  0  0  0  0  0  0
   -0.8782   -4.6692    4.4156 H   0  0  0  0  0  0  0  0  0  0  0  0
   -1.3259   -5.4629    2.1019 H   0  0  0  0  0  0  0  0  0  0  0  0
   -1.5589   -5.1191   -0.2057 H   0  0  0  0  0  0  0  0  0  0  0  0
   -0.8759   -6.1413   -2.6608 H   0  0  0  0  0  0  0  0  0  0  0  0
    3.7427   -6.2422   -2.1605 H   0  0  0  0  0  0  0  0  0  0  0  0
    6.0557   -6.7775   -1.4714 H   0  0  0  0  0  0  0  0  0  0  0  0
    6.5880   -7.1805    0.9210 H   0  0  0  0  0  0  0  0  0  0  0  0
    4.7647   -7.1643    2.6057 H   0  0  0  0  0  0  0  0  0  0  0  0
    2.4591   -6.7747    1.9204 H   0  0  0  0  0  0  0  0  0  0  0  0
    4.4286   -1.1151    4.3211 H   0  0  0  0  0  0  0  0  0  0  0  0
    5.0647   -2.5858    8.3240 H   0  0  0  0  0  0  0  0  0  0  0  0
  1  2  1  0  0  0  0
  1 31  1  0  0  0  0
  1 32  1  0  0  0  0
  1 33  1  0  0  0  0
  2  3  1  0  0  0  0
  3  4  1  0  0  0  0
  3 30  2  0  0  0  0
  4  5  2  0  0  0  0
  4 34  1  0  0  0  0
  5  6  1  0  0  0  0
  5 24  1  0  0  0  0
  6  7  1  0  0  0  0
  6 35  1  0  0  0  0
  7  8  1  0  0  0  0
  7 23  2  0  0  0  0
  8  9  2  0  0  0  0
  9 10  1  0  0  0  0
  9 36  1  0  0  0  0
 10 11  2  0  0  0  0
 10 37  1  0  0  0  0
 11 12  1  0  0  0  0
 11 23  1  0  0  0  0
 12 13  1  0  0  0  0
 12 16  1  0  0  0  0
 13 14  2  0  0  0  0
 13 38  1  0  0  0  0
 14 15  1  0  0  0  0
 14 39  1  0  0  0  0
 15 16  2  0  0  0  0
 16 17  1  0  0  0  0
 17 18  1  0  0  0  0
 17 22  2  0  0  0  0
 18 19  2  0  0  0  0
 18 40  1  0  0  0  0
 19 20  1  0  0  0  0
 19 41  1  0  0  0  0
 20 21  2  0  0  0  0
 20 42  1  0  0  0  0
 21 22  1  0  0  0  0
 21 43  1  0  0  0  0
 22 44  1  0  0  0  0
 24 25  2  0  0  0  0
 24 45  1  0  0  0  0
 25 26  1  0  0  0  0
 25 30  1  0  0  0  0
 26 27  1  0  0  0  0
 26 28  1  0  0  0  0
 26 29  1  0  0  0  0
 30 46  1  0  0  0  0
M  END
$$$$
