CHEMBL4073474
 OpenBabel04072215383D

 75 79  0  0  0  0  0  0  0  0999 V2000
    0.8862   -0.2276   -0.0323 C   0  0  0  0  0  0  0  0  0  0  0  0
    2.3891   -0.1784   -0.0664 C   0  0  0  0  0  0  0  0  0  0  0  0
    3.0153    0.9369   -0.6372 C   0  0  0  0  0  0  0  0  0  0  0  0
    4.4038    0.9942   -0.7309 C   0  0  0  0  0  0  0  0  0  0  0  0
    5.1965   -0.0575   -0.2525 C   0  0  0  0  0  0  0  0  0  0  0  0
    6.6697    0.0936   -0.3988 C   0  0  0  0  0  0  0  0  0  0  0  0
    7.1119    1.2382   -0.3524 O   0  0  0  0  0  0  0  0  0  0  0  0
    7.4034   -1.0561   -0.6716 N   0  0  0  0  0  0  0  0  0  0  0  0
    8.7926   -1.0618   -0.9703 C   0  0  0  0  0  0  0  0  0  0  0  0
    9.6309    0.0036   -0.6522 C   0  0  0  0  0  0  0  0  0  0  0  0
   10.9578    0.0250   -1.0770 C   0  0  0  0  0  0  0  0  0  0  0  0
   11.4935   -1.0232   -1.8400 C   0  0  0  0  0  0  0  0  0  0  0  0
   12.8986   -0.8453   -2.3796 C   0  0  0  0  0  0  0  0  0  0  0  0
   12.9381   -0.8429   -3.8404 N   0  0  0  0  0  0  0  0  0  0  0  0
   12.1522    0.2266   -4.4751 C   0  0  0  0  0  0  0  0  0  0  0  0
   12.2031    0.0983   -6.0162 C   0  0  0  0  0  0  0  0  0  0  0  0
   13.5639    0.0973   -6.5908 N   0  0  0  0  0  0  0  0  0  0  0  0
   14.1637    1.4274   -6.5332 C   0  0  0  0  0  0  0  0  0  0  0  0
   14.3870   -0.9018   -5.8777 C   0  0  0  0  0  0  0  0  0  0  0  0
   14.3257   -0.8174   -4.3344 C   0  0  0  0  0  0  0  0  0  0  0  0
   10.6855   -2.1476   -2.1175 C   0  0  0  0  0  0  0  0  0  0  0  0
   11.1399   -3.3403   -2.9440 C   0  0  0  0  0  0  0  0  0  0  0  0
   12.4323   -3.3573   -3.3601 F   0  0  0  0  0  0  0  0  0  0  0  0
   10.9937   -4.5069   -2.2459 F   0  0  0  0  0  0  0  0  0  0  0  0
   10.3789   -3.4998   -4.0661 F   0  0  0  0  0  0  0  0  0  0  0  0
    9.3415   -2.1558   -1.6518 C   0  0  0  0  0  0  0  0  0  0  0  0
    4.5886   -1.1598    0.3553 C   0  0  0  0  0  0  0  0  0  0  0  0
    3.1865   -1.2283    0.4373 C   0  0  0  0  0  0  0  0  0  0  0  0
    2.5811   -2.3928    1.0129 C   0  0  0  0  0  0  0  0  0  0  0  0
    2.0592   -3.3854    1.4617 C   0  0  0  0  0  0  0  0  0  0  0  0
    1.4655   -4.5830    1.9657 C   0  0  0  0  0  0  0  0  0  0  0  0
    0.1140   -4.8415    1.8247 C   0  0  0  0  0  0  0  0  0  0  0  0
   -0.4763   -5.9743    2.2610 N   0  0  0  0  0  0  0  0  0  0  0  0
    0.3340   -6.8821    2.8724 C   0  0  0  0  0  0  0  0  0  0  0  0
    1.7088   -6.7404    3.0971 C   0  0  0  0  0  0  0  0  0  0  0  0
    2.4834   -7.6756    3.7436 N   0  0  0  0  0  0  0  0  0  0  0  0
    2.0040   -8.9391    4.2948 C   0  0  0  0  0  0  0  0  0  0  0  0
    2.9348   -9.1707    5.4800 C   0  0  0  0  0  0  0  0  0  0  0  0
    4.2666   -8.6210    4.9966 C   0  0  0  0  0  0  0  0  0  0  0  0
    3.8886   -7.4564    4.0836 C   0  0  0  0  0  0  0  0  0  0  0  0
    2.2527   -5.5439    2.6081 C   0  0  0  0  0  0  0  0  0  0  0  0
    0.4473    0.6879   -0.4457 H   0  0  0  0  0  0  0  0  0  0  0  0
    0.5232   -0.3288    0.9949 H   0  0  0  0  0  0  0  0  0  0  0  0
    0.5236   -1.0650   -0.6378 H   0  0  0  0  0  0  0  0  0  0  0  0
    2.4279    1.7678   -1.0230 H   0  0  0  0  0  0  0  0  0  0  0  0
    4.8692    1.8670   -1.1871 H   0  0  0  0  0  0  0  0  0  0  0  0
    6.8884   -1.8996   -0.8879 H   0  0  0  0  0  0  0  0  0  0  0  0
    9.2779    0.8569   -0.0821 H   0  0  0  0  0  0  0  0  0  0  0  0
   11.5577    0.9022   -0.8392 H   0  0  0  0  0  0  0  0  0  0  0  0
   13.5027   -1.6697   -1.9785 H   0  0  0  0  0  0  0  0  0  0  0  0
   13.3491    0.0754   -1.9844 H   0  0  0  0  0  0  0  0  0  0  0  0
   12.5087    1.2155   -4.1610 H   0  0  0  0  0  0  0  0  0  0  0  0
   11.0981    0.1576   -4.1844 H   0  0  0  0  0  0  0  0  0  0  0  0
   11.5985    0.8907   -6.4737 H   0  0  0  0  0  0  0  0  0  0  0  0
   11.7141   -0.8438   -6.3020 H   0  0  0  0  0  0  0  0  0  0  0  0
   13.5410    2.1483   -7.0743 H   0  0  0  0  0  0  0  0  0  0  0  0
   15.1405    1.4240   -7.0282 H   0  0  0  0  0  0  0  0  0  0  0  0
   14.3017    1.7986   -5.5129 H   0  0  0  0  0  0  0  0  0  0  0  0
   15.4312   -0.8379   -6.2080 H   0  0  0  0  0  0  0  0  0  0  0  0
   14.0435   -1.9002   -6.1810 H   0  0  0  0  0  0  0  0  0  0  0  0
   14.8402    0.0898   -3.9915 H   0  0  0  0  0  0  0  0  0  0  0  0
   14.8780   -1.6731   -3.9269 H   0  0  0  0  0  0  0  0  0  0  0  0
    8.7178   -3.0165   -1.8899 H   0  0  0  0  0  0  0  0  0  0  0  0
    5.1927   -1.9559    0.7847 H   0  0  0  0  0  0  0  0  0  0  0  0
   -0.5533   -4.1345    1.3395 H   0  0  0  0  0  0  0  0  0  0  0  0
   -0.2000   -7.7717    3.1946 H   0  0  0  0  0  0  0  0  0  0  0  0
    2.1232   -9.7317    3.5473 H   0  0  0  0  0  0  0  0  0  0  0  0
    0.9657   -8.9222    4.6351 H   0  0  0  0  0  0  0  0  0  0  0  0
    2.9932  -10.2230    5.7713 H   0  0  0  0  0  0  0  0  0  0  0  0
    2.5857   -8.5940    6.3448 H   0  0  0  0  0  0  0  0  0  0  0  0
    4.8119   -9.3844    4.4315 H   0  0  0  0  0  0  0  0  0  0  0  0
    4.9046   -8.2971    5.8249 H   0  0  0  0  0  0  0  0  0  0  0  0
    4.5169   -7.4585    3.1847 H   0  0  0  0  0  0  0  0  0  0  0  0
    4.0250   -6.5071    4.6154 H   0  0  0  0  0  0  0  0  0  0  0  0
    3.3132   -5.3393    2.7176 H   0  0  0  0  0  0  0  0  0  0  0  0
  1  2  1  0  0  0  0
  1 42  1  0  0  0  0
  1 43  1  0  0  0  0
  1 44  1  0  0  0  0
  2  3  1  0  0  0  0
  2 28  2  0  0  0  0
  3  4  2  0  0  0  0
  3 45  1  0  0  0  0
  4  5  1  0  0  0  0
  4 46  1  0  0  0  0
  5  6  1  0  0  0  0
  5 27  2  0  0  0  0
  6  7  2  0  0  0  0
  6  8  1  0  0  0  0
  8  9  1  0  0  0  0
  8 47  1  0  0  0  0
  9 10  1  0  0  0  0
  9 26  2  0  0  0  0
 10 11  2  0  0  0  0
 10 48  1  0  0  0  0
 11 12  1  0  0  0  0
 11 49  1  0  0  0  0
 12 13  1  0  0  0  0
 12 21  2  0  0  0  0
 13 14  1  0  0  0  0
 13 50  1  0  0  0  0
 13 51  1  0  0  0  0
 14 15  1  0  0  0  0
 14 20  1  0  0  0  0
 15 16  1  0  0  0  0
 15 52  1  0  0  0  0
 15 53  1  0  0  0  0
 16 17  1  0  0  0  0
 16 54  1  0  0  0  0
 16 55  1  0  0  0  0
 17 18  1  0  0  0  0
 17 19  1  0  0  0  0
 18 56  1  0  0  0  0
 18 57  1  0  0  0  0
 18 58  1  0  0  0  0
 19 20  1  0  0  0  0
 19 59  1  0  0  0  0
 19 60  1  0  0  0  0
 20 61  1  0  0  0  0
 20 62  1  0  0  0  0
 21 22  1  0  0  0  0
 21 26  1  0  0  0  0
 22 23  1  0  0  0  0
 22 24  1  0  0  0  0
 22 25  1  0  0  0  0
 26 63  1  0  0  0  0
 27 28  1  0  0  0  0
 27 64  1  0  0  0  0
 28 29  1  0  0  0  0
 29 30  3  0  0  0  0
 30 31  1  0  0  0  0
 31 32  1  0  0  0  0
 31 41  2  0  0  0  0
 32 33  2  0  0  0  0
 32 65  1  0  0  0  0
 33 34  1  0  0  0  0
 34 35  2  0  0  0  0
 34 66  1  0  0  0  0
 35 36  1  0  0  0  0
 35 41  1  0  0  0  0
 36 37  1  0  0  0  0
 36 40  1  0  0  0  0
 37 38  1  0  0  0  0
 37 67  1  0  0  0  0
 37 68  1  0  0  0  0
 38 39  1  0  0  0  0
 38 69  1  0  0  0  0
 38 70  1  0  0  0  0
 39 40  1  0  0  0  0
 39 71  1  0  0  0  0
 39 72  1  0  0  0  0
 40 73  1  0  0  0  0
 40 74  1  0  0  0  0
 41 75  1  0  0  0  0
M  END
$$$$
