CHEMBL249519
 OpenBabel04072215363D

 57 61  0  0  0  0  0  0  0  0999 V2000
   10.3113   -5.2915    4.0085 C   0  0  0  0  0  0  0  0  0  0  0  0
    9.1578   -4.3013    4.1180 C   0  0  0  0  0  0  0  0  0  0  0  0
    8.3099   -4.4908    2.9466 N   0  0  0  0  0  0  0  0  0  0  0  0
    7.0888   -3.6936    2.9794 C   0  0  0  0  0  0  0  0  0  0  0  0
    6.2239   -3.9189    1.7526 C   0  0  0  0  0  0  0  0  0  0  0  0
    6.0536   -2.8349    0.8838 C   0  0  0  0  0  0  0  0  0  0  0  0
    5.2720   -2.8574   -0.2164 N   0  0  0  0  0  0  0  0  0  0  0  0
    4.6215   -4.0100   -0.4652 C   0  0  0  0  0  0  0  0  0  0  0  0
    4.6944   -5.1850    0.3007 C   0  0  0  0  0  0  0  0  0  0  0  0
    3.8930   -6.3619   -0.1216 C   0  0  0  0  0  0  0  0  0  0  0  0
    3.7646   -6.7355   -1.4718 C   0  0  0  0  0  0  0  0  0  0  0  0
    3.0572   -7.7859   -1.9807 N   0  0  0  0  0  0  0  0  0  0  0  0
    2.5012   -8.5382   -1.0141 C   0  0  0  0  0  0  0  0  0  0  0  0
    1.7687   -9.6777   -1.1830 N   0  0  0  0  0  0  0  0  0  0  0  0
    1.4117  -10.2802   -0.0236 N   0  0  0  0  0  0  0  0  0  0  0  0
    1.9044   -9.4478    0.9115 C   0  0  0  0  0  0  0  0  0  0  0  0
    1.8088   -9.7457    2.3696 C   0  0  0  0  0  0  0  0  0  0  0  0
    2.2720   -8.9799    3.3362 N   0  0  0  0  0  0  0  0  0  0  0  0
    1.9899   -9.6487    4.5053 C   0  0  0  0  0  0  0  0  0  0  0  0
    2.2496   -9.2636    5.8354 C   0  0  0  0  0  0  0  0  0  0  0  0
    2.8859   -7.9442    6.1751 C   0  0  0  0  0  0  0  0  0  0  0  0
    4.0762   -8.1472    6.9382 O   0  0  0  0  0  0  0  0  0  0  0  0
    4.7171   -6.9096    7.2192 C   0  0  0  0  0  0  0  0  0  0  0  0
    1.8338  -10.1497    6.8516 C   0  0  0  0  0  0  0  0  0  0  0  0
    1.1921  -11.3571    6.5557 C   0  0  0  0  0  0  0  0  0  0  0  0
    0.9310  -11.7375    5.2364 C   0  0  0  0  0  0  0  0  0  0  0  0
    1.3444  -10.8530    4.2399 C   0  0  0  0  0  0  0  0  0  0  0  0
    1.2463  -10.8882    2.8727 N   0  0  0  0  0  0  0  0  0  0  0  0
    2.5475   -8.3196    0.3474 C   0  0  0  0  0  0  0  0  0  0  0  0
    3.1959   -7.1602    0.7986 C   0  0  0  0  0  0  0  0  0  0  0  0
    5.5465   -5.1330    1.4428 C   0  0  0  0  0  0  0  0  0  0  0  0
    5.7777   -6.3372    2.3305 C   0  0  0  0  0  0  0  0  0  0  0  0
   10.9826   -5.2013    4.8669 H   0  0  0  0  0  0  0  0  0  0  0  0
   10.8938   -5.1146    3.0974 H   0  0  0  0  0  0  0  0  0  0  0  0
    9.9439   -6.3244    3.9761 H   0  0  0  0  0  0  0  0  0  0  0  0
    9.5488   -3.2789    4.1502 H   0  0  0  0  0  0  0  0  0  0  0  0
    8.6041   -4.4947    5.0438 H   0  0  0  0  0  0  0  0  0  0  0  0
    8.0695   -5.4736    2.9110 H   0  0  0  0  0  0  0  0  0  0  0  0
    7.3702   -2.6352    3.0390 H   0  0  0  0  0  0  0  0  0  0  0  0
    6.4882   -3.9018    3.8745 H   0  0  0  0  0  0  0  0  0  0  0  0
    6.5504   -1.8895    1.0547 H   0  0  0  0  0  0  0  0  0  0  0  0
    3.9893   -3.9550   -1.3494 H   0  0  0  0  0  0  0  0  0  0  0  0
    4.2667   -6.1601   -2.2498 H   0  0  0  0  0  0  0  0  0  0  0  0
    1.5002  -10.0959   -2.0647 H   0  0  0  0  0  0  0  0  0  0  0  0
    2.1744   -7.3460    6.7565 H   0  0  0  0  0  0  0  0  0  0  0  0
    3.1329   -7.3934    5.2602 H   0  0  0  0  0  0  0  0  0  0  0  0
    5.6342   -7.1116    7.7788 H   0  0  0  0  0  0  0  0  0  0  0  0
    4.0677   -6.2739    7.8290 H   0  0  0  0  0  0  0  0  0  0  0  0
    4.9834   -6.3925    6.2913 H   0  0  0  0  0  0  0  0  0  0  0  0
    2.0163   -9.8874    7.8925 H   0  0  0  0  0  0  0  0  0  0  0  0
    0.8865  -12.0114    7.3705 H   0  0  0  0  0  0  0  0  0  0  0  0
    0.4304  -12.6720    5.0073 H   0  0  0  0  0  0  0  0  0  0  0  0
    0.8388  -11.6175    2.3044 H   0  0  0  0  0  0  0  0  0  0  0  0
    3.1862   -6.9354    1.8609 H   0  0  0  0  0  0  0  0  0  0  0  0
    5.2613   -7.2428    2.0239 H   0  0  0  0  0  0  0  0  0  0  0  0
    5.4754   -6.1152    3.3587 H   0  0  0  0  0  0  0  0  0  0  0  0
    6.8216   -6.6477    2.2968 H   0  0  0  0  0  0  0  0  0  0  0  0
  1  2  1  0  0  0  0
  1 33  1  0  0  0  0
  1 34  1  0  0  0  0
  1 35  1  0  0  0  0
  2  3  1  0  0  0  0
  2 36  1  0  0  0  0
  2 37  1  0  0  0  0
  3  4  1  0  0  0  0
  3 38  1  0  0  0  0
  4  5  1  0  0  0  0
  4 39  1  0  0  0  0
  4 40  1  0  0  0  0
  5  6  1  0  0  0  0
  5 31  2  0  0  0  0
  6  7  2  0  0  0  0
  6 41  1  0  0  0  0
  7  8  1  0  0  0  0
  8  9  2  0  0  0  0
  8 42  1  0  0  0  0
  9 10  1  0  0  0  0
  9 31  1  0  0  0  0
 10 11  1  0  0  0  0
 10 30  2  0  0  0  0
 11 12  2  0  0  0  0
 11 43  1  0  0  0  0
 12 13  1  0  0  0  0
 13 14  1  0  0  0  0
 13 29  2  0  0  0  0
 14 15  1  0  0  0  0
 14 44  1  0  0  0  0
 15 16  2  0  0  0  0
 16 17  1  0  0  0  0
 16 29  1  0  0  0  0
 17 18  2  0  0  0  0
 17 28  1  0  0  0  0
 18 19  1  0  0  0  0
 19 20  1  0  0  0  0
 19 27  2  0  0  0  0
 20 21  1  0  0  0  0
 20 24  2  0  0  0  0
 21 22  1  0  0  0  0
 21 45  1  0  0  0  0
 21 46  1  0  0  0  0
 22 23  1  0  0  0  0
 23 47  1  0  0  0  0
 23 48  1  0  0  0  0
 23 49  1  0  0  0  0
 24 25  1  0  0  0  0
 24 50  1  0  0  0  0
 25 26  2  0  0  0  0
 25 51  1  0  0  0  0
 26 27  1  0  0  0  0
 26 52  1  0  0  0  0
 27 28  1  0  0  0  0
 28 53  1  0  0  0  0
 29 30  1  0  0  0  0
 30 54  1  0  0  0  0
 31 32  1  0  0  0  0
 32 55  1  0  0  0  0
 32 56  1  0  0  0  0
 32 57  1  0  0  0  0
M  END
$$$$
