CHEMBL3358996
 OpenBabel04072215363D

 44 46  0  0  0  0  0  0  0  0999 V2000
    1.0575   -0.3184   -0.0898 C   0  0  0  0  0  0  0  0  0  0  0  0
    2.4313    0.0281    0.0517 O   0  0  0  0  0  0  0  0  0  0  0  0
    3.1449   -0.6103    1.0341 C   0  0  0  0  0  0  0  0  0  0  0  0
    2.7699   -1.8621    1.5351 C   0  0  0  0  0  0  0  0  0  0  0  0
    3.5522   -2.5241    2.4850 C   0  0  0  0  0  0  0  0  0  0  0  0
    3.1486   -3.8502    3.0371 C   0  0  0  0  0  0  0  0  0  0  0  0
    4.0784   -4.6806    3.4290 N   0  0  0  0  0  0  0  0  0  0  0  0
    3.6969   -5.9168    3.9103 C   0  0  0  0  0  0  0  0  0  0  0  0
    4.7676   -6.8150    4.4136 C   0  0  0  0  0  0  0  0  0  0  0  0
    6.0382   -6.8042    3.8143 C   0  0  0  0  0  0  0  0  0  0  0  0
    7.0724   -7.6121    4.3018 C   0  0  0  0  0  0  0  0  0  0  0  0
    6.8382   -8.4336    5.3988 C   0  0  0  0  0  0  0  0  0  0  0  0
    7.8134   -9.2340    5.9133 O   0  0  0  0  0  0  0  0  0  0  0  0
    5.5951   -8.4573    6.0148 C   0  0  0  0  0  0  0  0  0  0  0  0
    4.5665   -7.6475    5.5283 C   0  0  0  0  0  0  0  0  0  0  0  0
    2.4154   -6.3297    3.9282 C   0  0  0  0  0  0  0  0  0  0  0  0
    1.4067   -5.4966    3.5373 N   0  0  0  0  0  0  0  0  0  0  0  0
    1.6513   -4.2093    3.1355 C   0  0  0  0  0  0  0  0  0  0  0  0
    0.7526   -3.4171    2.8916 O   0  0  0  0  0  0  0  0  0  0  0  0
    4.7686   -1.9638    2.8850 C   0  0  0  0  0  0  0  0  0  0  0  0
    5.1806   -0.7320    2.3667 C   0  0  0  0  0  0  0  0  0  0  0  0
    6.3687   -0.1405    2.7283 O   0  0  0  0  0  0  0  0  0  0  0  0
    7.4462   -1.0432    2.9634 C   0  0  0  0  0  0  0  0  0  0  0  0
    4.3441   -0.0215    1.4795 C   0  0  0  0  0  0  0  0  0  0  0  0
    4.8228    1.1970    1.0534 O   0  0  0  0  0  0  0  0  0  0  0  0
    3.8466    2.2194    0.8764 C   0  0  0  0  0  0  0  0  0  0  0  0
    0.6276    0.3346   -0.8551 H   0  0  0  0  0  0  0  0  0  0  0  0
    0.5124   -0.1494    0.8449 H   0  0  0  0  0  0  0  0  0  0  0  0
    0.9341   -1.3471   -0.4421 H   0  0  0  0  0  0  0  0  0  0  0  0
    1.8792   -2.3499    1.1597 H   0  0  0  0  0  0  0  0  0  0  0  0
    6.2310   -6.1566    2.9604 H   0  0  0  0  0  0  0  0  0  0  0  0
    8.0439   -7.5777    3.8201 H   0  0  0  0  0  0  0  0  0  0  0  0
    8.6198   -9.1196    5.3843 H   0  0  0  0  0  0  0  0  0  0  0  0
    5.4271   -9.0932    6.8787 H   0  0  0  0  0  0  0  0  0  0  0  0
    3.6130   -7.6625    6.0497 H   0  0  0  0  0  0  0  0  0  0  0  0
    2.1061   -7.3118    4.2689 H   0  0  0  0  0  0  0  0  0  0  0  0
    0.4390   -5.7799    3.6040 H   0  0  0  0  0  0  0  0  0  0  0  0
    5.3787   -2.4929    3.6111 H   0  0  0  0  0  0  0  0  0  0  0  0
    8.3778   -0.4694    2.9448 H   0  0  0  0  0  0  0  0  0  0  0  0
    7.5123   -1.8106    2.1829 H   0  0  0  0  0  0  0  0  0  0  0  0
    7.3606   -1.5018    3.9538 H   0  0  0  0  0  0  0  0  0  0  0  0
    4.3510    3.1858    0.9754 H   0  0  0  0  0  0  0  0  0  0  0  0
    3.0551    2.1811    1.6337 H   0  0  0  0  0  0  0  0  0  0  0  0
    3.4306    2.1818   -0.1345 H   0  0  0  0  0  0  0  0  0  0  0  0
  1  2  1  0  0  0  0
  1 27  1  0  0  0  0
  1 28  1  0  0  0  0
  1 29  1  0  0  0  0
  2  3  1  0  0  0  0
  3  4  1  0  0  0  0
  3 24  2  0  0  0  0
  4  5  2  0  0  0  0
  4 30  1  0  0  0  0
  5  6  1  0  0  0  0
  5 20  1  0  0  0  0
  6  7  2  0  0  0  0
  6 18  1  0  0  0  0
  7  8  1  0  0  0  0
  8  9  1  0  0  0  0
  8 16  2  0  0  0  0
  9 10  1  0  0  0  0
  9 15  2  0  0  0  0
 10 11  2  0  0  0  0
 10 31  1  0  0  0  0
 11 12  1  0  0  0  0
 11 32  1  0  0  0  0
 12 13  1  0  0  0  0
 12 14  2  0  0  0  0
 13 33  1  0  0  0  0
 14 15  1  0  0  0  0
 14 34  1  0  0  0  0
 15 35  1  0  0  0  0
 16 17  1  0  0  0  0
 16 36  1  0  0  0  0
 17 18  1  0  0  0  0
 17 37  1  0  0  0  0
 18 19  2  0  0  0  0
 20 21  2  0  0  0  0
 20 38  1  0  0  0  0
 21 22  1  0  0  0  0
 21 24  1  0  0  0  0
 22 23  1  0  0  0  0
 23 39  1  0  0  0  0
 23 40  1  0  0  0  0
 23 41  1  0  0  0  0
 24 25  1  0  0  0  0
 25 26  1  0  0  0  0
 26 42  1  0  0  0  0
 26 43  1  0  0  0  0
 26 44  1  0  0  0  0
M  END
$$$$
