CHEMBL379088
 OpenBabel04072215373D

 73 78  0  0  0  0  0  0  0  0999 V2000
   -3.3903    4.3637    2.6241 C   0  0  0  0  0  0  0  0  0  0  0  0
   -2.4139    3.3360    2.9673 N   0  0  0  0  0  0  0  0  0  0  0  0
   -3.0757    2.1349    3.5003 C   0  0  0  0  0  0  0  0  0  0  0  0
   -2.0408    1.0401    3.8430 C   0  0  0  0  0  0  0  0  0  0  0  0
   -1.2296    0.5958    2.6893 N   0  0  0  0  0  0  0  0  0  0  0  0
   -2.0037   -0.1061    1.6532 C   0  0  0  0  0  0  0  0  0  0  0  0
   -2.7128   -1.3685    2.1050 C   0  0  0  0  0  0  0  0  0  0  0  0
   -2.0650   -2.6223    1.9920 C   0  0  0  0  0  0  0  0  0  0  0  0
   -2.7399   -3.8119    2.2710 C   0  0  0  0  0  0  0  0  0  0  0  0
   -4.0446   -3.7064    2.6991 C   0  0  0  0  0  0  0  0  0  0  0  0
   -4.6992   -2.4694    2.9005 C   0  0  0  0  0  0  0  0  0  0  0  0
   -4.0391   -1.2987    2.5828 C   0  0  0  0  0  0  0  0  0  0  0  0
   -6.1218   -2.6064    3.4651 C   0  0  0  0  0  0  0  0  0  0  0  0
   -6.1908   -4.0933    3.4523 C   0  0  0  0  0  0  0  0  0  0  0  0
   -5.0006   -4.7011    3.0207 C   0  0  0  0  0  0  0  0  0  0  0  0
   -5.0350   -6.0228    3.0028 N   0  0  0  0  0  0  0  0  0  0  0  0
   -6.2834   -6.2640    3.4648 N   0  0  0  0  0  0  0  0  0  0  0  0
   -7.0316   -5.1327    3.7562 C   0  0  0  0  0  0  0  0  0  0  0  0
   -8.3446   -5.2171    4.3139 C   0  0  0  0  0  0  0  0  0  0  0  0
   -9.0569   -4.2602    5.0120 C   0  0  0  0  0  0  0  0  0  0  0  0
  -10.2545   -4.7964    5.5915 C   0  0  0  0  0  0  0  0  0  0  0  0
  -10.4369   -6.1290    5.2758 C   0  0  0  0  0  0  0  0  0  0  0  0
  -11.4139   -7.1169    5.8291 C   0  0  0  0  0  0  0  0  0  0  0  0
  -12.6296   -7.3824    5.0599 N   0  0  0  0  0  0  0  0  0  0  0  0
  -12.9658   -6.6632    3.8414 C   0  0  0  0  0  0  0  0  0  0  0  0
  -13.4012   -8.4365    5.5675 C   0  0  0  0  0  0  0  0  0  0  0  0
  -13.0861   -9.0112    6.6011 O   0  0  0  0  0  0  0  0  0  0  0  0
  -14.4968   -8.7583    4.7934 N   0  0  0  0  0  0  0  0  0  0  0  0
  -15.4598   -9.7460    5.0537 C   0  0  0  0  0  0  0  0  0  0  0  0
  -15.6152  -10.3670    6.2900 C   0  0  0  0  0  0  0  0  0  0  0  0
  -16.5475  -11.3895    6.4426 C   0  0  0  0  0  0  0  0  0  0  0  0
  -17.3342  -11.7799    5.3612 C   0  0  0  0  0  0  0  0  0  0  0  0
  -17.2309  -11.1253    4.1303 C   0  0  0  0  0  0  0  0  0  0  0  0
  -18.0313  -11.6195    3.1477 O   0  0  0  0  0  0  0  0  0  0  0  0
  -18.5157  -10.7606    2.1241 C   0  0  0  0  0  0  0  0  0  0  0  0
  -18.1737   -9.4637    2.2702 F   0  0  0  0  0  0  0  0  0  0  0  0
  -18.0585  -11.1924    0.9288 F   0  0  0  0  0  0  0  0  0  0  0  0
  -19.8658  -10.8327    2.1095 F   0  0  0  0  0  0  0  0  0  0  0  0
  -16.2851  -10.1159    3.9803 C   0  0  0  0  0  0  0  0  0  0  0  0
   -9.2249   -6.6843    4.2107 S   0  0  0  0  0  0  0  0  0  0  0  0
   -0.5944    1.8071    2.1101 C   0  0  0  0  0  0  0  0  0  0  0  0
   -1.5677    2.9829    1.8108 C   0  0  0  0  0  0  0  0  0  0  0  0
   -4.0039    4.6159    3.4967 H   0  0  0  0  0  0  0  0  0  0  0  0
   -4.0595    4.0515    1.8147 H   0  0  0  0  0  0  0  0  0  0  0  0
   -2.8827    5.2855    2.3201 H   0  0  0  0  0  0  0  0  0  0  0  0
   -3.8112    1.7577    2.7801 H   0  0  0  0  0  0  0  0  0  0  0  0
   -3.6277    2.3861    4.4135 H   0  0  0  0  0  0  0  0  0  0  0  0
   -2.5285    0.1923    4.3354 H   0  0  0  0  0  0  0  0  0  0  0  0
   -1.3561    1.4394    4.6050 H   0  0  0  0  0  0  0  0  0  0  0  0
   -1.3152   -0.3987    0.8475 H   0  0  0  0  0  0  0  0  0  0  0  0
   -2.7440    0.5413    1.1682 H   0  0  0  0  0  0  0  0  0  0  0  0
   -1.0304   -2.6690    1.6549 H   0  0  0  0  0  0  0  0  0  0  0  0
   -2.2647   -4.7793    2.1521 H   0  0  0  0  0  0  0  0  0  0  0  0
   -4.5473   -0.3477    2.6892 H   0  0  0  0  0  0  0  0  0  0  0  0
   -6.8567   -2.1381    2.8073 H   0  0  0  0  0  0  0  0  0  0  0  0
   -6.1685   -2.2111    4.4832 H   0  0  0  0  0  0  0  0  0  0  0  0
   -6.5709   -7.2267    3.5986 H   0  0  0  0  0  0  0  0  0  0  0  0
   -8.7030   -3.2505    5.1870 H   0  0  0  0  0  0  0  0  0  0  0  0
  -10.9000   -4.2450    6.2649 H   0  0  0  0  0  0  0  0  0  0  0  0
  -11.7204   -6.8002    6.8349 H   0  0  0  0  0  0  0  0  0  0  0  0
  -10.8981   -8.0772    5.9637 H   0  0  0  0  0  0  0  0  0  0  0  0
  -12.3520   -5.7784    3.6718 H   0  0  0  0  0  0  0  0  0  0  0  0
  -14.0132   -6.3379    3.8989 H   0  0  0  0  0  0  0  0  0  0  0  0
  -12.8653   -7.3480    2.9934 H   0  0  0  0  0  0  0  0  0  0  0  0
  -14.5073   -8.3891    3.8585 H   0  0  0  0  0  0  0  0  0  0  0  0
  -15.0174  -10.0812    7.1519 H   0  0  0  0  0  0  0  0  0  0  0  0
  -16.6474  -11.8890    7.4029 H   0  0  0  0  0  0  0  0  0  0  0  0
  -18.0347  -12.6026    5.4815 H   0  0  0  0  0  0  0  0  0  0  0  0
  -16.1413   -9.6291    3.0214 H   0  0  0  0  0  0  0  0  0  0  0  0
   -0.0437    1.5456    1.1979 H   0  0  0  0  0  0  0  0  0  0  0  0
    0.1662    2.1596    2.8199 H   0  0  0  0  0  0  0  0  0  0  0  0
   -2.1911    2.7227    0.9456 H   0  0  0  0  0  0  0  0  0  0  0  0
   -0.9698    3.8555    1.5226 H   0  0  0  0  0  0  0  0  0  0  0  0
  1  2  1  0  0  0  0
  1 43  1  0  0  0  0
  1 44  1  0  0  0  0
  1 45  1  0  0  0  0
  2  3  1  0  0  0  0
  2 42  1  0  0  0  0
  3  4  1  0  0  0  0
  3 46  1  0  0  0  0
  3 47  1  0  0  0  0
  4  5  1  0  0  0  0
  4 48  1  0  0  0  0
  4 49  1  0  0  0  0
  5  6  1  0  0  0  0
  5 41  1  0  0  0  0
  6  7  1  0  0  0  0
  6 50  1  0  0  0  0
  6 51  1  0  0  0  0
  7  8  1  0  0  0  0
  7 12  2  0  0  0  0
  8  9  2  0  0  0  0
  8 52  1  0  0  0  0
  9 10  1  0  0  0  0
  9 53  1  0  0  0  0
 10 11  2  0  0  0  0
 10 15  1  0  0  0  0
 11 12  1  0  0  0  0
 11 13  1  0  0  0  0
 12 54  1  0  0  0  0
 13 14  1  0  0  0  0
 13 55  1  0  0  0  0
 13 56  1  0  0  0  0
 14 15  1  0  0  0  0
 14 18  2  0  0  0  0
 15 16  2  0  0  0  0
 16 17  1  0  0  0  0
 17 18  1  0  0  0  0
 17 57  1  0  0  0  0
 18 19  1  0  0  0  0
 19 20  2  0  0  0  0
 19 40  1  0  0  0  0
 20 21  1  0  0  0  0
 20 58  1  0  0  0  0
 21 22  2  0  0  0  0
 21 59  1  0  0  0  0
 22 23  1  0  0  0  0
 22 40  1  0  0  0  0
 23 24  1  0  0  0  0
 23 60  1  0  0  0  0
 23 61  1  0  0  0  0
 24 25  1  0  0  0  0
 24 26  1  0  0  0  0
 25 62  1  0  0  0  0
 25 63  1  0  0  0  0
 25 64  1  0  0  0  0
 26 27  2  0  0  0  0
 26 28  1  0  0  0  0
 28 29  1  0  0  0  0
 28 65  1  0  0  0  0
 29 30  1  0  0  0  0
 29 39  2  0  0  0  0
 30 31  2  0  0  0  0
 30 66  1  0  0  0  0
 31 32  1  0  0  0  0
 31 67  1  0  0  0  0
 32 33  2  0  0  0  0
 32 68  1  0  0  0  0
 33 34  1  0  0  0  0
 33 39  1  0  0  0  0
 34 35  1  0  0  0  0
 35 36  1  0  0  0  0
 35 37  1  0  0  0  0
 35 38  1  0  0  0  0
 39 69  1  0  0  0  0
 41 42  1  0  0  0  0
 41 70  1  0  0  0  0
 41 71  1  0  0  0  0
 42 72  1  0  0  0  0
 42 73  1  0  0  0  0
M  END
$$$$
