CHEMBL2086728
 OpenBabel04072215363D

 44 48  0  0  0  0  0  0  0  0999 V2000
   -3.1569    0.7430   -0.0769 O   0  0  0  0  0  0  0  0  0  0  0  0
   -1.9813    0.4543   -0.1442 C   0  0  0  0  0  0  0  0  0  0  0  0
   -0.9367    1.3567   -0.0880 N   0  0  0  0  0  0  0  0  0  0  0  0
    0.2946    0.7168   -0.0842 C   0  0  0  0  0  0  0  0  0  0  0  0
    1.5266    1.3407   -0.0061 C   0  0  0  0  0  0  0  0  0  0  0  0
    2.6583    0.5287   -0.0217 C   0  0  0  0  0  0  0  0  0  0  0  0
    2.5286   -0.8635   -0.1281 C   0  0  0  0  0  0  0  0  0  0  0  0
    1.2670   -1.4705   -0.2051 C   0  0  0  0  0  0  0  0  0  0  0  0
    0.1343   -0.6704   -0.1677 C   0  0  0  0  0  0  0  0  0  0  0  0
   -1.3315   -0.9210   -0.1939 C   0  0  0  0  0  0  0  0  0  0  0  0
   -2.0259   -2.0867   -0.1707 C   0  0  0  0  0  0  0  0  0  0  0  0
   -1.3196   -3.3772   -0.0245 C   0  0  0  0  0  0  0  0  0  0  0  0
   -1.0103   -3.8478    1.2608 C   0  0  0  0  0  0  0  0  0  0  0  0
   -0.3830   -5.0817    1.4293 C   0  0  0  0  0  0  0  0  0  0  0  0
   -0.0484   -5.8630    0.3146 C   0  0  0  0  0  0  0  0  0  0  0  0
    0.6288   -7.2024    0.4835 C   0  0  0  0  0  0  0  0  0  0  0  0
    0.8645   -7.5304    1.7853 F   0  0  0  0  0  0  0  0  0  0  0  0
   -0.1023   -8.2271   -0.0329 F   0  0  0  0  0  0  0  0  0  0  0  0
    1.8398   -7.2520   -0.1366 F   0  0  0  0  0  0  0  0  0  0  0  0
   -0.3572   -5.3866   -0.9705 C   0  0  0  0  0  0  0  0  0  0  0  0
   -0.9955   -4.1546   -1.1403 C   0  0  0  0  0  0  0  0  0  0  0  0
   -3.4554   -2.0834   -0.1487 C   0  0  0  0  0  0  0  0  0  0  0  0
   -4.3617   -2.1648   -1.1044 N   0  0  0  0  0  0  0  0  0  0  0  0
   -5.5847   -2.1254   -0.4606 C   0  0  0  0  0  0  0  0  0  0  0  0
   -6.8918   -2.1231   -0.9758 C   0  0  0  0  0  0  0  0  0  0  0  0
   -7.9710   -2.0357   -0.0806 C   0  0  0  0  0  0  0  0  0  0  0  0
   -7.7575   -1.9751    1.2987 C   0  0  0  0  0  0  0  0  0  0  0  0
   -6.4669   -2.0125    1.8321 C   0  0  0  0  0  0  0  0  0  0  0  0
   -5.4152   -2.0784    0.9176 C   0  0  0  0  0  0  0  0  0  0  0  0
   -4.0593   -2.0991    1.0877 N   0  0  0  0  0  0  0  0  0  0  0  0
   -1.0883    2.3518   -0.0277 H   0  0  0  0  0  0  0  0  0  0  0  0
    1.6171    2.4188    0.0700 H   0  0  0  0  0  0  0  0  0  0  0  0
    3.6486    0.9763    0.0443 H   0  0  0  0  0  0  0  0  0  0  0  0
    3.4253   -1.4838   -0.1503 H   0  0  0  0  0  0  0  0  0  0  0  0
    1.2142   -2.5485   -0.2937 H   0  0  0  0  0  0  0  0  0  0  0  0
   -1.2606   -3.2588    2.1402 H   0  0  0  0  0  0  0  0  0  0  0  0
   -0.1631   -5.4317    2.4362 H   0  0  0  0  0  0  0  0  0  0  0  0
   -0.1095   -5.9826   -1.8482 H   0  0  0  0  0  0  0  0  0  0  0  0
   -1.2429   -3.8073   -2.1423 H   0  0  0  0  0  0  0  0  0  0  0  0
   -7.0584   -2.1689   -2.0458 H   0  0  0  0  0  0  0  0  0  0  0  0
   -8.9873   -2.0058   -0.4668 H   0  0  0  0  0  0  0  0  0  0  0  0
   -8.6083   -1.8905    1.9719 H   0  0  0  0  0  0  0  0  0  0  0  0
   -6.2948   -1.9679    2.9012 H   0  0  0  0  0  0  0  0  0  0  0  0
   -3.5793   -2.0945    1.9723 H   0  0  0  0  0  0  0  0  0  0  0  0
  1  2  2  0  0  0  0
  2  3  1  0  0  0  0
  2 10  1  0  0  0  0
  3  4  1  0  0  0  0
  3 31  1  0  0  0  0
  4  5  1  0  0  0  0
  4  9  2  0  0  0  0
  5  6  2  0  0  0  0
  5 32  1  0  0  0  0
  6  7  1  0  0  0  0
  6 33  1  0  0  0  0
  7  8  2  0  0  0  0
  7 34  1  0  0  0  0
  8  9  1  0  0  0  0
  8 35  1  0  0  0  0
  9 10  1  0  0  0  0
 10 11  2  3  0  0  0
 11 12  1  0  0  0  0
 11 22  1  0  0  0  0
 12 13  1  0  0  0  0
 12 21  2  0  0  0  0
 13 14  2  0  0  0  0
 13 36  1  0  0  0  0
 14 15  1  0  0  0  0
 14 37  1  0  0  0  0
 15 16  1  0  0  0  0
 15 20  2  0  0  0  0
 16 17  1  0  0  0  0
 16 18  1  0  0  0  0
 16 19  1  0  0  0  0
 20 21  1  0  0  0  0
 20 38  1  0  0  0  0
 21 39  1  0  0  0  0
 22 23  2  0  0  0  0
 22 30  1  0  0  0  0
 23 24  1  0  0  0  0
 24 25  1  0  0  0  0
 24 29  2  0  0  0  0
 25 26  2  0  0  0  0
 25 40  1  0  0  0  0
 26 27  1  0  0  0  0
 26 41  1  0  0  0  0
 27 28  2  0  0  0  0
 27 42  1  0  0  0  0
 28 29  1  0  0  0  0
 28 43  1  0  0  0  0
 29 30  1  0  0  0  0
 30 44  1  0  0  0  0
M  END
$$$$
