CHEMBL1970104
 OpenBabel04072215363D

 40 43  0  0  0  0  0  0  0  0999 V2000
    3.7464   -0.0222    0.9295 C   0  0  0  0  0  0  0  0  0  0  0  0
    2.5614    0.0780   -0.0485 C   0  0  0  0  0  0  0  0  0  0  0  0
    1.3531   -0.6725    0.5614 C   0  0  0  0  0  0  0  0  0  0  0  0
    2.1341    1.5604   -0.1601 C   0  0  0  0  0  0  0  0  0  0  0  0
    2.9927   -0.5122   -1.4080 C   0  0  0  0  0  0  0  0  0  0  0  0
    2.8458   -1.8903   -1.6727 C   0  0  0  0  0  0  0  0  0  0  0  0
    3.1897   -2.4588   -2.9082 C   0  0  0  0  0  0  0  0  0  0  0  0
    3.7131   -1.6305   -3.9033 C   0  0  0  0  0  0  0  0  0  0  0  0
    4.0928   -1.9367   -5.1830 N   0  0  0  0  0  0  0  0  0  0  0  0
    4.5286   -0.8039   -5.6973 C   0  0  0  0  0  0  0  0  0  0  0  0
    5.0392   -0.6234   -7.0856 C   0  0  0  0  0  0  0  0  0  0  0  0
    5.5327    0.5503   -7.5124 N   0  0  0  0  0  0  0  0  0  0  0  0
    5.8910    0.2886   -8.7852 N   0  0  0  0  0  0  0  0  0  0  0  0
    5.6238   -0.9889   -9.1996 C   0  0  0  0  0  0  0  0  0  0  0  0
    5.8237   -1.6341  -10.4247 C   0  0  0  0  0  0  0  0  0  0  0  0
    5.4168   -2.9707  -10.5148 C   0  0  0  0  0  0  0  0  0  0  0  0
    4.8430   -3.6277   -9.4264 C   0  0  0  0  0  0  0  0  0  0  0  0
    4.6617   -2.9648   -8.2085 C   0  0  0  0  0  0  0  0  0  0  0  0
    5.0599   -1.6191   -8.0968 C   0  0  0  0  0  0  0  0  0  0  0  0
    4.4522    0.2143   -4.7827 N   0  0  0  0  0  0  0  0  0  0  0  0
    3.9058   -0.2840   -3.6297 C   0  0  0  0  0  0  0  0  0  0  0  0
    3.5721    0.3056   -2.4048 C   0  0  0  0  0  0  0  0  0  0  0  0
    3.4801    0.3788    1.9144 H   0  0  0  0  0  0  0  0  0  0  0  0
    4.6150    0.5395    0.5663 H   0  0  0  0  0  0  0  0  0  0  0  0
    4.0636   -1.0621    1.0706 H   0  0  0  0  0  0  0  0  0  0  0  0
    1.0089   -0.1864    1.4819 H   0  0  0  0  0  0  0  0  0  0  0  0
    1.5967   -1.7048    0.8341 H   0  0  0  0  0  0  0  0  0  0  0  0
    0.5087   -0.6968   -0.1376 H   0  0  0  0  0  0  0  0  0  0  0  0
    1.7504    1.9350    0.7962 H   0  0  0  0  0  0  0  0  0  0  0  0
    1.3426    1.6880   -0.9081 H   0  0  0  0  0  0  0  0  0  0  0  0
    2.9684    2.2146   -0.4343 H   0  0  0  0  0  0  0  0  0  0  0  0
    2.4528   -2.5669   -0.9185 H   0  0  0  0  0  0  0  0  0  0  0  0
    3.0509   -3.5171   -3.0974 H   0  0  0  0  0  0  0  0  0  0  0  0
    6.3128    1.0326   -9.3287 H   0  0  0  0  0  0  0  0  0  0  0  0
    6.2694   -1.1285  -11.2745 H   0  0  0  0  0  0  0  0  0  0  0  0
    5.5479   -3.5084  -11.4515 H   0  0  0  0  0  0  0  0  0  0  0  0
    4.5300   -4.6648   -9.5198 H   0  0  0  0  0  0  0  0  0  0  0  0
    4.2128   -3.4774   -7.3612 H   0  0  0  0  0  0  0  0  0  0  0  0
    4.7324    1.1651   -4.9724 H   0  0  0  0  0  0  0  0  0  0  0  0
    3.7541    1.3627   -2.2517 H   0  0  0  0  0  0  0  0  0  0  0  0
  1  2  1  0  0  0  0
  1 23  1  0  0  0  0
  1 24  1  0  0  0  0
  1 25  1  0  0  0  0
  2  3  1  0  0  0  0
  2  4  1  0  0  0  0
  2  5  1  0  0  0  0
  3 26  1  0  0  0  0
  3 27  1  0  0  0  0
  3 28  1  0  0  0  0
  4 29  1  0  0  0  0
  4 30  1  0  0  0  0
  4 31  1  0  0  0  0
  5  6  1  0  0  0  0
  5 22  2  0  0  0  0
  6  7  2  0  0  0  0
  6 32  1  0  0  0  0
  7  8  1  0  0  0  0
  7 33  1  0  0  0  0
  8  9  1  0  0  0  0
  8 21  2  0  0  0  0
  9 10  2  0  0  0  0
 10 11  1  0  0  0  0
 10 20  1  0  0  0  0
 11 12  2  0  0  0  0
 11 19  1  0  0  0  0
 12 13  1  0  0  0  0
 13 14  1  0  0  0  0
 13 34  1  0  0  0  0
 14 15  1  0  0  0  0
 14 19  2  0  0  0  0
 15 16  2  0  0  0  0
 15 35  1  0  0  0  0
 16 17  1  0  0  0  0
 16 36  1  0  0  0  0
 17 18  2  0  0  0  0
 17 37  1  0  0  0  0
 18 19  1  0  0  0  0
 18 38  1  0  0  0  0
 20 21  1  0  0  0  0
 20 39  1  0  0  0  0
 21 22  1  0  0  0  0
 22 40  1  0  0  0  0
M  END
$$$$
