CHEMBL3902961
 OpenBabel04072215373D

 62 66  0  0  0  0  0  0  0  0999 V2000
    1.8714   -0.2912   -1.1719 C   0  0  0  0  0  0  0  0  0  0  0  0
    2.2864   -0.4507    0.1868 O   0  0  0  0  0  0  0  0  0  0  0  0
    3.0890   -1.5463    0.3725 C   0  0  0  0  0  0  0  0  0  0  0  0
    2.8204   -2.7914   -0.1667 C   0  0  0  0  0  0  0  0  0  0  0  0
    3.6966   -3.8482    0.0759 C   0  0  0  0  0  0  0  0  0  0  0  0
    3.4998   -5.1258   -0.3800 O   0  0  0  0  0  0  0  0  0  0  0  0
    2.1509   -5.4698   -0.6891 C   0  0  0  0  0  0  0  0  0  0  0  0
    4.8967   -3.6253    0.7760 C   0  0  0  0  0  0  0  0  0  0  0  0
    5.2303   -2.3594    1.2716 C   0  0  0  0  0  0  0  0  0  0  0  0
    6.4834   -2.0989    1.8857 N   0  0  0  0  0  0  0  0  0  0  0  0
    6.7978   -0.6573    2.1509 C   0  0  0  0  0  0  0  0  0  0  0  0
    7.1712    0.0488    0.9052 C   0  0  0  0  0  0  0  0  0  0  0  0
    7.5207    0.5249   -0.1295 C   0  0  0  0  0  0  0  0  0  0  0  0
    8.0257    0.9794   -1.3843 C   0  0  0  0  0  0  0  0  0  0  0  0
    8.1115    0.1050   -2.4554 C   0  0  0  0  0  0  0  0  0  0  0  0
    8.7473    0.5374   -3.6141 C   0  0  0  0  0  0  0  0  0  0  0  0
    8.8053   -0.2869   -4.7452 N   0  0  0  0  0  0  0  0  0  0  0  0
    9.1305    1.8729   -3.6941 C   0  0  0  0  0  0  0  0  0  0  0  0
    8.9763    2.6819   -2.5824 C   0  0  0  0  0  0  0  0  0  0  0  0
    8.4503    2.2613   -1.4137 N   0  0  0  0  0  0  0  0  0  0  0  0
    7.7063   -2.8564    1.9313 C   0  0  0  0  0  0  0  0  0  0  0  0
    8.3404   -2.8765    3.1737 C   0  0  0  0  0  0  0  0  0  0  0  0
    9.7100   -3.0325    3.2484 C   0  0  0  0  0  0  0  0  0  0  0  0
   10.4622   -3.3010    2.1317 C   0  0  0  0  0  0  0  0  0  0  0  0
   11.7798   -3.2268    2.3285 N   0  0  0  0  0  0  0  0  0  0  0  0
   12.5588   -3.6198    1.3151 C   0  0  0  0  0  0  0  0  0  0  0  0
   12.0396   -4.1606    0.1584 C   0  0  0  0  0  0  0  0  0  0  0  0
   12.9859   -4.8446   -0.7101 C   0  0  0  0  0  0  0  0  0  0  0  0
   13.3127   -6.2230   -0.8010 C   0  0  0  0  0  0  0  0  0  0  0  0
   14.3757   -6.4538   -1.5832 N   0  0  0  0  0  0  0  0  0  0  0  0
   14.7309   -5.2235   -1.9901 N   0  0  0  0  0  0  0  0  0  0  0  0
   15.5767   -5.0459   -3.1466 C   0  0  0  0  0  0  0  0  0  0  0  0
   14.0585   -4.2301   -1.3333 C   0  0  0  0  0  0  0  0  0  0  0  0
   10.6857   -4.1376   -0.0989 N   0  0  0  0  0  0  0  0  0  0  0  0
    9.8540   -3.6306    0.8945 C   0  0  0  0  0  0  0  0  0  0  0  0
    8.4427   -3.3418    0.8160 C   0  0  0  0  0  0  0  0  0  0  0  0
    4.2306   -1.3631    1.1499 C   0  0  0  0  0  0  0  0  0  0  0  0
    1.5327    0.7401   -1.3086 H   0  0  0  0  0  0  0  0  0  0  0  0
    1.0283   -0.9520   -1.3965 H   0  0  0  0  0  0  0  0  0  0  0  0
    2.6971   -0.4670   -1.8723 H   0  0  0  0  0  0  0  0  0  0  0  0
    1.9294   -2.9212   -0.7647 H   0  0  0  0  0  0  0  0  0  0  0  0
    2.1355   -6.5149   -1.0085 H   0  0  0  0  0  0  0  0  0  0  0  0
    1.7571   -4.8770   -1.5216 H   0  0  0  0  0  0  0  0  0  0  0  0
    1.5121   -5.3734    0.1962 H   0  0  0  0  0  0  0  0  0  0  0  0
    5.5676   -4.4646    0.9362 H   0  0  0  0  0  0  0  0  0  0  0  0
    7.6271   -0.5387    2.8606 H   0  0  0  0  0  0  0  0  0  0  0  0
    5.9770   -0.1555    2.6726 H   0  0  0  0  0  0  0  0  0  0  0  0
    7.7357   -0.9133   -2.3645 H   0  0  0  0  0  0  0  0  0  0  0  0
    8.7735   -1.2806   -4.5379 H   0  0  0  0  0  0  0  0  0  0  0  0
    9.5653   -0.0667   -5.3827 H   0  0  0  0  0  0  0  0  0  0  0  0
    9.5707    2.2766   -4.5972 H   0  0  0  0  0  0  0  0  0  0  0  0
    9.2936    3.7218   -2.5936 H   0  0  0  0  0  0  0  0  0  0  0  0
    7.7934   -2.6104    4.0753 H   0  0  0  0  0  0  0  0  0  0  0  0
   10.2159   -2.8848    4.1967 H   0  0  0  0  0  0  0  0  0  0  0  0
   13.6263   -3.5342    1.4872 H   0  0  0  0  0  0  0  0  0  0  0  0
   12.8445   -7.0677   -0.3104 H   0  0  0  0  0  0  0  0  0  0  0  0
   15.8466   -6.0192   -3.5642 H   0  0  0  0  0  0  0  0  0  0  0  0
   16.4702   -4.4854   -2.8645 H   0  0  0  0  0  0  0  0  0  0  0  0
   14.9927   -4.4856   -3.8830 H   0  0  0  0  0  0  0  0  0  0  0  0
   14.3636   -3.1964   -1.4166 H   0  0  0  0  0  0  0  0  0  0  0  0
    7.9532   -3.4219   -0.1532 H   0  0  0  0  0  0  0  0  0  0  0  0
    4.3210   -0.3857    1.6119 H   0  0  0  0  0  0  0  0  0  0  0  0
  1  2  1  0  0  0  0
  1 38  1  0  0  0  0
  1 39  1  0  0  0  0
  1 40  1  0  0  0  0
  2  3  1  0  0  0  0
  3  4  1  0  0  0  0
  3 37  2  0  0  0  0
  4  5  2  0  0  0  0
  4 41  1  0  0  0  0
  5  6  1  0  0  0  0
  5  8  1  0  0  0  0
  6  7  1  0  0  0  0
  7 42  1  0  0  0  0
  7 43  1  0  0  0  0
  7 44  1  0  0  0  0
  8  9  2  0  0  0  0
  8 45  1  0  0  0  0
  9 10  1  0  0  0  0
  9 37  1  0  0  0  0
 10 11  1  0  0  0  0
 10 21  1  0  0  0  0
 11 12  1  0  0  0  0
 11 46  1  0  0  0  0
 11 47  1  0  0  0  0
 12 13  3  0  0  0  0
 13 14  1  0  0  0  0
 14 15  1  0  0  0  0
 14 20  2  0  0  0  0
 15 16  2  0  0  0  0
 15 48  1  0  0  0  0
 16 17  1  0  0  0  0
 16 18  1  0  0  0  0
 17 49  1  0  0  0  0
 17 50  1  0  0  0  0
 18 19  2  0  0  0  0
 18 51  1  0  0  0  0
 19 20  1  0  0  0  0
 19 52  1  0  0  0  0
 21 22  1  0  0  0  0
 21 36  2  0  0  0  0
 22 23  2  0  0  0  0
 22 53  1  0  0  0  0
 23 24  1  0  0  0  0
 23 54  1  0  0  0  0
 24 25  1  0  0  0  0
 24 35  2  0  0  0  0
 25 26  2  0  0  0  0
 26 27  1  0  0  0  0
 26 55  1  0  0  0  0
 27 28  1  0  0  0  0
 27 34  2  0  0  0  0
 28 29  1  0  0  0  0
 28 33  2  0  0  0  0
 29 30  2  0  0  0  0
 29 56  1  0  0  0  0
 30 31  1  0  0  0  0
 31 32  1  0  0  0  0
 31 33  1  0  0  0  0
 32 57  1  0  0  0  0
 32 58  1  0  0  0  0
 32 59  1  0  0  0  0
 33 60  1  0  0  0  0
 34 35  1  0  0  0  0
 35 36  1  0  0  0  0
 36 61  1  0  0  0  0
 37 62  1  0  0  0  0
M  END
$$$$
