CHEMBL4224707
 OpenBabel04072215383D

 45 47  0  0  0  0  0  0  0  0999 V2000
    2.1494    3.7408    0.1680 C   0  0  0  0  0  0  0  0  0  0  0  0
    3.4178    3.1721   -0.2142 N   0  0  0  0  0  0  0  0  0  0  0  0
    4.2003    2.5137    0.7124 C   0  0  0  0  0  0  0  0  0  0  0  0
    3.8986    2.3955    1.8936 O   0  0  0  0  0  0  0  0  0  0  0  0
    5.4404    1.8902    0.1975 C   0  0  0  0  0  0  0  0  0  0  0  0
    6.1486    2.3845   -0.8977 C   0  0  0  0  0  0  0  0  0  0  0  0
    7.2917    1.7097   -1.3314 C   0  0  0  0  0  0  0  0  0  0  0  0
    7.6964    0.5597   -0.6591 C   0  0  0  0  0  0  0  0  0  0  0  0
    9.0982   -0.3526   -1.2869 S   0  0  0  0  0  0  0  0  0  0  0  0
    9.7785   -1.0480    0.2066 C   0  0  0  0  0  0  0  0  0  0  0  0
    9.2921   -2.2601    0.7060 C   0  0  0  0  0  0  0  0  0  0  0  0
    9.7995   -2.7781    1.8930 C   0  0  0  0  0  0  0  0  0  0  0  0
   10.8091   -2.0930    2.5613 C   0  0  0  0  0  0  0  0  0  0  0  0
   11.3641   -0.9170    2.0303 C   0  0  0  0  0  0  0  0  0  0  0  0
   12.4895   -0.4227    2.7128 N   0  0  0  0  0  0  0  0  0  0  0  0
   13.5559    0.3640    2.3204 C   0  0  0  0  0  0  0  0  0  0  0  0
   13.6170    1.5909    1.1974 S   0  0  0  0  0  0  0  0  0  0  0  0
   14.7111    0.0900    3.0426 N   0  0  0  0  0  0  0  0  0  0  0  0
   15.0799   -1.1635    3.5831 C   0  0  0  0  0  0  0  0  0  0  0  0
   14.5982   -2.3686    3.0387 C   0  0  0  0  0  0  0  0  0  0  0  0
   14.8614   -3.5882    3.6587 C   0  0  0  0  0  0  0  0  0  0  0  0
   15.6372   -3.6043    4.8079 C   0  0  0  0  0  0  0  0  0  0  0  0
   15.8465   -4.7677    5.4383 F   0  0  0  0  0  0  0  0  0  0  0  0
   16.1859   -2.4254    5.3055 C   0  0  0  0  0  0  0  0  0  0  0  0
   16.9360   -2.4516    6.4117 F   0  0  0  0  0  0  0  0  0  0  0  0
   15.9301   -1.2017    4.6856 C   0  0  0  0  0  0  0  0  0  0  0  0
   10.8304   -0.3908    0.8584 C   0  0  0  0  0  0  0  0  0  0  0  0
    7.0319    0.0772    0.4160 N   0  0  0  0  0  0  0  0  0  0  0  0
    5.9340    0.7588    0.8310 C   0  0  0  0  0  0  0  0  0  0  0  0
    1.6588    4.1356   -0.7247 H   0  0  0  0  0  0  0  0  0  0  0  0
    2.3202    4.5459    0.8874 H   0  0  0  0  0  0  0  0  0  0  0  0
    1.5255    2.9689    0.6267 H   0  0  0  0  0  0  0  0  0  0  0  0
    3.6177    3.0780   -1.2005 H   0  0  0  0  0  0  0  0  0  0  0  0
    5.8414    3.2920   -1.4079 H   0  0  0  0  0  0  0  0  0  0  0  0
    7.8519    2.0799   -2.1847 H   0  0  0  0  0  0  0  0  0  0  0  0
    8.5018   -2.7937    0.1846 H   0  0  0  0  0  0  0  0  0  0  0  0
    9.4165   -3.7144    2.2896 H   0  0  0  0  0  0  0  0  0  0  0  0
   11.2009   -2.5274    3.4821 H   0  0  0  0  0  0  0  0  0  0  0  0
   12.6587   -0.8744    3.6029 H   0  0  0  0  0  0  0  0  0  0  0  0
   15.3862    0.8451    3.0947 H   0  0  0  0  0  0  0  0  0  0  0  0
   14.0192   -2.3733    2.1168 H   0  0  0  0  0  0  0  0  0  0  0  0
   14.4594   -4.5126    3.2545 H   0  0  0  0  0  0  0  0  0  0  0  0
   16.3445   -0.2960    5.1182 H   0  0  0  0  0  0  0  0  0  0  0  0
   11.1921    0.5394    0.4429 H   0  0  0  0  0  0  0  0  0  0  0  0
    5.4389    0.3410    1.7049 H   0  0  0  0  0  0  0  0  0  0  0  0
  1  2  1  0  0  0  0
  1 30  1  0  0  0  0
  1 31  1  0  0  0  0
  1 32  1  0  0  0  0
  2  3  1  0  0  0  0
  2 33  1  0  0  0  0
  3  4  2  0  0  0  0
  3  5  1  0  0  0  0
  5  6  1  0  0  0  0
  5 29  2  0  0  0  0
  6  7  2  0  0  0  0
  6 34  1  0  0  0  0
  7  8  1  0  0  0  0
  7 35  1  0  0  0  0
  8  9  1  0  0  0  0
  8 28  2  0  0  0  0
  9 10  1  0  0  0  0
 10 11  1  0  0  0  0
 10 27  2  0  0  0  0
 11 12  2  0  0  0  0
 11 36  1  0  0  0  0
 12 13  1  0  0  0  0
 12 37  1  0  0  0  0
 13 14  2  0  0  0  0
 13 38  1  0  0  0  0
 14 15  1  0  0  0  0
 14 27  1  0  0  0  0
 15 16  1  0  0  0  0
 15 39  1  0  0  0  0
 16 17  2  0  0  0  0
 16 18  1  0  0  0  0
 18 19  1  0  0  0  0
 18 40  1  0  0  0  0
 19 20  1  0  0  0  0
 19 26  2  0  0  0  0
 20 21  2  0  0  0  0
 20 41  1  0  0  0  0
 21 22  1  0  0  0  0
 21 42  1  0  0  0  0
 22 23  1  0  0  0  0
 22 24  2  0  0  0  0
 24 25  1  0  0  0  0
 24 26  1  0  0  0  0
 26 43  1  0  0  0  0
 27 44  1  0  0  0  0
 28 29  1  0  0  0  0
 29 45  1  0  0  0  0
M  END
$$$$
