CHEMBL3589739
 OpenBabel04072215363D

 44 47  0  0  0  0  0  0  0  0999 V2000
   -2.5476    1.0570    3.3368 N   0  0  0  0  0  0  0  0  0  0  0  0
   -1.4767    0.8644    2.9343 C   0  0  0  0  0  0  0  0  0  0  0  0
   -0.1513    0.6262    2.4508 C   0  0  0  0  0  0  0  0  0  0  0  0
    0.4141   -0.6306    2.5784 C   0  0  0  0  0  0  0  0  0  0  0  0
    1.7211   -0.8442    2.1489 C   0  0  0  0  0  0  0  0  0  0  0  0
    2.4748    0.1873    1.5649 C   0  0  0  0  0  0  0  0  0  0  0  0
    3.8103    0.0323    1.1323 N   0  0  0  0  0  0  0  0  0  0  0  0
    4.5172   -1.1430    1.1948 C   0  0  0  0  0  0  0  0  0  0  0  0
    4.0485   -2.2047    1.5972 O   0  0  0  0  0  0  0  0  0  0  0  0
    5.8315   -1.0286    0.7468 N   0  0  0  0  0  0  0  0  0  0  0  0
    6.5556   -2.2323    0.5993 C   0  0  0  0  0  0  0  0  0  0  0  0
    5.8922   -3.2993    0.0116 C   0  0  0  0  0  0  0  0  0  0  0  0
    6.4381   -4.5533    0.0835 C   0  0  0  0  0  0  0  0  0  0  0  0
    7.7599   -4.7556    0.4916 C   0  0  0  0  0  0  0  0  0  0  0  0
    8.3179   -6.0417    0.3066 N   0  0  0  0  0  0  0  0  0  0  0  0
    8.0965   -6.5309   -0.8879 C   0  0  0  0  0  0  0  0  0  0  0  0
    8.1177   -5.7429   -2.2301 C   0  0  0  0  0  0  0  0  0  0  0  0
    8.9006   -4.8718   -2.5389 O   0  0  0  0  0  0  0  0  0  0  0  0
    7.0282   -6.2008   -2.9449 N   0  0  0  0  0  0  0  0  0  0  0  0
    6.2932   -7.0947   -2.1719 C   0  0  0  0  0  0  0  0  0  0  0  0
    4.9220   -7.2735   -2.2273 C   0  0  0  0  0  0  0  0  0  0  0  0
    4.3200   -7.9656   -1.1666 C   0  0  0  0  0  0  0  0  0  0  0  0
    5.0927   -8.5307   -0.1316 C   0  0  0  0  0  0  0  0  0  0  0  0
    6.4711   -8.3186   -0.0737 C   0  0  0  0  0  0  0  0  0  0  0  0
    7.0348   -7.5493   -1.0752 C   0  0  0  0  0  0  0  0  0  0  0  0
    8.4418   -3.6868    1.0693 C   0  0  0  0  0  0  0  0  0  0  0  0
    7.8350   -2.4155    1.1320 C   0  0  0  0  0  0  0  0  0  0  0  0
    1.8842    1.4429    1.4084 C   0  0  0  0  0  0  0  0  0  0  0  0
    0.5816    1.6662    1.8540 C   0  0  0  0  0  0  0  0  0  0  0  0
   -0.1363   -1.4557    3.0248 H   0  0  0  0  0  0  0  0  0  0  0  0
    2.1018   -1.8517    2.2813 H   0  0  0  0  0  0  0  0  0  0  0  0
    4.2563    0.8053    0.6584 H   0  0  0  0  0  0  0  0  0  0  0  0
    6.3384   -0.2112    1.0491 H   0  0  0  0  0  0  0  0  0  0  0  0
    4.9039   -3.1935   -0.4275 H   0  0  0  0  0  0  0  0  0  0  0  0
    5.8015   -5.3742   -0.2131 H   0  0  0  0  0  0  0  0  0  0  0  0
    6.7494   -5.8028   -3.8294 H   0  0  0  0  0  0  0  0  0  0  0  0
    4.3045   -6.7450   -2.9485 H   0  0  0  0  0  0  0  0  0  0  0  0
    3.2332   -8.0038   -1.0924 H   0  0  0  0  0  0  0  0  0  0  0  0
    4.5987   -9.0449    0.6906 H   0  0  0  0  0  0  0  0  0  0  0  0
    7.0513   -8.6110    0.7948 H   0  0  0  0  0  0  0  0  0  0  0  0
    9.4281   -3.8467    1.4950 H   0  0  0  0  0  0  0  0  0  0  0  0
    8.3456   -1.6094    1.6487 H   0  0  0  0  0  0  0  0  0  0  0  0
    2.4313    2.2626    0.9592 H   0  0  0  0  0  0  0  0  0  0  0  0
    0.1411    2.6537    1.7539 H   0  0  0  0  0  0  0  0  0  0  0  0
  1  2  3  0  0  0  0
  2  3  1  0  0  0  0
  3  4  1  0  0  0  0
  3 29  2  0  0  0  0
  4  5  2  0  0  0  0
  4 30  1  0  0  0  0
  5  6  1  0  0  0  0
  5 31  1  0  0  0  0
  6  7  1  0  0  0  0
  6 28  2  0  0  0  0
  7  8  1  0  0  0  0
  7 32  1  0  0  0  0
  8  9  2  0  0  0  0
  8 10  1  0  0  0  0
 10 11  1  0  0  0  0
 10 33  1  0  0  0  0
 11 12  1  0  0  0  0
 11 27  2  0  0  0  0
 12 13  2  0  0  0  0
 12 34  1  0  0  0  0
 13 14  1  0  0  0  0
 13 35  1  0  0  0  0
 14 15  1  0  0  0  0
 14 26  2  0  0  0  0
 15 16  2  0  0  0  0
 16 17  1  0  0  0  0
 16 25  1  0  0  0  0
 17 18  2  0  0  0  0
 17 19  1  0  0  0  0
 19 20  1  0  0  0  0
 19 36  1  0  0  0  0
 20 21  1  0  0  0  0
 20 25  2  0  0  0  0
 21 22  2  0  0  0  0
 21 37  1  0  0  0  0
 22 23  1  0  0  0  0
 22 38  1  0  0  0  0
 23 24  2  0  0  0  0
 23 39  1  0  0  0  0
 24 25  1  0  0  0  0
 24 40  1  0  0  0  0
 26 27  1  0  0  0  0
 26 41  1  0  0  0  0
 27 42  1  0  0  0  0
 28 29  1  0  0  0  0
 28 43  1  0  0  0  0
 29 44  1  0  0  0  0
M  END
$$$$
