CHEMBL4466426
 OpenBabel04072215383D

 56 60  0  0  0  0  0  0  0  0999 V2000
   -0.0355    0.0398   -1.1315 C   0  0  0  0  0  0  0  0  0  0  0  0
    1.2228   -0.4443   -0.6788 O   0  0  0  0  0  0  0  0  0  0  0  0
    2.0208   -1.0696   -1.6003 C   0  0  0  0  0  0  0  0  0  0  0  0
    2.8674   -2.0325   -1.0396 C   0  0  0  0  0  0  0  0  0  0  0  0
    3.7808   -2.7570   -1.7906 C   0  0  0  0  0  0  0  0  0  0  0  0
    4.5220   -3.6707   -1.1531 N   0  0  0  0  0  0  0  0  0  0  0  0
    5.4350   -4.3290   -1.8732 C   0  0  0  0  0  0  0  0  0  0  0  0
    5.6823   -4.1470   -3.1677 N   0  0  0  0  0  0  0  0  0  0  0  0
    4.8875   -3.2547   -3.7991 C   0  0  0  0  0  0  0  0  0  0  0  0
    5.1337   -3.0166   -5.1509 O   0  0  0  0  0  0  0  0  0  0  0  0
    5.5627   -4.0535   -5.9468 C   0  0  0  0  0  0  0  0  0  0  0  0
    5.2298   -5.3836   -5.7261 C   0  0  0  0  0  0  0  0  0  0  0  0
    5.7187   -6.3782   -6.5703 C   0  0  0  0  0  0  0  0  0  0  0  0
    6.4950   -6.0664   -7.6878 C   0  0  0  0  0  0  0  0  0  0  0  0
    7.0062   -7.0596   -8.5675 N   0  0  0  0  0  0  0  0  0  0  0  0
    6.6927   -8.4010   -8.5013 C   0  0  0  0  0  0  0  0  0  0  0  0
    5.8781   -8.8954   -7.7295 O   0  0  0  0  0  0  0  0  0  0  0  0
    7.4283   -9.1774   -9.3893 N   0  0  0  0  0  0  0  0  0  0  0  0
    7.2249  -10.5841   -9.3354 C   0  0  0  0  0  0  0  0  0  0  0  0
    5.9307  -11.1243   -9.3395 C   0  0  0  0  0  0  0  0  0  0  0  0
    5.7155  -12.4764   -9.0374 C   0  0  0  0  0  0  0  0  0  0  0  0
    4.3151  -13.0360   -8.9624 C   0  0  0  0  0  0  0  0  0  0  0  0
    3.3437  -12.1417   -9.2960 F   0  0  0  0  0  0  0  0  0  0  0  0
    4.1420  -14.0971   -9.7998 F   0  0  0  0  0  0  0  0  0  0  0  0
    3.9981  -13.4898   -7.7181 F   0  0  0  0  0  0  0  0  0  0  0  0
    6.8262  -13.2893   -8.7583 C   0  0  0  0  0  0  0  0  0  0  0  0
    8.1231  -12.7685   -8.8224 C   0  0  0  0  0  0  0  0  0  0  0  0
    8.3158  -11.4252   -9.1309 C   0  0  0  0  0  0  0  0  0  0  0  0
    9.5584  -10.9195   -9.1286 F   0  0  0  0  0  0  0  0  0  0  0  0
    6.7904   -4.7245   -7.9408 C   0  0  0  0  0  0  0  0  0  0  0  0
    6.3184   -3.7221   -7.0742 C   0  0  0  0  0  0  0  0  0  0  0  0
    3.8915   -2.4954   -3.1607 C   0  0  0  0  0  0  0  0  0  0  0  0
    3.0344   -1.5190   -3.7485 C   0  0  0  0  0  0  0  0  0  0  0  0
    2.0946   -0.8184   -2.9714 C   0  0  0  0  0  0  0  0  0  0  0  0
    1.2774    0.1406   -3.5131 O   0  0  0  0  0  0  0  0  0  0  0  0
    1.1724    0.0383   -4.9327 C   0  0  0  0  0  0  0  0  0  0  0  0
    2.5516   -0.0913   -5.5375 C   0  0  0  0  0  0  0  0  0  0  0  0
    3.1596   -1.3069   -5.1032 O   0  0  0  0  0  0  0  0  0  0  0  0
   -0.6392    0.2657   -0.2470 H   0  0  0  0  0  0  0  0  0  0  0  0
   -0.5708   -0.7167   -1.7151 H   0  0  0  0  0  0  0  0  0  0  0  0
    0.0737    0.9769   -1.6843 H   0  0  0  0  0  0  0  0  0  0  0  0
    2.8044   -2.2266    0.0299 H   0  0  0  0  0  0  0  0  0  0  0  0
    6.0251   -5.0785   -1.3573 H   0  0  0  0  0  0  0  0  0  0  0  0
    4.6075   -5.6846   -4.8891 H   0  0  0  0  0  0  0  0  0  0  0  0
    5.4655   -7.3943   -6.2923 H   0  0  0  0  0  0  0  0  0  0  0  0
    7.5378   -6.7467   -9.3666 H   0  0  0  0  0  0  0  0  0  0  0  0
    8.3962   -8.8911   -9.4758 H   0  0  0  0  0  0  0  0  0  0  0  0
    5.0749  -10.4712   -9.5130 H   0  0  0  0  0  0  0  0  0  0  0  0
    6.6788  -14.3301   -8.4728 H   0  0  0  0  0  0  0  0  0  0  0  0
    8.9800  -13.3931   -8.5900 H   0  0  0  0  0  0  0  0  0  0  0  0
    7.3818   -4.4333   -8.8034 H   0  0  0  0  0  0  0  0  0  0  0  0
    6.5506   -2.6794   -7.2781 H   0  0  0  0  0  0  0  0  0  0  0  0
    0.6790    0.9447   -5.2968 H   0  0  0  0  0  0  0  0  0  0  0  0
    0.5358   -0.8213   -5.1757 H   0  0  0  0  0  0  0  0  0  0  0  0
    3.2013    0.7450   -5.2531 H   0  0  0  0  0  0  0  0  0  0  0  0
    2.4874   -0.1215   -6.6294 H   0  0  0  0  0  0  0  0  0  0  0  0
  1  2  1  0  0  0  0
  1 39  1  0  0  0  0
  1 40  1  0  0  0  0
  1 41  1  0  0  0  0
  2  3  1  0  0  0  0
  3  4  1  0  0  0  0
  3 34  2  0  0  0  0
  4  5  2  0  0  0  0
  4 42  1  0  0  0  0
  5  6  1  0  0  0  0
  5 32  1  0  0  0  0
  6  7  2  0  0  0  0
  7  8  1  0  0  0  0
  7 43  1  0  0  0  0
  8  9  2  0  0  0  0
  9 10  1  0  0  0  0
  9 32  1  0  0  0  0
 10 11  1  0  0  0  0
 11 12  1  0  0  0  0
 11 31  2  0  0  0  0
 12 13  2  0  0  0  0
 12 44  1  0  0  0  0
 13 14  1  0  0  0  0
 13 45  1  0  0  0  0
 14 15  1  0  0  0  0
 14 30  2  0  0  0  0
 15 16  1  0  0  0  0
 15 46  1  0  0  0  0
 16 17  2  0  0  0  0
 16 18  1  0  0  0  0
 18 19  1  0  0  0  0
 18 47  1  0  0  0  0
 19 20  1  0  0  0  0
 19 28  2  0  0  0  0
 20 21  2  0  0  0  0
 20 48  1  0  0  0  0
 21 22  1  0  0  0  0
 21 26  1  0  0  0  0
 22 23  1  0  0  0  0
 22 24  1  0  0  0  0
 22 25  1  0  0  0  0
 26 27  2  0  0  0  0
 26 49  1  0  0  0  0
 27 28  1  0  0  0  0
 27 50  1  0  0  0  0
 28 29  1  0  0  0  0
 30 31  1  0  0  0  0
 30 51  1  0  0  0  0
 31 52  1  0  0  0  0
 32 33  2  0  0  0  0
 33 34  1  0  0  0  0
 33 38  1  0  0  0  0
 34 35  1  0  0  0  0
 35 36  1  0  0  0  0
 36 37  1  0  0  0  0
 36 53  1  0  0  0  0
 36 54  1  0  0  0  0
 37 38  1  0  0  0  0
 37 55  1  0  0  0  0
 37 56  1  0  0  0  0
M  END
$$$$
