CHEMBL258695
 OpenBabel04072215363D

 49 53  0  0  0  0  0  0  0  0999 V2000
   -0.4525   -2.2396   -0.2160 C   0  0  0  0  0  0  0  0  0  0  0  0
    0.0631   -0.8914    0.0805 C   0  0  0  0  0  0  0  0  0  0  0  0
   -0.4050   -0.1392    1.0797 N   0  0  0  0  0  0  0  0  0  0  0  0
    0.4583    0.9596    1.0730 O   0  0  0  0  0  0  0  0  0  0  0  0
    1.3631    0.7551    0.0580 C   0  0  0  0  0  0  0  0  0  0  0  0
    2.5212    1.6634   -0.2078 C   0  0  0  0  0  0  0  0  0  0  0  0
    2.8250    2.7042    0.6322 C   0  0  0  0  0  0  0  0  0  0  0  0
    3.9539    3.3001    0.1703 N   0  0  0  0  0  0  0  0  0  0  0  0
    4.5545    4.3171    0.8008 N   0  0  0  0  0  0  0  0  0  0  0  0
    5.5873    4.7786    0.1814 C   0  0  0  0  0  0  0  0  0  0  0  0
    6.0671    4.3435   -1.0171 N   0  0  0  0  0  0  0  0  0  0  0  0
    5.5145    3.3340   -1.6303 C   0  0  0  0  0  0  0  0  0  0  0  0
    6.0696    2.8962   -2.8152 N   0  0  0  0  0  0  0  0  0  0  0  0
    6.8997    3.7042   -3.6305 C   0  0  0  0  0  0  0  0  0  0  0  0
    6.6223    5.0554   -3.8848 C   0  0  0  0  0  0  0  0  0  0  0  0
    7.3644    5.9087   -4.6401 N   0  0  0  0  0  0  0  0  0  0  0  0
    8.4669    5.3293   -5.1355 C   0  0  0  0  0  0  0  0  0  0  0  0
    9.4226    5.9784   -5.8671 N   0  0  0  0  0  0  0  0  0  0  0  0
   10.4666    5.1244   -6.1390 C   0  0  0  0  0  0  0  0  0  0  0  0
   11.7193    5.5766   -6.7932 C   0  0  0  0  0  0  0  0  0  0  0  0
   10.1089    3.8759   -5.6630 C   0  0  0  0  0  0  0  0  0  0  0  0
    8.8620    4.0051   -4.9929 C   0  0  0  0  0  0  0  0  0  0  0  0
    8.0310    3.1538   -4.2450 C   0  0  0  0  0  0  0  0  0  0  0  0
    4.3661    2.7116   -1.0012 C   0  0  0  0  0  0  0  0  0  0  0  0
    3.4887    1.6519   -1.2864 C   0  0  0  0  0  0  0  0  0  0  0  0
    3.3794    0.6875   -2.4613 C   0  0  0  0  0  0  0  0  0  0  0  0
    2.4707    1.2507   -3.5560 C   0  0  0  0  0  0  0  0  0  0  0  0
    4.6689    0.1405   -3.0566 C   0  0  0  0  0  0  0  0  0  0  0  0
    1.1220   -0.3600   -0.5995 N   0  0  0  0  0  0  0  0  0  0  0  0
   -1.4485   -2.3951    0.2072 H   0  0  0  0  0  0  0  0  0  0  0  0
    0.2209   -2.9922    0.2073 H   0  0  0  0  0  0  0  0  0  0  0  0
   -0.5074   -2.4030   -1.2971 H   0  0  0  0  0  0  0  0  0  0  0  0
    2.3514    3.0615    1.5370 H   0  0  0  0  0  0  0  0  0  0  0  0
    6.1507    5.6022    0.6526 H   0  0  0  0  0  0  0  0  0  0  0  0
    6.4364    1.9569   -2.7279 H   0  0  0  0  0  0  0  0  0  0  0  0
    5.7350    5.5173   -3.4576 H   0  0  0  0  0  0  0  0  0  0  0  0
    9.3709    6.9582   -6.0999 H   0  0  0  0  0  0  0  0  0  0  0  0
   11.6628    6.6344   -7.0820 H   0  0  0  0  0  0  0  0  0  0  0  0
   11.9219    4.9876   -7.6901 H   0  0  0  0  0  0  0  0  0  0  0  0
   12.5593    5.4629   -6.1040 H   0  0  0  0  0  0  0  0  0  0  0  0
   10.7152    2.9848   -5.7259 H   0  0  0  0  0  0  0  0  0  0  0  0
    8.3080    2.1141   -4.1074 H   0  0  0  0  0  0  0  0  0  0  0  0
    2.8898   -0.2158   -2.0856 H   0  0  0  0  0  0  0  0  0  0  0  0
    2.8587    2.1951   -3.9513 H   0  0  0  0  0  0  0  0  0  0  0  0
    1.4630    1.4410   -3.1695 H   0  0  0  0  0  0  0  0  0  0  0  0
    2.3759    0.5441   -4.3880 H   0  0  0  0  0  0  0  0  0  0  0  0
    5.1337    0.8422   -3.7477 H   0  0  0  0  0  0  0  0  0  0  0  0
    4.4487   -0.7486   -3.6599 H   0  0  0  0  0  0  0  0  0  0  0  0
    5.3843   -0.1552   -2.2826 H   0  0  0  0  0  0  0  0  0  0  0  0
  1  2  1  0  0  0  0
  1 30  1  0  0  0  0
  1 31  1  0  0  0  0
  1 32  1  0  0  0  0
  2  3  2  0  0  0  0
  2 29  1  0  0  0  0
  3  4  1  0  0  0  0
  4  5  1  0  0  0  0
  5  6  1  0  0  0  0
  5 29  2  0  0  0  0
  6  7  2  0  0  0  0
  6 25  1  0  0  0  0
  7  8  1  0  0  0  0
  7 33  1  0  0  0  0
  8  9  1  0  0  0  0
  8 24  1  0  0  0  0
  9 10  2  0  0  0  0
 10 11  1  0  0  0  0
 10 34  1  0  0  0  0
 11 12  2  0  0  0  0
 12 13  1  0  0  0  0
 12 24  1  0  0  0  0
 13 14  1  0  0  0  0
 13 35  1  0  0  0  0
 14 15  1  0  0  0  0
 14 23  2  0  0  0  0
 15 16  2  0  0  0  0
 15 36  1  0  0  0  0
 16 17  1  0  0  0  0
 17 18  1  0  0  0  0
 17 22  2  0  0  0  0
 18 19  1  0  0  0  0
 18 37  1  0  0  0  0
 19 20  1  0  0  0  0
 19 21  2  0  0  0  0
 20 38  1  0  0  0  0
 20 39  1  0  0  0  0
 20 40  1  0  0  0  0
 21 22  1  0  0  0  0
 21 41  1  0  0  0  0
 22 23  1  0  0  0  0
 23 42  1  0  0  0  0
 24 25  2  0  0  0  0
 25 26  1  0  0  0  0
 26 27  1  0  0  0  0
 26 28  1  0  0  0  0
 26 43  1  0  0  0  0
 27 44  1  0  0  0  0
 27 45  1  0  0  0  0
 27 46  1  0  0  0  0
 28 47  1  0  0  0  0
 28 48  1  0  0  0  0
 28 49  1  0  0  0  0
M  END
$$$$
