CHEMBL253292
 OpenBabel04072215363D

 59 61  0  0  0  0  0  0  0  0999 V2000
    0.9822   -0.3213    0.0154 C   0  0  0  0  0  0  0  0  0  0  0  0
    2.4849   -0.1270   -0.1643 C   0  0  0  0  0  0  0  0  0  0  0  0
    2.9235    1.2798   -0.1882 N   0  0  0  0  0  0  0  0  0  0  0  0
    2.4889    2.0622    0.9800 C   0  0  0  0  0  0  0  0  0  0  0  0
    3.1149    1.6826    2.3183 C   0  0  0  0  0  0  0  0  0  0  0  0
    4.3808    1.3338   -0.4481 C   0  0  0  0  0  0  0  0  0  0  0  0
    4.9641    2.7477   -0.5758 C   0  0  0  0  0  0  0  0  0  0  0  0
    6.3615    2.6671   -0.8913 O   0  0  0  0  0  0  0  0  0  0  0  0
    6.9883    3.8812   -1.0088 C   0  0  0  0  0  0  0  0  0  0  0  0
    6.5583    5.0588   -0.4025 C   0  0  0  0  0  0  0  0  0  0  0  0
    7.2676    6.2443   -0.5862 C   0  0  0  0  0  0  0  0  0  0  0  0
    8.4434    6.2743   -1.3389 C   0  0  0  0  0  0  0  0  0  0  0  0
    9.2020    7.4548   -1.4887 N   0  0  0  0  0  0  0  0  0  0  0  0
    9.2840    8.5184   -0.5719 C   0  0  0  0  0  0  0  0  0  0  0  0
    9.2434    8.2773    0.7861 C   0  0  0  0  0  0  0  0  0  0  0  0
    9.3054    9.3677    1.6222 C   0  0  0  0  0  0  0  0  0  0  0  0
    9.1237    9.2255    3.0031 N   0  0  0  0  0  0  0  0  0  0  0  0
    8.0799    8.4682    3.5052 C   0  0  0  0  0  0  0  0  0  0  0  0
    7.2446    7.8998    2.8094 O   0  0  0  0  0  0  0  0  0  0  0  0
    8.0592    8.4813    4.8897 N   0  0  0  0  0  0  0  0  0  0  0  0
    7.0596    7.7909    5.6357 C   0  0  0  0  0  0  0  0  0  0  0  0
    6.7112    6.4431    5.4265 C   0  0  0  0  0  0  0  0  0  0  0  0
    7.5918    5.3856    4.3736 Cl  0  0  0  0  0  0  0  0  0  0  0  0
    5.6895    5.8514    6.1828 C   0  0  0  0  0  0  0  0  0  0  0  0
    5.0218    6.5789    7.1669 C   0  0  0  0  0  0  0  0  0  0  0  0
    5.3852    7.8996    7.4141 C   0  0  0  0  0  0  0  0  0  0  0  0
    6.4016    8.4955    6.6620 C   0  0  0  0  0  0  0  0  0  0  0  0
    6.7956   10.1491    7.0009 Cl  0  0  0  0  0  0  0  0  0  0  0  0
    9.5192   10.6124    1.1813 N   0  0  0  0  0  0  0  0  0  0  0  0
    9.5520   10.7429   -0.1535 C   0  0  0  0  0  0  0  0  0  0  0  0
    9.4483    9.7569   -1.0609 N   0  0  0  0  0  0  0  0  0  0  0  0
    8.8667    5.0937   -1.9581 C   0  0  0  0  0  0  0  0  0  0  0  0
    8.1544    3.8994   -1.7752 C   0  0  0  0  0  0  0  0  0  0  0  0
    0.7141   -1.3622   -0.1939 H   0  0  0  0  0  0  0  0  0  0  0  0
    0.4121    0.3156   -0.6688 H   0  0  0  0  0  0  0  0  0  0  0  0
    0.6675   -0.1051    1.0413 H   0  0  0  0  0  0  0  0  0  0  0  0
    2.7513   -0.5865   -1.1246 H   0  0  0  0  0  0  0  0  0  0  0  0
    3.0131   -0.6934    0.6123 H   0  0  0  0  0  0  0  0  0  0  0  0
    1.3980    2.0117    1.0733 H   0  0  0  0  0  0  0  0  0  0  0  0
    2.6736    3.1273    0.7944 H   0  0  0  0  0  0  0  0  0  0  0  0
    3.0435    0.6100    2.5169 H   0  0  0  0  0  0  0  0  0  0  0  0
    2.5935    2.2020    3.1295 H   0  0  0  0  0  0  0  0  0  0  0  0
    4.1685    1.9747    2.3646 H   0  0  0  0  0  0  0  0  0  0  0  0
    4.5967    0.8068   -1.3872 H   0  0  0  0  0  0  0  0  0  0  0  0
    4.9368    0.7902    0.3275 H   0  0  0  0  0  0  0  0  0  0  0  0
    4.8341    3.2559    0.3826 H   0  0  0  0  0  0  0  0  0  0  0  0
    4.4440    3.2950   -1.3719 H   0  0  0  0  0  0  0  0  0  0  0  0
    5.6875    5.1027    0.2417 H   0  0  0  0  0  0  0  0  0  0  0  0
    6.8856    7.1449   -0.1043 H   0  0  0  0  0  0  0  0  0  0  0  0
    9.1881    7.8229   -2.4342 H   0  0  0  0  0  0  0  0  0  0  0  0
    9.1427    7.2745    1.1799 H   0  0  0  0  0  0  0  0  0  0  0  0
    9.3750   10.0541    3.5177 H   0  0  0  0  0  0  0  0  0  0  0  0
    8.3504    9.3613    5.2938 H   0  0  0  0  0  0  0  0  0  0  0  0
    5.4247    4.8085    6.0197 H   0  0  0  0  0  0  0  0  0  0  0  0
    4.2330    6.1097    7.7502 H   0  0  0  0  0  0  0  0  0  0  0  0
    4.8700    8.4623    8.1891 H   0  0  0  0  0  0  0  0  0  0  0  0
    9.6567   11.7508   -0.5406 H   0  0  0  0  0  0  0  0  0  0  0  0
    9.7786    5.0847   -2.5484 H   0  0  0  0  0  0  0  0  0  0  0  0
    8.5161    2.9832   -2.2333 H   0  0  0  0  0  0  0  0  0  0  0  0
  1  2  1  0  0  0  0
  1 34  1  0  0  0  0
  1 35  1  0  0  0  0
  1 36  1  0  0  0  0
  2  3  1  0  0  0  0
  2 37  1  0  0  0  0
  2 38  1  0  0  0  0
  3  4  1  0  0  0  0
  3  6  1  0  0  0  0
  4  5  1  0  0  0  0
  4 39  1  0  0  0  0
  4 40  1  0  0  0  0
  5 41  1  0  0  0  0
  5 42  1  0  0  0  0
  5 43  1  0  0  0  0
  6  7  1  0  0  0  0
  6 44  1  0  0  0  0
  6 45  1  0  0  0  0
  7  8  1  0  0  0  0
  7 46  1  0  0  0  0
  7 47  1  0  0  0  0
  8  9  1  0  0  0  0
  9 10  1  0  0  0  0
  9 33  2  0  0  0  0
 10 11  2  0  0  0  0
 10 48  1  0  0  0  0
 11 12  1  0  0  0  0
 11 49  1  0  0  0  0
 12 13  1  0  0  0  0
 12 32  2  0  0  0  0
 13 14  1  0  0  0  0
 13 50  1  0  0  0  0
 14 15  1  0  0  0  0
 14 31  2  0  0  0  0
 15 16  2  0  0  0  0
 15 51  1  0  0  0  0
 16 17  1  0  0  0  0
 16 29  1  0  0  0  0
 17 18  1  0  0  0  0
 17 52  1  0  0  0  0
 18 19  2  0  0  0  0
 18 20  1  0  0  0  0
 20 21  1  0  0  0  0
 20 53  1  0  0  0  0
 21 22  1  0  0  0  0
 21 27  2  0  0  0  0
 22 23  1  0  0  0  0
 22 24  2  0  0  0  0
 24 25  1  0  0  0  0
 24 54  1  0  0  0  0
 25 26  2  0  0  0  0
 25 55  1  0  0  0  0
 26 27  1  0  0  0  0
 26 56  1  0  0  0  0
 27 28  1  0  0  0  0
 29 30  2  0  0  0  0
 30 31  1  0  0  0  0
 30 57  1  0  0  0  0
 32 33  1  0  0  0  0
 32 58  1  0  0  0  0
 33 59  1  0  0  0  0
M  END
$$$$
