CHEMBL401040
 OpenBabel04072215373D

 44 46  0  0  0  0  0  0  0  0999 V2000
   -2.0996   -0.0653   -0.0890 C   0  0  0  0  0  0  0  0  0  0  0  0
   -0.6535   -0.1629   -0.0699 N   0  0  0  0  0  0  0  0  0  0  0  0
    0.0668    0.9739    0.0006 N   0  0  0  0  0  0  0  0  0  0  0  0
    1.3202    0.5382    0.0884 C   0  0  0  0  0  0  0  0  0  0  0  0
    1.4081   -0.8695    0.0799 C   0  0  0  0  0  0  0  0  0  0  0  0
    2.5769   -1.5643    0.1617 N   0  0  0  0  0  0  0  0  0  0  0  0
    2.8564   -2.7352   -0.6597 C   0  0  0  0  0  0  0  0  0  0  0  0
    3.3352   -3.8904    0.1904 C   0  0  0  0  0  0  0  0  0  0  0  0
    3.0132   -5.2011   -0.1740 C   0  0  0  0  0  0  0  0  0  0  0  0
    3.4450   -6.2472    0.6300 C   0  0  0  0  0  0  0  0  0  0  0  0
    4.1935   -6.0827    1.7374 N   0  0  0  0  0  0  0  0  0  0  0  0
    4.5251   -4.8163    2.0592 C   0  0  0  0  0  0  0  0  0  0  0  0
    4.1319   -3.7034    1.3281 C   0  0  0  0  0  0  0  0  0  0  0  0
    0.1049   -1.3139   -0.0242 C   0  0  0  0  0  0  0  0  0  0  0  0
   -0.4816   -2.6335   -0.1013 C   0  0  0  0  0  0  0  0  0  0  0  0
   -1.4579   -2.8562   -0.8151 O   0  0  0  0  0  0  0  0  0  0  0  0
    0.0741   -3.5756    0.7377 N   0  0  0  0  0  0  0  0  0  0  0  0
   -0.3413   -4.9220    0.7730 C   0  0  0  0  0  0  0  0  0  0  0  0
   -0.6569   -5.6263   -0.3947 C   0  0  0  0  0  0  0  0  0  0  0  0
   -1.0893   -6.9577   -0.3354 C   0  0  0  0  0  0  0  0  0  0  0  0
   -1.2191   -7.5894    0.8980 C   0  0  0  0  0  0  0  0  0  0  0  0
   -1.6674   -8.8544    1.1199 O   0  0  0  0  0  0  0  0  0  0  0  0
   -1.5074   -9.8475    0.1196 C   0  0  0  0  0  0  0  0  0  0  0  0
   -0.5757   -9.5417   -0.8082 F   0  0  0  0  0  0  0  0  0  0  0  0
   -1.1205  -10.9941    0.7248 F   0  0  0  0  0  0  0  0  0  0  0  0
   -2.6869  -10.0746   -0.4952 F   0  0  0  0  0  0  0  0  0  0  0  0
   -0.9122   -6.8768    2.0628 C   0  0  0  0  0  0  0  0  0  0  0  0
   -0.4337   -5.5651    2.0031 C   0  0  0  0  0  0  0  0  0  0  0  0
   -2.3935    0.9842    0.0002 H   0  0  0  0  0  0  0  0  0  0  0  0
   -2.4954   -0.6257    0.7635 H   0  0  0  0  0  0  0  0  0  0  0  0
   -2.4668   -0.4690   -1.0337 H   0  0  0  0  0  0  0  0  0  0  0  0
    2.1201    1.2655    0.1378 H   0  0  0  0  0  0  0  0  0  0  0  0
    3.4209   -1.0024    0.2550 H   0  0  0  0  0  0  0  0  0  0  0  0
    3.6430   -2.4880   -1.3832 H   0  0  0  0  0  0  0  0  0  0  0  0
    1.9805   -3.0372   -1.2512 H   0  0  0  0  0  0  0  0  0  0  0  0
    2.4125   -5.4132   -1.0524 H   0  0  0  0  0  0  0  0  0  0  0  0
    3.1838   -7.2748    0.3906 H   0  0  0  0  0  0  0  0  0  0  0  0
    5.1360   -4.7105    2.9501 H   0  0  0  0  0  0  0  0  0  0  0  0
    4.4337   -2.7177    1.6561 H   0  0  0  0  0  0  0  0  0  0  0  0
    0.6493   -3.2290    1.4985 H   0  0  0  0  0  0  0  0  0  0  0  0
   -0.5458   -5.1547   -1.3686 H   0  0  0  0  0  0  0  0  0  0  0  0
   -1.3308   -7.4549   -1.2706 H   0  0  0  0  0  0  0  0  0  0  0  0
   -1.0531   -7.3482    3.0332 H   0  0  0  0  0  0  0  0  0  0  0  0
   -0.2058   -5.0424    2.9275 H   0  0  0  0  0  0  0  0  0  0  0  0
  1  2  1  0  0  0  0
  1 29  1  0  0  0  0
  1 30  1  0  0  0  0
  1 31  1  0  0  0  0
  2  3  1  0  0  0  0
  2 14  1  0  0  0  0
  3  4  2  0  0  0  0
  4  5  1  0  0  0  0
  4 32  1  0  0  0  0
  5  6  1  0  0  0  0
  5 14  2  0  0  0  0
  6  7  1  0  0  0  0
  6 33  1  0  0  0  0
  7  8  1  0  0  0  0
  7 34  1  0  0  0  0
  7 35  1  0  0  0  0
  8  9  1  0  0  0  0
  8 13  2  0  0  0  0
  9 10  2  0  0  0  0
  9 36  1  0  0  0  0
 10 11  1  0  0  0  0
 10 37  1  0  0  0  0
 11 12  2  0  0  0  0
 12 13  1  0  0  0  0
 12 38  1  0  0  0  0
 13 39  1  0  0  0  0
 14 15  1  0  0  0  0
 15 16  2  0  0  0  0
 15 17  1  0  0  0  0
 17 18  1  0  0  0  0
 17 40  1  0  0  0  0
 18 19  1  0  0  0  0
 18 28  2  0  0  0  0
 19 20  2  0  0  0  0
 19 41  1  0  0  0  0
 20 21  1  0  0  0  0
 20 42  1  0  0  0  0
 21 22  1  0  0  0  0
 21 27  2  0  0  0  0
 22 23  1  0  0  0  0
 23 24  1  0  0  0  0
 23 25  1  0  0  0  0
 23 26  1  0  0  0  0
 27 28  1  0  0  0  0
 27 43  1  0  0  0  0
 28 44  1  0  0  0  0
M  END
$$$$
