CHEMBL3949308
 OpenBabel04072215373D

 51 54  0  0  0  0  0  0  0  0999 V2000
    1.2768    0.4491   -0.5785 O   0  0  0  0  0  0  0  0  0  0  0  0
    2.3609    0.0608   -0.1646 C   0  0  0  0  0  0  0  0  0  0  0  0
    2.8790   -1.2062   -0.4054 N   0  0  0  0  0  0  0  0  0  0  0  0
    2.1931   -2.2204   -1.1240 C   0  0  0  0  0  0  0  0  0  0  0  0
    1.0903   -1.9509   -1.9377 C   0  0  0  0  0  0  0  0  0  0  0  0
    0.3455   -2.9801   -2.5098 C   0  0  0  0  0  0  0  0  0  0  0  0
    0.7363   -4.3061   -2.3487 C   0  0  0  0  0  0  0  0  0  0  0  0
    0.0134   -5.3708   -2.8445 O   0  0  0  0  0  0  0  0  0  0  0  0
   -0.6219   -5.2105   -4.0737 C   0  0  0  0  0  0  0  0  0  0  0  0
   -1.7496   -5.9717   -4.3034 C   0  0  0  0  0  0  0  0  0  0  0  0
   -2.3286   -5.8188   -5.5467 C   0  0  0  0  0  0  0  0  0  0  0  0
   -3.4247   -6.6320   -5.8814 N   0  0  0  0  0  0  0  0  0  0  0  0
   -4.0124   -6.6510   -7.1302 C   0  0  0  0  0  0  0  0  0  0  0  0
   -3.7622   -5.9374   -8.0897 O   0  0  0  0  0  0  0  0  0  0  0  0
   -5.0309   -7.7388   -7.2854 C   0  0  0  0  0  0  0  0  0  0  0  0
   -4.7651   -8.8349   -8.2958 C   0  0  0  0  0  0  0  0  0  0  0  0
   -5.8604   -7.8415   -8.5477 C   0  0  0  0  0  0  0  0  0  0  0  0
   -1.8500   -4.9556   -6.4493 N   0  0  0  0  0  0  0  0  0  0  0  0
   -0.7501   -4.2732   -6.1300 C   0  0  0  0  0  0  0  0  0  0  0  0
   -0.0831   -4.3808   -4.9831 N   0  0  0  0  0  0  0  0  0  0  0  0
    1.8700   -4.5901   -1.5826 C   0  0  0  0  0  0  0  0  0  0  0  0
    2.6020   -3.5517   -0.9800 C   0  0  0  0  0  0  0  0  0  0  0  0
    3.1945    0.8313    0.6312 N   0  0  0  0  0  0  0  0  0  0  0  0
    2.8918    2.1249    1.1283 C   0  0  0  0  0  0  0  0  0  0  0  0
    1.6951    2.7966    0.8739 C   0  0  0  0  0  0  0  0  0  0  0  0
    1.4623    4.0753    1.3825 C   0  0  0  0  0  0  0  0  0  0  0  0
    2.4152    4.7071    2.1792 C   0  0  0  0  0  0  0  0  0  0  0  0
    2.0231    6.2917    2.7323 Cl  0  0  0  0  0  0  0  0  0  0  0  0
    3.6115    4.0520    2.4833 C   0  0  0  0  0  0  0  0  0  0  0  0
    4.6782    4.6126    3.3858 C   0  0  0  0  0  0  0  0  0  0  0  0
    4.4530    5.8423    3.9133 F   0  0  0  0  0  0  0  0  0  0  0  0
    4.9012    3.7949    4.4566 F   0  0  0  0  0  0  0  0  0  0  0  0
    5.8818    4.7026    2.7494 F   0  0  0  0  0  0  0  0  0  0  0  0
    3.8409    2.7631    1.9332 C   0  0  0  0  0  0  0  0  0  0  0  0
    3.6647   -1.5041    0.1518 H   0  0  0  0  0  0  0  0  0  0  0  0
    0.7626   -0.9397   -2.1528 H   0  0  0  0  0  0  0  0  0  0  0  0
   -0.5365   -2.7134   -3.0845 H   0  0  0  0  0  0  0  0  0  0  0  0
   -2.1304   -6.6454   -3.5512 H   0  0  0  0  0  0  0  0  0  0  0  0
   -3.7422   -7.2981   -5.1957 H   0  0  0  0  0  0  0  0  0  0  0  0
   -5.5390   -8.0309   -6.3721 H   0  0  0  0  0  0  0  0  0  0  0  0
   -5.0466   -9.8493   -8.0421 H   0  0  0  0  0  0  0  0  0  0  0  0
   -3.8753   -8.7602   -8.9139 H   0  0  0  0  0  0  0  0  0  0  0  0
   -6.8858   -8.1796   -8.4616 H   0  0  0  0  0  0  0  0  0  0  0  0
   -5.7059   -7.1031   -9.3287 H   0  0  0  0  0  0  0  0  0  0  0  0
   -0.3703   -3.5767   -6.8675 H   0  0  0  0  0  0  0  0  0  0  0  0
    2.1821   -5.6215   -1.4412 H   0  0  0  0  0  0  0  0  0  0  0  0
    3.4680   -3.8075   -0.3761 H   0  0  0  0  0  0  0  0  0  0  0  0
    4.1078    0.4584    0.8416 H   0  0  0  0  0  0  0  0  0  0  0  0
    0.8985    2.3671    0.2753 H   0  0  0  0  0  0  0  0  0  0  0  0
    0.5195    4.5669    1.1490 H   0  0  0  0  0  0  0  0  0  0  0  0
    4.7804    2.2606    2.1627 H   0  0  0  0  0  0  0  0  0  0  0  0
  1  2  2  0  0  0  0
  2  3  1  0  0  0  0
  2 23  1  0  0  0  0
  3  4  1  0  0  0  0
  3 35  1  0  0  0  0
  4  5  1  0  0  0  0
  4 22  2  0  0  0  0
  5  6  2  0  0  0  0
  5 36  1  0  0  0  0
  6  7  1  0  0  0  0
  6 37  1  0  0  0  0
  7  8  1  0  0  0  0
  7 21  2  0  0  0  0
  8  9  1  0  0  0  0
  9 10  1  0  0  0  0
  9 20  2  0  0  0  0
 10 11  2  0  0  0  0
 10 38  1  0  0  0  0
 11 12  1  0  0  0  0
 11 18  1  0  0  0  0
 12 13  1  0  0  0  0
 12 39  1  0  0  0  0
 13 14  2  0  0  0  0
 13 15  1  0  0  0  0
 15 16  1  0  0  0  0
 15 17  1  0  0  0  0
 15 40  1  0  0  0  0
 16 17  1  0  0  0  0
 16 41  1  0  0  0  0
 16 42  1  0  0  0  0
 17 43  1  0  0  0  0
 17 44  1  0  0  0  0
 18 19  2  0  0  0  0
 19 20  1  0  0  0  0
 19 45  1  0  0  0  0
 21 22  1  0  0  0  0
 21 46  1  0  0  0  0
 22 47  1  0  0  0  0
 23 24  1  0  0  0  0
 23 48  1  0  0  0  0
 24 25  1  0  0  0  0
 24 34  2  0  0  0  0
 25 26  2  0  0  0  0
 25 49  1  0  0  0  0
 26 27  1  0  0  0  0
 26 50  1  0  0  0  0
 27 28  1  0  0  0  0
 27 29  2  0  0  0  0
 29 30  1  0  0  0  0
 29 34  1  0  0  0  0
 30 31  1  0  0  0  0
 30 32  1  0  0  0  0
 30 33  1  0  0  0  0
 34 51  1  0  0  0  0
M  END
$$$$
