CHEMBL1940854
 OpenBabel04072215363D

 39 41  0  0  0  0  0  0  0  0999 V2000
    1.0365   -1.7980   -1.1184 C   0  0  0  0  0  0  0  0  0  0  0  0
    2.5302   -1.6679   -1.0871 C   0  0  0  0  0  0  0  0  0  0  0  0
    3.2742   -1.6658   -2.2673 C   0  0  0  0  0  0  0  0  0  0  0  0
    4.6497   -1.4519   -2.2226 C   0  0  0  0  0  0  0  0  0  0  0  0
    5.3073   -1.3359   -0.9887 C   0  0  0  0  0  0  0  0  0  0  0  0
    6.6998   -1.2053   -0.9163 C   0  0  0  0  0  0  0  0  0  0  0  0
    7.3380   -1.1996    0.3239 C   0  0  0  0  0  0  0  0  0  0  0  0
    8.8008   -1.1761    0.3592 C   0  0  0  0  0  0  0  0  0  0  0  0
    9.5060   -2.3171    0.3185 C   0  0  0  0  0  0  0  0  0  0  0  0
   10.9972   -2.2719    0.3032 C   0  0  0  0  0  0  0  0  0  0  0  0
   11.6090   -1.2797   -0.0633 O   0  0  0  0  0  0  0  0  0  0  0  0
   11.6308   -3.5337    0.7098 C   0  0  0  0  0  0  0  0  0  0  0  0
   11.1184   -4.4747    1.6727 C   0  0  0  0  0  0  0  0  0  0  0  0
   11.9540   -5.5499    1.8763 C   0  0  0  0  0  0  0  0  0  0  0  0
   11.7679   -6.7055    2.7991 C   0  0  0  0  0  0  0  0  0  0  0  0
   13.3534   -5.4472    0.9082 S   0  0  0  0  0  0  0  0  0  0  0  0
   12.8581   -3.9575    0.2215 C   0  0  0  0  0  0  0  0  0  0  0  0
   13.7400   -3.2924   -0.7919 C   0  0  0  0  0  0  0  0  0  0  0  0
    6.5219   -1.2819    1.4496 C   0  0  0  0  0  0  0  0  0  0  0  0
    7.1601   -1.3675    3.0478 Cl  0  0  0  0  0  0  0  0  0  0  0  0
    5.1713   -1.3502    1.4195 N   0  0  0  0  0  0  0  0  0  0  0  0
    4.5762   -1.3902    0.2167 C   0  0  0  0  0  0  0  0  0  0  0  0
    3.1952   -1.5120    0.1395 C   0  0  0  0  0  0  0  0  0  0  0  0
    0.6743   -2.0031   -2.1312 H   0  0  0  0  0  0  0  0  0  0  0  0
    0.5794   -0.8633   -0.7793 H   0  0  0  0  0  0  0  0  0  0  0  0
    0.7073   -2.6178   -0.4723 H   0  0  0  0  0  0  0  0  0  0  0  0
    2.7901   -1.8270   -3.2280 H   0  0  0  0  0  0  0  0  0  0  0  0
    5.2067   -1.4015   -3.1556 H   0  0  0  0  0  0  0  0  0  0  0  0
    7.2892   -1.1455   -1.8293 H   0  0  0  0  0  0  0  0  0  0  0  0
    9.2784   -0.1997    0.4066 H   0  0  0  0  0  0  0  0  0  0  0  0
    9.0311   -3.2889    0.2731 H   0  0  0  0  0  0  0  0  0  0  0  0
   10.1821   -4.3581    2.2113 H   0  0  0  0  0  0  0  0  0  0  0  0
   10.8126   -6.6305    3.3303 H   0  0  0  0  0  0  0  0  0  0  0  0
   12.5654   -6.7357    3.5492 H   0  0  0  0  0  0  0  0  0  0  0  0
   11.7693   -7.6508    2.2475 H   0  0  0  0  0  0  0  0  0  0  0  0
   14.6400   -3.8737   -1.0037 H   0  0  0  0  0  0  0  0  0  0  0  0
   14.0583   -2.3056   -0.4358 H   0  0  0  0  0  0  0  0  0  0  0  0
   13.1944   -3.1639   -1.7329 H   0  0  0  0  0  0  0  0  0  0  0  0
    2.6233   -1.5043    1.0658 H   0  0  0  0  0  0  0  0  0  0  0  0
  1  2  1  0  0  0  0
  1 24  1  0  0  0  0
  1 25  1  0  0  0  0
  1 26  1  0  0  0  0
  2  3  1  0  0  0  0
  2 23  2  0  0  0  0
  3  4  2  0  0  0  0
  3 27  1  0  0  0  0
  4  5  1  0  0  0  0
  4 28  1  0  0  0  0
  5  6  1  0  0  0  0
  5 22  2  0  0  0  0
  6  7  2  0  0  0  0
  6 29  1  0  0  0  0
  7  8  1  0  0  0  0
  7 19  1  0  0  0  0
  8  9  2  0  0  0  0
  8 30  1  0  0  0  0
  9 10  1  0  0  0  0
  9 31  1  0  0  0  0
 10 11  2  0  0  0  0
 10 12  1  0  0  0  0
 12 13  1  0  0  0  0
 12 17  2  0  0  0  0
 13 14  2  0  0  0  0
 13 32  1  0  0  0  0
 14 15  1  0  0  0  0
 14 16  1  0  0  0  0
 15 33  1  0  0  0  0
 15 34  1  0  0  0  0
 15 35  1  0  0  0  0
 16 17  1  0  0  0  0
 17 18  1  0  0  0  0
 18 36  1  0  0  0  0
 18 37  1  0  0  0  0
 18 38  1  0  0  0  0
 19 20  1  0  0  0  0
 19 21  2  0  0  0  0
 21 22  1  0  0  0  0
 22 23  1  0  0  0  0
 23 39  1  0  0  0  0
M  END
$$$$
