CHEMBL2023228
 OpenBabel04072215363D

 52 56  0  0  0  0  0  0  0  0999 V2000
   -2.1237    1.0088    0.9217 C   0  0  0  0  0  0  0  0  0  0  0  0
   -0.6944    0.8783    1.0534 N   0  0  0  0  0  0  0  0  0  0  0  0
   -0.0177    0.1940    2.0197 C   0  0  0  0  0  0  0  0  0  0  0  0
    1.3245    0.3201    1.7161 C   0  0  0  0  0  0  0  0  0  0  0  0
    2.3982   -0.2672    2.5024 C   0  0  0  0  0  0  0  0  0  0  0  0
    2.3037   -0.3846    3.8765 C   0  0  0  0  0  0  0  0  0  0  0  0
    3.2577   -0.8946    4.6684 N   0  0  0  0  0  0  0  0  0  0  0  0
    4.4125   -1.3363    4.1354 C   0  0  0  0  0  0  0  0  0  0  0  0
    5.3090   -1.7881    5.0924 N   0  0  0  0  0  0  0  0  0  0  0  0
    4.6251   -1.2989    2.7232 C   0  0  0  0  0  0  0  0  0  0  0  0
    5.7584   -1.7330    1.8777 C   0  0  0  0  0  0  0  0  0  0  0  0
    7.0251   -2.3726    2.2601 C   0  0  0  0  0  0  0  0  0  0  0  0
    7.0454   -3.3200    3.2777 C   0  0  0  0  0  0  0  0  0  0  0  0
    8.2472   -3.8479    3.7397 C   0  0  0  0  0  0  0  0  0  0  0  0
    9.4542   -3.5575    3.1035 C   0  0  0  0  0  0  0  0  0  0  0  0
   10.6755   -4.1306    3.5167 N   0  0  0  0  0  0  0  0  0  0  0  0
   10.7678   -5.2714    4.2965 C   0  0  0  0  0  0  0  0  0  0  0  0
    9.8235   -5.9983    4.5849 O   0  0  0  0  0  0  0  0  0  0  0  0
   12.0583   -5.4899    4.7430 N   0  0  0  0  0  0  0  0  0  0  0  0
   12.3857   -6.6433    5.4884 C   0  0  0  0  0  0  0  0  0  0  0  0
   11.8360   -7.8981    5.1721 C   0  0  0  0  0  0  0  0  0  0  0  0
   12.1448   -9.0189    5.9419 C   0  0  0  0  0  0  0  0  0  0  0  0
   12.9972   -8.8928    7.0354 C   0  0  0  0  0  0  0  0  0  0  0  0
   13.5440   -7.6477    7.3465 C   0  0  0  0  0  0  0  0  0  0  0  0
   14.5610   -7.4887    8.7260 Cl  0  0  0  0  0  0  0  0  0  0  0  0
   13.2605   -6.5260    6.5667 C   0  0  0  0  0  0  0  0  0  0  0  0
    9.4444   -2.6645    2.0301 C   0  0  0  0  0  0  0  0  0  0  0  0
    8.2403   -2.0673    1.6209 C   0  0  0  0  0  0  0  0  0  0  0  0
    5.5121   -1.5084    0.5396 C   0  0  0  0  0  0  0  0  0  0  0  0
    4.0008   -0.8202    0.2497 S   0  0  0  0  0  0  0  0  0  0  0  0
    3.5913   -0.7573    1.9290 C   0  0  0  0  0  0  0  0  0  0  0  0
    1.3338    1.1314    0.5627 C   0  0  0  0  0  0  0  0  0  0  0  0
    0.1088    1.4662    0.1506 N   0  0  0  0  0  0  0  0  0  0  0  0
   -2.6098    0.5868    1.8032 H   0  0  0  0  0  0  0  0  0  0  0  0
   -2.4328    0.4655    0.0248 H   0  0  0  0  0  0  0  0  0  0  0  0
   -2.3696    2.0704    0.8335 H   0  0  0  0  0  0  0  0  0  0  0  0
   -0.5415   -0.3219    2.8126 H   0  0  0  0  0  0  0  0  0  0  0  0
    1.4250   -0.0397    4.4170 H   0  0  0  0  0  0  0  0  0  0  0  0
    4.9663   -1.5487    6.0166 H   0  0  0  0  0  0  0  0  0  0  0  0
    6.2748   -1.5518    4.9109 H   0  0  0  0  0  0  0  0  0  0  0  0
    6.1291   -3.6556    3.7570 H   0  0  0  0  0  0  0  0  0  0  0  0
    8.1970   -4.4901    4.6134 H   0  0  0  0  0  0  0  0  0  0  0  0
   11.5093   -3.8689    3.0155 H   0  0  0  0  0  0  0  0  0  0  0  0
   12.5800   -4.6481    4.9434 H   0  0  0  0  0  0  0  0  0  0  0  0
   11.1588   -8.0118    4.3316 H   0  0  0  0  0  0  0  0  0  0  0  0
   11.7060   -9.9810    5.6916 H   0  0  0  0  0  0  0  0  0  0  0  0
   13.2215   -9.7642    7.6439 H   0  0  0  0  0  0  0  0  0  0  0  0
   13.6754   -5.5620    6.8421 H   0  0  0  0  0  0  0  0  0  0  0  0
   10.3570   -2.4284    1.4895 H   0  0  0  0  0  0  0  0  0  0  0  0
    8.2713   -1.3658    0.7901 H   0  0  0  0  0  0  0  0  0  0  0  0
    6.1473   -1.7370   -0.3058 H   0  0  0  0  0  0  0  0  0  0  0  0
    2.1811    1.4988   -0.0055 H   0  0  0  0  0  0  0  0  0  0  0  0
  1  2  1  0  0  0  0
  1 34  1  0  0  0  0
  1 35  1  0  0  0  0
  1 36  1  0  0  0  0
  2  3  1  0  0  0  0
  2 33  1  0  0  0  0
  3  4  2  0  0  0  0
  3 37  1  0  0  0  0
  4  5  1  0  0  0  0
  4 32  1  0  0  0  0
  5  6  1  0  0  0  0
  5 31  2  0  0  0  0
  6  7  2  0  0  0  0
  6 38  1  0  0  0  0
  7  8  1  0  0  0  0
  8  9  1  0  0  0  0
  8 10  2  0  0  0  0
  9 39  1  0  0  0  0
  9 40  1  0  0  0  0
 10 11  1  0  0  0  0
 10 31  1  0  0  0  0
 11 12  1  0  0  0  0
 11 29  2  0  0  0  0
 12 13  1  0  0  0  0
 12 28  2  0  0  0  0
 13 14  2  0  0  0  0
 13 41  1  0  0  0  0
 14 15  1  0  0  0  0
 14 42  1  0  0  0  0
 15 16  1  0  0  0  0
 15 27  2  0  0  0  0
 16 17  1  0  0  0  0
 16 43  1  0  0  0  0
 17 18  2  0  0  0  0
 17 19  1  0  0  0  0
 19 20  1  0  0  0  0
 19 44  1  0  0  0  0
 20 21  1  0  0  0  0
 20 26  2  0  0  0  0
 21 22  2  0  0  0  0
 21 45  1  0  0  0  0
 22 23  1  0  0  0  0
 22 46  1  0  0  0  0
 23 24  2  0  0  0  0
 23 47  1  0  0  0  0
 24 25  1  0  0  0  0
 24 26  1  0  0  0  0
 26 48  1  0  0  0  0
 27 28  1  0  0  0  0
 27 49  1  0  0  0  0
 28 50  1  0  0  0  0
 29 30  1  0  0  0  0
 29 51  1  0  0  0  0
 30 31  1  0  0  0  0
 32 33  2  0  0  0  0
 32 52  1  0  0  0  0
M  END
$$$$
