CHEMBL3935838
 OpenBabel04072215373D

 60 63  0  0  0  0  0  0  0  0999 V2000
    7.6519   -3.6279   -5.6295 C   0  0  0  0  0  0  0  0  0  0  0  0
    7.7744   -2.4500   -4.8301 O   0  0  0  0  0  0  0  0  0  0  0  0
    6.9588   -1.3871   -5.1469 C   0  0  0  0  0  0  0  0  0  0  0  0
    6.0393   -1.4028   -6.1976 C   0  0  0  0  0  0  0  0  0  0  0  0
    5.2236   -0.3004   -6.4228 C   0  0  0  0  0  0  0  0  0  0  0  0
    4.2610   -0.2040   -7.3925 O   0  0  0  0  0  0  0  0  0  0  0  0
    4.1511   -1.2946   -8.2995 C   0  0  0  0  0  0  0  0  0  0  0  0
    5.3314    0.8223   -5.5937 C   0  0  0  0  0  0  0  0  0  0  0  0
    6.2382    0.8896   -4.5214 C   0  0  0  0  0  0  0  0  0  0  0  0
    6.1961    1.9428   -3.5645 N   0  0  0  0  0  0  0  0  0  0  0  0
    4.8160    2.5181   -3.2939 C   0  0  0  0  0  0  0  0  0  0  0  0
    3.7322    1.5324   -2.8197 C   0  0  0  0  0  0  0  0  0  0  0  0
    3.9852    1.0419   -1.5040 O   0  0  0  0  0  0  0  0  0  0  0  0
    7.1629    2.9634   -3.2295 C   0  0  0  0  0  0  0  0  0  0  0  0
    7.1467    3.3270   -1.8749 C   0  0  0  0  0  0  0  0  0  0  0  0
    7.4356    4.6157   -1.5301 C   0  0  0  0  0  0  0  0  0  0  0  0
    7.9484    5.5030   -2.4295 C   0  0  0  0  0  0  0  0  0  0  0  0
    7.9632    6.7567   -1.9797 N   0  0  0  0  0  0  0  0  0  0  0  0
    8.6545    7.6419   -2.6971 C   0  0  0  0  0  0  0  0  0  0  0  0
    9.3980    7.2861   -3.7993 C   0  0  0  0  0  0  0  0  0  0  0  0
   10.4983    8.2228   -4.1007 C   0  0  0  0  0  0  0  0  0  0  0  0
   11.8610    8.0812   -3.7148 C   0  0  0  0  0  0  0  0  0  0  0  0
   12.5562    9.2146   -3.8151 N   0  0  0  0  0  0  0  0  0  0  0  0
   11.6691   10.0975   -4.3020 N   0  0  0  0  0  0  0  0  0  0  0  0
   12.1560   11.3785   -4.7716 C   0  0  0  0  0  0  0  0  0  0  0  0
   10.3772    9.6058   -4.3271 C   0  0  0  0  0  0  0  0  0  0  0  0
    9.1870   10.4751   -4.6403 C   0  0  0  0  0  0  0  0  0  0  0  0
    8.6808   11.3709   -3.4969 C   0  0  0  0  0  0  0  0  0  0  0  0
    9.5709   12.4421   -3.2135 O   0  0  0  0  0  0  0  0  0  0  0  0
    9.2673    6.0232   -4.3537 N   0  0  0  0  0  0  0  0  0  0  0  0
    8.4300    5.0917   -3.6925 C   0  0  0  0  0  0  0  0  0  0  0  0
    7.9347    3.7826   -4.1032 C   0  0  0  0  0  0  0  0  0  0  0  0
    7.0597   -0.2412   -4.3229 C   0  0  0  0  0  0  0  0  0  0  0  0
    8.3305   -4.3876   -5.2308 H   0  0  0  0  0  0  0  0  0  0  0  0
    7.9497   -3.4271   -6.6652 H   0  0  0  0  0  0  0  0  0  0  0  0
    6.6370   -4.0436   -5.5847 H   0  0  0  0  0  0  0  0  0  0  0  0
    5.9496   -2.2748   -6.8318 H   0  0  0  0  0  0  0  0  0  0  0  0
    3.3819   -1.0421   -9.0357 H   0  0  0  0  0  0  0  0  0  0  0  0
    3.8288   -2.2063   -7.7838 H   0  0  0  0  0  0  0  0  0  0  0  0
    5.0889   -1.4570   -8.8401 H   0  0  0  0  0  0  0  0  0  0  0  0
    4.6547    1.6473   -5.7926 H   0  0  0  0  0  0  0  0  0  0  0  0
    4.4725    3.0607   -4.1805 H   0  0  0  0  0  0  0  0  0  0  0  0
    4.8537    3.2718   -2.4977 H   0  0  0  0  0  0  0  0  0  0  0  0
    3.5675    0.6922   -3.4982 H   0  0  0  0  0  0  0  0  0  0  0  0
    2.7844    2.0828   -2.7584 H   0  0  0  0  0  0  0  0  0  0  0  0
    4.0330    0.0717   -1.5680 H   0  0  0  0  0  0  0  0  0  0  0  0
    6.6746    2.6711   -1.1458 H   0  0  0  0  0  0  0  0  0  0  0  0
    7.1886    4.9587   -0.5296 H   0  0  0  0  0  0  0  0  0  0  0  0
    8.6809    8.6359   -2.2741 H   0  0  0  0  0  0  0  0  0  0  0  0
   12.3542    7.2126   -3.2961 H   0  0  0  0  0  0  0  0  0  0  0  0
   13.2476   11.4054   -4.7024 H   0  0  0  0  0  0  0  0  0  0  0  0
   11.7480   12.1822   -4.1606 H   0  0  0  0  0  0  0  0  0  0  0  0
   11.8564   11.4922   -5.8160 H   0  0  0  0  0  0  0  0  0  0  0  0
    8.3612    9.8226   -4.9440 H   0  0  0  0  0  0  0  0  0  0  0  0
    9.4311   11.1049   -5.5026 H   0  0  0  0  0  0  0  0  0  0  0  0
    8.4849   10.8250   -2.5699 H   0  0  0  0  0  0  0  0  0  0  0  0
    7.7369   11.8291   -3.8089 H   0  0  0  0  0  0  0  0  0  0  0  0
   10.1706   12.1427   -2.5069 H   0  0  0  0  0  0  0  0  0  0  0  0
    8.0884    3.4636   -5.1329 H   0  0  0  0  0  0  0  0  0  0  0  0
    7.7392   -0.2707   -3.4742 H   0  0  0  0  0  0  0  0  0  0  0  0
  1  2  1  0  0  0  0
  1 34  1  0  0  0  0
  1 35  1  0  0  0  0
  1 36  1  0  0  0  0
  2  3  1  0  0  0  0
  3  4  1  0  0  0  0
  3 33  2  0  0  0  0
  4  5  2  0  0  0  0
  4 37  1  0  0  0  0
  5  6  1  0  0  0  0
  5  8  1  0  0  0  0
  6  7  1  0  0  0  0
  7 38  1  0  0  0  0
  7 39  1  0  0  0  0
  7 40  1  0  0  0  0
  8  9  2  0  0  0  0
  8 41  1  0  0  0  0
  9 10  1  0  0  0  0
  9 33  1  0  0  0  0
 10 11  1  0  0  0  0
 10 14  1  0  0  0  0
 11 12  1  0  0  0  0
 11 42  1  0  0  0  0
 11 43  1  0  0  0  0
 12 13  1  0  0  0  0
 12 44  1  0  0  0  0
 12 45  1  0  0  0  0
 13 46  1  0  0  0  0
 14 15  1  0  0  0  0
 14 32  2  0  0  0  0
 15 16  2  0  0  0  0
 15 47  1  0  0  0  0
 16 17  1  0  0  0  0
 16 48  1  0  0  0  0
 17 18  1  0  0  0  0
 17 31  2  0  0  0  0
 18 19  2  0  0  0  0
 19 20  1  0  0  0  0
 19 49  1  0  0  0  0
 20 21  1  0  0  0  0
 20 30  2  0  0  0  0
 21 22  1  0  0  0  0
 21 26  2  0  0  0  0
 22 23  2  0  0  0  0
 22 50  1  0  0  0  0
 23 24  1  0  0  0  0
 24 25  1  0  0  0  0
 24 26  1  0  0  0  0
 25 51  1  0  0  0  0
 25 52  1  0  0  0  0
 25 53  1  0  0  0  0
 26 27  1  0  0  0  0
 27 28  1  0  0  0  0
 27 54  1  0  0  0  0
 27 55  1  0  0  0  0
 28 29  1  0  0  0  0
 28 56  1  0  0  0  0
 28 57  1  0  0  0  0
 29 58  1  0  0  0  0
 30 31  1  0  0  0  0
 31 32  1  0  0  0  0
 32 59  1  0  0  0  0
 33 60  1  0  0  0  0
M  END
$$$$
