CHEMBL941
 OpenBabel04072215383D

 68 72  0  0  0  0  0  0  0  0999 V2000
    2.5377    0.0055   -0.0284 C   0  0  0  0  0  0  0  0  0  0  0  0
    1.0394    0.0070    0.0902 C   0  0  0  0  0  0  0  0  0  0  0  0
    0.3682    1.2188   -0.1400 C   0  0  0  0  0  0  0  0  0  0  0  0
   -1.0233    1.2973   -0.0937 C   0  0  0  0  0  0  0  0  0  0  0  0
   -1.7823    0.1616    0.1561 C   0  0  0  0  0  0  0  0  0  0  0  0
   -3.1959    0.1378    0.1325 N   0  0  0  0  0  0  0  0  0  0  0  0
   -4.0310    1.1930   -0.1883 C   0  0  0  0  0  0  0  0  0  0  0  0
   -3.6802    2.3305   -0.4840 O   0  0  0  0  0  0  0  0  0  0  0  0
   -5.4932    0.9045   -0.1947 C   0  0  0  0  0  0  0  0  0  0  0  0
   -6.0787   -0.0786    0.6087 C   0  0  0  0  0  0  0  0  0  0  0  0
   -7.4669   -0.2440    0.6008 C   0  0  0  0  0  0  0  0  0  0  0  0
   -8.2874    0.5832   -0.1850 C   0  0  0  0  0  0  0  0  0  0  0  0
   -9.7960    0.4990   -0.0566 C   0  0  0  0  0  0  0  0  0  0  0  0
  -10.2352    0.7732    1.3177 N   0  0  0  0  0  0  0  0  0  0  0  0
   -9.9120    2.1481    1.7497 C   0  0  0  0  0  0  0  0  0  0  0  0
  -10.3507    2.3974    3.2092 C   0  0  0  0  0  0  0  0  0  0  0  0
  -11.7791    2.1390    3.4756 N   0  0  0  0  0  0  0  0  0  0  0  0
  -12.6239    3.1894    2.9140 C   0  0  0  0  0  0  0  0  0  0  0  0
  -12.1354    0.8062    2.9456 C   0  0  0  0  0  0  0  0  0  0  0  0
  -11.6761    0.5258    1.4919 C   0  0  0  0  0  0  0  0  0  0  0  0
   -7.6949    1.5523   -1.0006 C   0  0  0  0  0  0  0  0  0  0  0  0
   -6.3087    1.7136   -1.0007 C   0  0  0  0  0  0  0  0  0  0  0  0
   -1.1134   -1.0355    0.4405 C   0  0  0  0  0  0  0  0  0  0  0  0
    0.2943   -1.1296    0.4567 C   0  0  0  0  0  0  0  0  0  0  0  0
    0.9237   -2.3237    0.8608 N   0  0  0  0  0  0  0  0  0  0  0  0
    0.5222   -3.2179    1.8606 C   0  0  0  0  0  0  0  0  0  0  0  0
    1.3104   -4.2736    2.0966 N   0  0  0  0  0  0  0  0  0  0  0  0
    0.9423   -5.0926    3.1017 C   0  0  0  0  0  0  0  0  0  0  0  0
   -0.1514   -4.8764    3.9088 C   0  0  0  0  0  0  0  0  0  0  0  0
   -0.8989   -3.7560    3.6210 C   0  0  0  0  0  0  0  0  0  0  0  0
   -2.0532   -3.2881    4.4116 C   0  0  0  0  0  0  0  0  0  0  0  0
   -2.4267   -1.9329    4.4137 C   0  0  0  0  0  0  0  0  0  0  0  0
   -3.5024   -1.4882    5.1799 C   0  0  0  0  0  0  0  0  0  0  0  0
   -4.1924   -2.4144    5.9334 C   0  0  0  0  0  0  0  0  0  0  0  0
   -3.8884   -3.7293    5.9607 N   0  0  0  0  0  0  0  0  0  0  0  0
   -2.8366   -4.1290    5.2014 C   0  0  0  0  0  0  0  0  0  0  0  0
   -0.5725   -2.9564    2.5867 N   0  0  0  0  0  0  0  0  0  0  0  0
    2.8814    0.8626   -0.6200 H   0  0  0  0  0  0  0  0  0  0  0  0
    2.8870   -0.8884   -0.5543 H   0  0  0  0  0  0  0  0  0  0  0  0
    3.0026    0.0623    0.9594 H   0  0  0  0  0  0  0  0  0  0  0  0
    0.9269    2.1251   -0.3649 H   0  0  0  0  0  0  0  0  0  0  0  0
   -1.4776    2.2650   -0.2735 H   0  0  0  0  0  0  0  0  0  0  0  0
   -3.6162   -0.7691    0.2835 H   0  0  0  0  0  0  0  0  0  0  0  0
   -5.4919   -0.6853    1.2906 H   0  0  0  0  0  0  0  0  0  0  0  0
   -7.9234   -0.9780    1.2636 H   0  0  0  0  0  0  0  0  0  0  0  0
  -10.0869   -0.5191   -0.3481 H   0  0  0  0  0  0  0  0  0  0  0  0
  -10.2823    1.1789   -0.7686 H   0  0  0  0  0  0  0  0  0  0  0  0
  -10.3798    2.8837    1.0828 H   0  0  0  0  0  0  0  0  0  0  0  0
   -8.8311    2.3224    1.7101 H   0  0  0  0  0  0  0  0  0  0  0  0
  -10.0872    3.4212    3.5021 H   0  0  0  0  0  0  0  0  0  0  0  0
   -9.7591    1.7444    3.8653 H   0  0  0  0  0  0  0  0  0  0  0  0
  -12.3445    4.1648    3.3286 H   0  0  0  0  0  0  0  0  0  0  0  0
  -13.6700    3.0221    3.1915 H   0  0  0  0  0  0  0  0  0  0  0  0
  -12.5673    3.2567    1.8230 H   0  0  0  0  0  0  0  0  0  0  0  0
  -13.2169    0.6441    3.0287 H   0  0  0  0  0  0  0  0  0  0  0  0
  -11.6753    0.0546    3.6014 H   0  0  0  0  0  0  0  0  0  0  0  0
  -12.2623    1.1388    0.7953 H   0  0  0  0  0  0  0  0  0  0  0  0
  -11.8978   -0.5240    1.2642 H   0  0  0  0  0  0  0  0  0  0  0  0
   -8.3056    2.2195   -1.6047 H   0  0  0  0  0  0  0  0  0  0  0  0
   -5.8650    2.4987   -1.6107 H   0  0  0  0  0  0  0  0  0  0  0  0
   -1.6998   -1.9278    0.6523 H   0  0  0  0  0  0  0  0  0  0  0  0
    1.9222   -2.3976    0.7445 H   0  0  0  0  0  0  0  0  0  0  0  0
    1.5889   -5.9521    3.2584 H   0  0  0  0  0  0  0  0  0  0  0  0
   -0.3680   -5.5392    4.7348 H   0  0  0  0  0  0  0  0  0  0  0  0
   -1.8685   -1.2096    3.8206 H   0  0  0  0  0  0  0  0  0  0  0  0
   -3.7790   -0.4387    5.1885 H   0  0  0  0  0  0  0  0  0  0  0  0
   -5.0312   -2.1161    6.5560 H   0  0  0  0  0  0  0  0  0  0  0  0
   -2.6520   -5.1987    5.2530 H   0  0  0  0  0  0  0  0  0  0  0  0
  1  2  1  0  0  0  0
  1 38  1  0  0  0  0
  1 39  1  0  0  0  0
  1 40  1  0  0  0  0
  2  3  1  0  0  0  0
  2 24  2  0  0  0  0
  3  4  2  0  0  0  0
  3 41  1  0  0  0  0
  4  5  1  0  0  0  0
  4 42  1  0  0  0  0
  5  6  1  0  0  0  0
  5 23  2  0  0  0  0
  6  7  1  0  0  0  0
  6 43  1  0  0  0  0
  7  8  2  0  0  0  0
  7  9  1  0  0  0  0
  9 10  1  0  0  0  0
  9 22  2  0  0  0  0
 10 11  2  0  0  0  0
 10 44  1  0  0  0  0
 11 12  1  0  0  0  0
 11 45  1  0  0  0  0
 12 13  1  0  0  0  0
 12 21  2  0  0  0  0
 13 14  1  0  0  0  0
 13 46  1  0  0  0  0
 13 47  1  0  0  0  0
 14 15  1  0  0  0  0
 14 20  1  0  0  0  0
 15 16  1  0  0  0  0
 15 48  1  0  0  0  0
 15 49  1  0  0  0  0
 16 17  1  0  0  0  0
 16 50  1  0  0  0  0
 16 51  1  0  0  0  0
 17 18  1  0  0  0  0
 17 19  1  0  0  0  0
 18 52  1  0  0  0  0
 18 53  1  0  0  0  0
 18 54  1  0  0  0  0
 19 20  1  0  0  0  0
 19 55  1  0  0  0  0
 19 56  1  0  0  0  0
 20 57  1  0  0  0  0
 20 58  1  0  0  0  0
 21 22  1  0  0  0  0
 21 59  1  0  0  0  0
 22 60  1  0  0  0  0
 23 24  1  0  0  0  0
 23 61  1  0  0  0  0
 24 25  1  0  0  0  0
 25 26  1  0  0  0  0
 25 62  1  0  0  0  0
 26 27  1  0  0  0  0
 26 37  2  0  0  0  0
 27 28  2  0  0  0  0
 28 29  1  0  0  0  0
 28 63  1  0  0  0  0
 29 30  2  0  0  0  0
 29 64  1  0  0  0  0
 30 31  1  0  0  0  0
 30 37  1  0  0  0  0
 31 32  1  0  0  0  0
 31 36  2  0  0  0  0
 32 33  2  0  0  0  0
 32 65  1  0  0  0  0
 33 34  1  0  0  0  0
 33 66  1  0  0  0  0
 34 35  2  0  0  0  0
 34 67  1  0  0  0  0
 35 36  1  0  0  0  0
 36 68  1  0  0  0  0
M  END
$$$$
