CHEMBL193386
 OpenBabel04072215363D

 52 55  0  0  0  0  0  0  0  0999 V2000
    7.8059    4.6391    1.7793 C   0  0  0  0  0  0  0  0  0  0  0  0
    7.5792    3.6755    0.6316 C   0  0  0  0  0  0  0  0  0  0  0  0
    6.2852    2.5130    1.0113 S   0  0  0  0  0  0  0  0  0  0  0  0
    6.6798    1.7422    2.1761 O   0  0  0  0  0  0  0  0  0  0  0  0
    5.0194    3.2205    0.9897 O   0  0  0  0  0  0  0  0  0  0  0  0
    6.2889    1.4086   -0.3801 C   0  0  0  0  0  0  0  0  0  0  0  0
    5.4684    1.6615   -1.4778 C   0  0  0  0  0  0  0  0  0  0  0  0
    5.3863    0.7190   -2.5087 C   0  0  0  0  0  0  0  0  0  0  0  0
    6.1225   -0.4734   -2.4438 C   0  0  0  0  0  0  0  0  0  0  0  0
    6.0321   -1.4837   -3.3714 O   0  0  0  0  0  0  0  0  0  0  0  0
    5.5493   -1.1321   -4.6644 C   0  0  0  0  0  0  0  0  0  0  0  0
    6.9934   -0.7019   -1.3538 C   0  0  0  0  0  0  0  0  0  0  0  0
    7.7681   -1.8836   -1.2776 N   0  0  0  0  0  0  0  0  0  0  0  0
    9.0302   -1.9054   -0.8042 C   0  0  0  0  0  0  0  0  0  0  0  0
    9.9134   -0.9354   -0.7451 N   0  0  0  0  0  0  0  0  0  0  0  0
   11.0184   -1.5230   -0.1950 C   0  0  0  0  0  0  0  0  0  0  0  0
   10.7652   -2.8443    0.0926 C   0  0  0  0  0  0  0  0  0  0  0  0
   11.5392   -3.9201    0.7013 C   0  0  0  0  0  0  0  0  0  0  0  0
   12.8563   -3.6795    1.1152 C   0  0  0  0  0  0  0  0  0  0  0  0
   13.6154   -4.6843    1.7084 C   0  0  0  0  0  0  0  0  0  0  0  0
   13.0590   -5.9450    1.9131 C   0  0  0  0  0  0  0  0  0  0  0  0
   11.7319   -6.2272    1.5435 C   0  0  0  0  0  0  0  0  0  0  0  0
   11.1239   -7.5433    1.8331 C   0  0  0  0  0  0  0  0  0  0  0  0
   10.1644   -8.1307    0.9968 C   0  0  0  0  0  0  0  0  0  0  0  0
    9.5995   -9.3646    1.3192 C   0  0  0  0  0  0  0  0  0  0  0  0
   10.0161   -9.9973    2.4762 C   0  0  0  0  0  0  0  0  0  0  0  0
   10.9347   -9.4830    3.3161 N   0  0  0  0  0  0  0  0  0  0  0  0
   11.4542   -8.2765    2.9782 C   0  0  0  0  0  0  0  0  0  0  0  0
   10.9964   -5.1973    0.9175 C   0  0  0  0  0  0  0  0  0  0  0  0
    9.4787   -3.1060   -0.3127 O   0  0  0  0  0  0  0  0  0  0  0  0
    7.0458    0.2411   -0.3153 C   0  0  0  0  0  0  0  0  0  0  0  0
    8.6137    5.3357    1.5373 H   0  0  0  0  0  0  0  0  0  0  0  0
    8.0793    4.1047    2.6950 H   0  0  0  0  0  0  0  0  0  0  0  0
    6.9030    5.2209    1.9921 H   0  0  0  0  0  0  0  0  0  0  0  0
    8.4891    3.1068    0.4267 H   0  0  0  0  0  0  0  0  0  0  0  0
    7.2785    4.2185   -0.2700 H   0  0  0  0  0  0  0  0  0  0  0  0
    4.8649    2.5659   -1.5246 H   0  0  0  0  0  0  0  0  0  0  0  0
    4.7126    0.9306   -3.3330 H   0  0  0  0  0  0  0  0  0  0  0  0
    5.6222   -2.0211   -5.2991 H   0  0  0  0  0  0  0  0  0  0  0  0
    6.1670   -0.3481   -5.1149 H   0  0  0  0  0  0  0  0  0  0  0  0
    4.4947   -0.8383   -4.6409 H   0  0  0  0  0  0  0  0  0  0  0  0
    7.2061   -2.7202   -1.1939 H   0  0  0  0  0  0  0  0  0  0  0  0
   11.9291   -0.9655   -0.0288 H   0  0  0  0  0  0  0  0  0  0  0  0
   13.3134   -2.7010    0.9881 H   0  0  0  0  0  0  0  0  0  0  0  0
   14.6371   -4.4836    2.0210 H   0  0  0  0  0  0  0  0  0  0  0  0
   13.6848   -6.7091    2.3709 H   0  0  0  0  0  0  0  0  0  0  0  0
    9.8466   -7.6389    0.0810 H   0  0  0  0  0  0  0  0  0  0  0  0
    8.8514   -9.8185    0.6797 H   0  0  0  0  0  0  0  0  0  0  0  0
    9.6091  -10.9605    2.7673 H   0  0  0  0  0  0  0  0  0  0  0  0
   12.1694   -7.8973    3.7043 H   0  0  0  0  0  0  0  0  0  0  0  0
    9.9669   -5.3819    0.6159 H   0  0  0  0  0  0  0  0  0  0  0  0
    7.6606    0.0420    0.5607 H   0  0  0  0  0  0  0  0  0  0  0  0
  1  2  1  0  0  0  0
  1 32  1  0  0  0  0
  1 33  1  0  0  0  0
  1 34  1  0  0  0  0
  2  3  1  0  0  0  0
  2 35  1  0  0  0  0
  2 36  1  0  0  0  0
  3  4  2  0  0  0  0
  3  5  2  0  0  0  0
  3  6  1  0  0  0  0
  6  7  1  0  0  0  0
  6 31  2  0  0  0  0
  7  8  2  0  0  0  0
  7 37  1  0  0  0  0
  8  9  1  0  0  0  0
  8 38  1  0  0  0  0
  9 10  1  0  0  0  0
  9 12  2  0  0  0  0
 10 11  1  0  0  0  0
 11 39  1  0  0  0  0
 11 40  1  0  0  0  0
 11 41  1  0  0  0  0
 12 13  1  0  0  0  0
 12 31  1  0  0  0  0
 13 14  1  0  0  0  0
 13 42  1  0  0  0  0
 14 15  2  0  0  0  0
 14 30  1  0  0  0  0
 15 16  1  0  0  0  0
 16 17  2  0  0  0  0
 16 43  1  0  0  0  0
 17 18  1  0  0  0  0
 17 30  1  0  0  0  0
 18 19  1  0  0  0  0
 18 29  2  0  0  0  0
 19 20  2  0  0  0  0
 19 44  1  0  0  0  0
 20 21  1  0  0  0  0
 20 45  1  0  0  0  0
 21 22  2  0  0  0  0
 21 46  1  0  0  0  0
 22 23  1  0  0  0  0
 22 29  1  0  0  0  0
 23 24  1  0  0  0  0
 23 28  2  0  0  0  0
 24 25  2  0  0  0  0
 24 47  1  0  0  0  0
 25 26  1  0  0  0  0
 25 48  1  0  0  0  0
 26 27  2  0  0  0  0
 26 49  1  0  0  0  0
 27 28  1  0  0  0  0
 28 50  1  0  0  0  0
 29 51  1  0  0  0  0
 31 52  1  0  0  0  0
M  END
$$$$
