CHEMBL306284
 OpenBabel04072215363D

 39 42  0  0  0  0  0  0  0  0999 V2000
   -1.9158   -0.5386    1.5149 Cl  0  0  0  0  0  0  0  0  0  0  0  0
   -0.2663   -0.3290    1.0739 C   0  0  0  0  0  0  0  0  0  0  0  0
    0.3173    0.9266    1.1775 C   0  0  0  0  0  0  0  0  0  0  0  0
    1.6545    1.0988    0.8104 C   0  0  0  0  0  0  0  0  0  0  0  0
    2.4278    0.0323    0.3230 C   0  0  0  0  0  0  0  0  0  0  0  0
    3.7849    0.1692   -0.0181 N   0  0  0  0  0  0  0  0  0  0  0  0
    4.6216    1.3108    0.0917 C   0  0  0  0  0  0  0  0  0  0  0  0
    4.4118    2.2049    1.0848 N   0  0  0  0  0  0  0  0  0  0  0  0
    5.1063    3.3658    1.1373 N   0  0  0  0  0  0  0  0  0  0  0  0
    6.0237    3.6453    0.1899 C   0  0  0  0  0  0  0  0  0  0  0  0
    6.6775    4.9970    0.3379 C   0  0  0  0  0  0  0  0  0  0  0  0
    6.0191    6.1054   -0.4523 C   0  0  0  0  0  0  0  0  0  0  0  0
    4.6967    6.4873   -0.1942 C   0  0  0  0  0  0  0  0  0  0  0  0
    4.1488    7.5346   -0.9203 C   0  0  0  0  0  0  0  0  0  0  0  0
    4.8193    8.2210   -1.8690 N   0  0  0  0  0  0  0  0  0  0  0  0
    6.0941    7.8451   -2.0994 C   0  0  0  0  0  0  0  0  0  0  0  0
    6.7294    6.8108   -1.4275 C   0  0  0  0  0  0  0  0  0  0  0  0
    6.3154    2.7336   -0.8413 C   0  0  0  0  0  0  0  0  0  0  0  0
    7.2735    2.9539   -1.8560 C   0  0  0  0  0  0  0  0  0  0  0  0
    7.5189    1.9874   -2.8238 C   0  0  0  0  0  0  0  0  0  0  0  0
    6.7910    0.8191   -2.7665 C   0  0  0  0  0  0  0  0  0  0  0  0
    5.8448    0.5733   -1.8334 N   0  0  0  0  0  0  0  0  0  0  0  0
    5.6067    1.5161   -0.8797 C   0  0  0  0  0  0  0  0  0  0  0  0
    1.8222   -1.2303    0.2527 C   0  0  0  0  0  0  0  0  0  0  0  0
    0.4793   -1.4105    0.6170 C   0  0  0  0  0  0  0  0  0  0  0  0
   -0.2478    1.7800    1.5397 H   0  0  0  0  0  0  0  0  0  0  0  0
    2.0691    2.0974    0.8975 H   0  0  0  0  0  0  0  0  0  0  0  0
    4.1524   -0.4919   -0.6985 H   0  0  0  0  0  0  0  0  0  0  0  0
    7.7442    4.9243    0.0972 H   0  0  0  0  0  0  0  0  0  0  0  0
    6.6548    5.2869    1.3978 H   0  0  0  0  0  0  0  0  0  0  0  0
    4.0981    5.9878    0.5619 H   0  0  0  0  0  0  0  0  0  0  0  0
    3.1269    7.8611   -0.7472 H   0  0  0  0  0  0  0  0  0  0  0  0
    6.6136    8.4201   -2.8604 H   0  0  0  0  0  0  0  0  0  0  0  0
    7.7626    6.5776   -1.6604 H   0  0  0  0  0  0  0  0  0  0  0  0
    7.8406    3.8792   -1.9045 H   0  0  0  0  0  0  0  0  0  0  0  0
    8.2603    2.1451   -3.5999 H   0  0  0  0  0  0  0  0  0  0  0  0
    6.9496    0.0255   -3.4920 H   0  0  0  0  0  0  0  0  0  0  0  0
    2.3913   -2.0938   -0.0850 H   0  0  0  0  0  0  0  0  0  0  0  0
    0.0285   -2.3961    0.5474 H   0  0  0  0  0  0  0  0  0  0  0  0
  1  2  1  0  0  0  0
  2  3  1  0  0  0  0
  2 25  2  0  0  0  0
  3  4  2  0  0  0  0
  3 26  1  0  0  0  0
  4  5  1  0  0  0  0
  4 27  1  0  0  0  0
  5  6  1  0  0  0  0
  5 24  2  0  0  0  0
  6  7  1  0  0  0  0
  6 28  1  0  0  0  0
  7  8  1  0  0  0  0
  7 23  2  0  0  0  0
  8  9  2  0  0  0  0
  9 10  1  0  0  0  0
 10 11  1  0  0  0  0
 10 18  2  0  0  0  0
 11 12  1  0  0  0  0
 11 29  1  0  0  0  0
 11 30  1  0  0  0  0
 12 13  1  0  0  0  0
 12 17  2  0  0  0  0
 13 14  2  0  0  0  0
 13 31  1  0  0  0  0
 14 15  1  0  0  0  0
 14 32  1  0  0  0  0
 15 16  2  0  0  0  0
 16 17  1  0  0  0  0
 16 33  1  0  0  0  0
 17 34  1  0  0  0  0
 18 19  1  0  0  0  0
 18 23  1  0  0  0  0
 19 20  2  0  0  0  0
 19 35  1  0  0  0  0
 20 21  1  0  0  0  0
 20 36  1  0  0  0  0
 21 22  2  0  0  0  0
 21 37  1  0  0  0  0
 22 23  1  0  0  0  0
 24 25  1  0  0  0  0
 24 38  1  0  0  0  0
 25 39  1  0  0  0  0
M  END
$$$$
