CHEMBL3909603
 OpenBabel04072215373D

 55 58  0  0  1  0  0  0  0  0999 V2000
    2.6606   -1.0677   -0.5636 C   0  0  0  0  0  0  0  0  0  0  0  0
    2.4437    0.1347    0.1731 O   0  0  0  0  0  0  0  0  0  0  0  0
    3.1621    1.2415   -0.1960 C   0  0  0  0  0  0  0  0  0  0  0  0
    4.2875    1.1879   -1.0252 C   0  0  0  0  0  0  0  0  0  0  0  0
    4.9335    2.3686   -1.4689 C   0  0  0  0  0  0  0  0  0  0  0  0
    5.9930    2.4125   -2.3894 C   0  0  0  0  0  0  0  0  0  0  0  0
    6.4033    1.2152   -3.0134 N   0  0  0  0  0  0  0  0  0  0  0  0
    7.7047    0.8460   -3.3943 C   0  0  0  0  0  0  0  0  0  0  0  0
    8.8296    1.3512   -2.7280 C   0  0  0  0  0  0  0  0  0  0  0  0
   10.0951    0.8276   -2.9760 C   0  0  0  0  0  0  0  0  0  0  0  0
   10.2604   -0.2126   -3.8937 C   0  0  0  0  0  0  0  0  0  0  0  0
   11.8476   -0.8708   -4.0726 Cl  0  0  0  0  0  0  0  0  0  0  0  0
    9.1588   -0.7043   -4.5995 C   0  0  0  0  0  0  0  0  0  0  0  0
    9.3027   -1.9731   -5.7639 Cl  0  0  0  0  0  0  0  0  0  0  0  0
    7.8941   -0.1753   -4.3367 C   0  0  0  0  0  0  0  0  0  0  0  0
    6.8120   -0.6568   -4.9769 F   0  0  0  0  0  0  0  0  0  0  0  0
    6.6054    3.5603   -2.7354 N   0  0  0  0  0  0  0  0  0  0  0  0
    6.1365    4.6763   -2.1722 C   0  0  0  0  0  0  0  0  0  0  0  0
    5.1287    4.7533   -1.2991 N   0  0  0  0  0  0  0  0  0  0  0  0
    4.5423    3.6029   -0.9596 C   0  0  0  0  0  0  0  0  0  0  0  0
    3.4805    3.6359   -0.0752 C   0  0  0  0  0  0  0  0  0  0  0  0
    2.7453    2.4911    0.2875 C   0  0  0  0  0  0  0  0  0  0  0  0
    1.6033    2.5495    1.0692 O   0  0  0  0  0  0  0  0  0  0  0  0
    1.0999    3.8820    1.2666 C   0  0  0  0  0  0  0  0  0  0  0  0
   -0.2928    3.9435    1.9379 C   0  0  2  0  0  0  0  0  0  0  0  0
   -0.8546    5.3773    1.7814 C   0  0  0  0  0  0  0  0  0  0  0  0
   -0.0047    6.3435    2.4986 N   0  0  0  0  0  0  0  0  0  0  0  0
   -0.5217    7.7051    2.3440 C   0  0  0  0  0  0  0  0  0  0  0  0
    0.0772    6.0066    3.9416 C   0  0  0  0  0  0  0  0  0  0  0  0
    0.3078    4.5183    4.2628 C   0  0  0  0  0  0  0  0  0  0  0  0
    0.8043    4.1813    5.3374 O   0  0  0  0  0  0  0  0  0  0  0  0
   -0.2378    3.6060    3.3656 N   0  0  0  0  0  0  0  0  0  0  0  0
   -0.4544    2.2288    3.7587 C   0  0  0  0  0  0  0  0  0  0  0  0
    3.4100   -1.6867   -0.0585 H   0  0  0  0  0  0  0  0  0  0  0  0
    2.9433   -0.9040   -1.6095 H   0  0  0  0  0  0  0  0  0  0  0  0
    1.7168   -1.6191   -0.5854 H   0  0  0  0  0  0  0  0  0  0  0  0
    4.6941    0.2343   -1.3550 H   0  0  0  0  0  0  0  0  0  0  0  0
    5.6748    0.8498   -3.6269 H   0  0  0  0  0  0  0  0  0  0  0  0
    8.7188    2.1394   -1.9872 H   0  0  0  0  0  0  0  0  0  0  0  0
   10.9446    1.2195   -2.4213 H   0  0  0  0  0  0  0  0  0  0  0  0
    6.6121    5.6092   -2.4565 H   0  0  0  0  0  0  0  0  0  0  0  0
    3.2309    4.6215    0.3117 H   0  0  0  0  0  0  0  0  0  0  0  0
    1.0004    4.3549    0.2813 H   0  0  0  0  0  0  0  0  0  0  0  0
    1.8182    4.4347    1.8834 H   0  0  0  0  0  0  0  0  0  0  0  0
   -0.9740    3.2363    1.4497 H   0  0  0  0  0  0  0  0  0  0  0  0
   -1.8853    5.4141    2.1569 H   0  0  0  0  0  0  0  0  0  0  0  0
   -0.8854    5.6356    0.7150 H   0  0  0  0  0  0  0  0  0  0  0  0
   -0.5191    8.0021    1.2898 H   0  0  0  0  0  0  0  0  0  0  0  0
    0.1121    8.4228    2.8771 H   0  0  0  0  0  0  0  0  0  0  0  0
   -1.5450    7.8042    2.7254 H   0  0  0  0  0  0  0  0  0  0  0  0
   -0.8525    6.2804    4.4564 H   0  0  0  0  0  0  0  0  0  0  0  0
    0.9034    6.5728    4.3869 H   0  0  0  0  0  0  0  0  0  0  0  0
   -0.3300    2.0985    4.8371 H   0  0  0  0  0  0  0  0  0  0  0  0
    0.2382    1.5743    3.2277 H   0  0  0  0  0  0  0  0  0  0  0  0
   -1.4857    1.9651    3.5000 H   0  0  0  0  0  0  0  0  0  0  0  0
  1  2  1  0  0  0  0
  1 34  1  0  0  0  0
  1 35  1  0  0  0  0
  1 36  1  0  0  0  0
  2  3  1  0  0  0  0
  3  4  1  0  0  0  0
  3 22  2  0  0  0  0
  4  5  2  0  0  0  0
  4 37  1  0  0  0  0
  5  6  1  0  0  0  0
  5 20  1  0  0  0  0
  6  7  1  0  0  0  0
  6 17  2  0  0  0  0
  7  8  1  0  0  0  0
  7 38  1  0  0  0  0
  8  9  1  0  0  0  0
  8 15  2  0  0  0  0
  9 10  2  0  0  0  0
  9 39  1  0  0  0  0
 10 11  1  0  0  0  0
 10 40  1  0  0  0  0
 11 12  1  0  0  0  0
 11 13  2  0  0  0  0
 13 14  1  0  0  0  0
 13 15  1  0  0  0  0
 15 16  1  0  0  0  0
 17 18  1  0  0  0  0
 18 19  2  0  0  0  0
 18 41  1  0  0  0  0
 19 20  1  0  0  0  0
 20 21  2  0  0  0  0
 21 22  1  0  0  0  0
 21 42  1  0  0  0  0
 22 23  1  0  0  0  0
 23 24  1  0  0  0  0
 24 25  1  0  0  0  0
 24 43  1  0  0  0  0
 24 44  1  0  0  0  0
 25 26  1  0  0  0  0
 25 32  1  0  0  0  0
 25 45  1  6  0  0  0
 26 27  1  0  0  0  0
 26 46  1  0  0  0  0
 26 47  1  0  0  0  0
 27 28  1  0  0  0  0
 27 29  1  0  0  0  0
 28 48  1  0  0  0  0
 28 49  1  0  0  0  0
 28 50  1  0  0  0  0
 29 30  1  0  0  0  0
 29 51  1  0  0  0  0
 29 52  1  0  0  0  0
 30 31  2  0  0  0  0
 30 32  1  0  0  0  0
 32 33  1  0  0  0  0
 33 53  1  0  0  0  0
 33 54  1  0  0  0  0
 33 55  1  0  0  0  0
M  END
$$$$
