CHEMBL3686063
 OpenBabel04072215373D

 59 63  0  0  0  0  0  0  0  0999 V2000
    2.5126   -0.5020   -1.1316 O   0  0  0  0  0  0  0  0  0  0  0  0
    2.4114   -0.5943    0.0840 C   0  0  0  0  0  0  0  0  0  0  0  0
    1.3456   -1.2496    0.6636 N   0  0  0  0  0  0  0  0  0  0  0  0
    0.2530   -1.7036   -0.2029 C   0  0  0  0  0  0  0  0  0  0  0  0
   -0.7806   -0.6258   -0.5573 C   0  0  0  0  0  0  0  0  0  0  0  0
   -0.5331    0.5400    0.0858 F   0  0  0  0  0  0  0  0  0  0  0  0
   -0.8317   -0.3739   -1.8804 F   0  0  0  0  0  0  0  0  0  0  0  0
   -2.0171   -1.0274   -0.1706 F   0  0  0  0  0  0  0  0  0  0  0  0
    3.2865   -0.1200    1.0342 N   0  0  0  0  0  0  0  0  0  0  0  0
    4.5067    0.5509    0.8063 C   0  0  0  0  0  0  0  0  0  0  0  0
    5.0015    0.8255   -0.4697 C   0  0  0  0  0  0  0  0  0  0  0  0
    6.2571    1.4022   -0.6299 C   0  0  0  0  0  0  0  0  0  0  0  0
    7.0103    1.7447    0.4884 C   0  0  0  0  0  0  0  0  0  0  0  0
    6.4801    1.6090    1.7782 C   0  0  0  0  0  0  0  0  0  0  0  0
    7.1583    2.1942    2.9423 C   0  0  0  0  0  0  0  0  0  0  0  0
    7.2788    1.7465    4.2455 C   0  0  0  0  0  0  0  0  0  0  0  0
    7.9338    2.6488    5.0468 N   0  0  0  0  0  0  0  0  0  0  0  0
    8.2155    3.6662    4.2616 C   0  0  0  0  0  0  0  0  0  0  0  0
    8.8697    4.9077    4.5341 C   0  0  0  0  0  0  0  0  0  0  0  0
    9.0446    5.8313    3.5593 C   0  0  0  0  0  0  0  0  0  0  0  0
    9.6830    7.0916    3.7741 C   0  0  0  0  0  0  0  0  0  0  0  0
   10.7369    7.4429    4.6362 C   0  0  0  0  0  0  0  0  0  0  0  0
   11.1184    8.7099    4.4757 N   0  0  0  0  0  0  0  0  0  0  0  0
   10.2858    9.1921    3.5345 N   0  0  0  0  0  0  0  0  0  0  0  0
   10.4369   10.5348    2.9765 C   0  0  0  0  0  0  0  0  0  0  0  0
   11.5880   11.3405    3.5906 C   0  0  0  0  0  0  0  0  0  0  0  0
   11.2459   11.8114    5.0018 C   0  0  0  0  0  0  0  0  0  0  0  0
    9.9994   12.5762    5.0422 N   0  0  0  0  0  0  0  0  0  0  0  0
    8.8738   11.8194    4.4925 C   0  0  0  0  0  0  0  0  0  0  0  0
    9.1438   11.3599    3.0630 C   0  0  0  0  0  0  0  0  0  0  0  0
    9.3963    8.2525    3.0886 C   0  0  0  0  0  0  0  0  0  0  0  0
    8.5590    5.5364    2.2070 C   0  0  0  0  0  0  0  0  0  0  0  0
    7.9114    4.3948    1.9547 C   0  0  0  0  0  0  0  0  0  0  0  0
    7.7547    3.4499    2.9658 N   0  0  0  0  0  0  0  0  0  0  0  0
    5.2457    0.9583    1.9262 C   0  0  0  0  0  0  0  0  0  0  0  0
    1.0767   -0.9206    1.5798 H   0  0  0  0  0  0  0  0  0  0  0  0
   -0.2357   -2.5256    0.3288 H   0  0  0  0  0  0  0  0  0  0  0  0
    0.6769   -2.1200   -1.1243 H   0  0  0  0  0  0  0  0  0  0  0  0
    3.0721   -0.3465    1.9932 H   0  0  0  0  0  0  0  0  0  0  0  0
    4.4446    0.5834   -1.3692 H   0  0  0  0  0  0  0  0  0  0  0  0
    6.6425    1.5913   -1.6279 H   0  0  0  0  0  0  0  0  0  0  0  0
    8.0039    2.1557    0.3300 H   0  0  0  0  0  0  0  0  0  0  0  0
    6.9156    0.8116    4.6568 H   0  0  0  0  0  0  0  0  0  0  0  0
    9.1904    5.0816    5.5564 H   0  0  0  0  0  0  0  0  0  0  0  0
   11.2655    6.8244    5.3487 H   0  0  0  0  0  0  0  0  0  0  0  0
   10.6702   10.3618    1.9164 H   0  0  0  0  0  0  0  0  0  0  0  0
   11.7796   12.2198    2.9597 H   0  0  0  0  0  0  0  0  0  0  0  0
   12.5185   10.7605    3.5967 H   0  0  0  0  0  0  0  0  0  0  0  0
   12.0580   12.4449    5.3735 H   0  0  0  0  0  0  0  0  0  0  0  0
   11.1822   10.9684    5.7034 H   0  0  0  0  0  0  0  0  0  0  0  0
   10.1185   13.4418    4.5194 H   0  0  0  0  0  0  0  0  0  0  0  0
    7.9868   12.4619    4.5006 H   0  0  0  0  0  0  0  0  0  0  0  0
    8.6403   10.9628    5.1359 H   0  0  0  0  0  0  0  0  0  0  0  0
    9.2411   12.2432    2.4154 H   0  0  0  0  0  0  0  0  0  0  0  0
    8.2795   10.8013    2.6866 H   0  0  0  0  0  0  0  0  0  0  0  0
    8.6691    8.4800    2.3235 H   0  0  0  0  0  0  0  0  0  0  0  0
    8.7249    6.2507    1.4073 H   0  0  0  0  0  0  0  0  0  0  0  0
    7.5183    4.1902    0.9717 H   0  0  0  0  0  0  0  0  0  0  0  0
    4.8431    0.8047    2.9245 H   0  0  0  0  0  0  0  0  0  0  0  0
  1  2  2  0  0  0  0
  2  3  1  0  0  0  0
  2  9  1  0  0  0  0
  3  4  1  0  0  0  0
  3 36  1  0  0  0  0
  4  5  1  0  0  0  0
  4 37  1  0  0  0  0
  4 38  1  0  0  0  0
  5  6  1  0  0  0  0
  5  7  1  0  0  0  0
  5  8  1  0  0  0  0
  9 10  1  0  0  0  0
  9 39  1  0  0  0  0
 10 11  1  0  0  0  0
 10 35  2  0  0  0  0
 11 12  2  0  0  0  0
 11 40  1  0  0  0  0
 12 13  1  0  0  0  0
 12 41  1  0  0  0  0
 13 14  2  0  0  0  0
 13 42  1  0  0  0  0
 14 15  1  0  0  0  0
 14 35  1  0  0  0  0
 15 16  2  0  0  0  0
 15 34  1  0  0  0  0
 16 17  1  0  0  0  0
 16 43  1  0  0  0  0
 17 18  2  0  0  0  0
 18 19  1  0  0  0  0
 18 34  1  0  0  0  0
 19 20  2  0  0  0  0
 19 44  1  0  0  0  0
 20 21  1  0  0  0  0
 20 32  1  0  0  0  0
 21 22  1  0  0  0  0
 21 31  2  0  0  0  0
 22 23  2  0  0  0  0
 22 45  1  0  0  0  0
 23 24  1  0  0  0  0
 24 25  1  0  0  0  0
 24 31  1  0  0  0  0
 25 26  1  0  0  0  0
 25 30  1  0  0  0  0
 25 46  1  0  0  0  0
 26 27  1  0  0  0  0
 26 47  1  0  0  0  0
 26 48  1  0  0  0  0
 27 28  1  0  0  0  0
 27 49  1  0  0  0  0
 27 50  1  0  0  0  0
 28 29  1  0  0  0  0
 28 51  1  0  0  0  0
 29 30  1  0  0  0  0
 29 52  1  0  0  0  0
 29 53  1  0  0  0  0
 30 54  1  0  0  0  0
 30 55  1  0  0  0  0
 31 56  1  0  0  0  0
 32 33  2  0  0  0  0
 32 57  1  0  0  0  0
 33 34  1  0  0  0  0
 33 58  1  0  0  0  0
 35 59  1  0  0  0  0
M  END
$$$$
