CHEMBL1979176
 OpenBabel04072215363D

 39 41  0  0  0  0  0  0  0  0999 V2000
    2.1541   -0.3633    1.1071 C   0  0  0  0  0  0  0  0  0  0  0  0
    2.7044   -0.2930   -0.2032 O   0  0  0  0  0  0  0  0  0  0  0  0
    3.1800    0.9289   -0.5915 C   0  0  0  0  0  0  0  0  0  0  0  0
    2.7770    2.1491   -0.0694 C   0  0  0  0  0  0  0  0  0  0  0  0
    3.3121    3.3282   -0.5872 C   0  0  0  0  0  0  0  0  0  0  0  0
    4.2706    3.3065   -1.6301 C   0  0  0  0  0  0  0  0  0  0  0  0
    4.8799    4.4583   -2.1734 C   0  0  0  0  0  0  0  0  0  0  0  0
    4.4349    5.7444   -1.7847 N   0  0  0  0  0  0  0  0  0  0  0  0
    5.2855    6.8123   -1.5920 C   0  0  0  0  0  0  0  0  0  0  0  0
    6.5016    6.7527   -1.7550 O   0  0  0  0  0  0  0  0  0  0  0  0
    4.6226    7.9361   -1.1452 N   0  0  0  0  0  0  0  0  0  0  0  0
    5.3245    9.0904   -0.7832 C   0  0  0  0  0  0  0  0  0  0  0  0
    6.4138    9.5444   -1.5154 C   0  0  0  0  0  0  0  0  0  0  0  0
    7.1552   10.6235   -1.0325 C   0  0  0  0  0  0  0  0  0  0  0  0
    8.3489   11.1386   -1.7867 C   0  0  0  0  0  0  0  0  0  0  0  0
    8.5616   10.5125   -2.9763 F   0  0  0  0  0  0  0  0  0  0  0  0
    8.2349   12.4639   -2.0813 F   0  0  0  0  0  0  0  0  0  0  0  0
    9.5055   11.0119   -1.0813 F   0  0  0  0  0  0  0  0  0  0  0  0
    6.7689   11.1999    0.1793 C   0  0  0  0  0  0  0  0  0  0  0  0
    5.6369   10.7133    0.8122 C   0  0  0  0  0  0  0  0  0  0  0  0
    4.8881    9.6933    0.3387 N   0  0  0  0  0  0  0  0  0  0  0  0
    5.9071    4.3196   -3.1065 C   0  0  0  0  0  0  0  0  0  0  0  0
    6.2675    3.0498   -3.5011 C   0  0  0  0  0  0  0  0  0  0  0  0
    5.6713    1.9362   -3.0499 N   0  0  0  0  0  0  0  0  0  0  0  0
    4.7016    2.0574   -2.1255 C   0  0  0  0  0  0  0  0  0  0  0  0
    4.1278    0.9029   -1.6141 C   0  0  0  0  0  0  0  0  0  0  0  0
    1.8795   -1.4050    1.2967 H   0  0  0  0  0  0  0  0  0  0  0  0
    1.2429    0.2362    1.1965 H   0  0  0  0  0  0  0  0  0  0  0  0
    2.8964   -0.0671    1.8558 H   0  0  0  0  0  0  0  0  0  0  0  0
    2.0468    2.2242    0.7284 H   0  0  0  0  0  0  0  0  0  0  0  0
    3.0017    4.2621   -0.1299 H   0  0  0  0  0  0  0  0  0  0  0  0
    3.5147    5.8214   -1.3809 H   0  0  0  0  0  0  0  0  0  0  0  0
    3.8027    7.7983   -0.5761 H   0  0  0  0  0  0  0  0  0  0  0  0
    6.6969    9.0580   -2.4452 H   0  0  0  0  0  0  0  0  0  0  0  0
    7.3378   12.0128    0.6206 H   0  0  0  0  0  0  0  0  0  0  0  0
    5.3010   11.1334    1.7563 H   0  0  0  0  0  0  0  0  0  0  0  0
    6.4107    5.1738   -3.5441 H   0  0  0  0  0  0  0  0  0  0  0  0
    7.0639    2.8947   -4.2232 H   0  0  0  0  0  0  0  0  0  0  0  0
    4.4541   -0.0571   -2.0114 H   0  0  0  0  0  0  0  0  0  0  0  0
  1  2  1  0  0  0  0
  1 27  1  0  0  0  0
  1 28  1  0  0  0  0
  1 29  1  0  0  0  0
  2  3  1  0  0  0  0
  3  4  1  0  0  0  0
  3 26  2  0  0  0  0
  4  5  2  0  0  0  0
  4 30  1  0  0  0  0
  5  6  1  0  0  0  0
  5 31  1  0  0  0  0
  6  7  1  0  0  0  0
  6 25  2  0  0  0  0
  7  8  1  0  0  0  0
  7 22  2  0  0  0  0
  8  9  1  0  0  0  0
  8 32  1  0  0  0  0
  9 10  2  0  0  0  0
  9 11  1  0  0  0  0
 11 12  1  0  0  0  0
 11 33  1  0  0  0  0
 12 13  1  0  0  0  0
 12 21  2  0  0  0  0
 13 14  2  0  0  0  0
 13 34  1  0  0  0  0
 14 15  1  0  0  0  0
 14 19  1  0  0  0  0
 15 16  1  0  0  0  0
 15 17  1  0  0  0  0
 15 18  1  0  0  0  0
 19 20  2  0  0  0  0
 19 35  1  0  0  0  0
 20 21  1  0  0  0  0
 20 36  1  0  0  0  0
 22 23  1  0  0  0  0
 22 37  1  0  0  0  0
 23 24  2  0  0  0  0
 23 38  1  0  0  0  0
 24 25  1  0  0  0  0
 25 26  1  0  0  0  0
 26 39  1  0  0  0  0
M  END
$$$$
