CHEMBL3297898
 OpenBabel04072215363D

 38 40  0  0  0  0  0  0  0  0999 V2000
    1.7171    0.4911   -0.9809 C   0  0  0  0  0  0  0  0  0  0  0  0
    2.4007    0.0272    0.1789 O   0  0  0  0  0  0  0  0  0  0  0  0
    3.1212   -1.1264    0.0406 C   0  0  0  0  0  0  0  0  0  0  0  0
    3.2479   -1.8676   -1.1271 C   0  0  0  0  0  0  0  0  0  0  0  0
    4.0043   -3.0432   -1.1281 C   0  0  0  0  0  0  0  0  0  0  0  0
    4.6070   -3.5478    0.0393 C   0  0  0  0  0  0  0  0  0  0  0  0
    5.2192   -4.8135    0.0278 N   0  0  0  0  0  0  0  0  0  0  0  0
    6.4336   -5.0327    0.8098 C   0  0  0  0  0  0  0  0  0  0  0  0
    4.8114   -5.9321   -0.7329 C   0  0  0  0  0  0  0  0  0  0  0  0
    5.7361   -6.8217   -1.1934 N   0  0  0  0  0  0  0  0  0  0  0  0
    5.3656   -7.8242   -2.0227 C   0  0  0  0  0  0  0  0  0  0  0  0
    6.4602   -8.6991   -2.5542 C   0  0  0  0  0  0  0  0  0  0  0  0
    4.1245   -8.0886   -2.4559 N   0  0  0  0  0  0  0  0  0  0  0  0
    3.2271   -7.2370   -1.9450 C   0  0  0  0  0  0  0  0  0  0  0  0
    1.8961   -7.2916   -2.2548 O   0  0  0  0  0  0  0  0  0  0  0  0
    1.2821   -6.2830   -1.5762 C   0  0  0  0  0  0  0  0  0  0  0  0
   -0.1635   -6.0920   -1.8013 C   0  0  0  0  0  0  0  0  0  0  0  0
    2.1951   -5.6101   -0.8008 C   0  0  0  0  0  0  0  0  0  0  0  0
    3.4682   -6.1817   -1.0837 C   0  0  0  0  0  0  0  0  0  0  0  0
    4.5013   -2.7672    1.1958 C   0  0  0  0  0  0  0  0  0  0  0  0
    3.7694   -1.5703    1.1943 C   0  0  0  0  0  0  0  0  0  0  0  0
    1.2356    1.4408   -0.7315 H   0  0  0  0  0  0  0  0  0  0  0  0
    0.9337   -0.2131   -1.2823 H   0  0  0  0  0  0  0  0  0  0  0  0
    2.4140    0.6808   -1.8040 H   0  0  0  0  0  0  0  0  0  0  0  0
    2.7653   -1.5781   -2.0540 H   0  0  0  0  0  0  0  0  0  0  0  0
    4.0926   -3.5895   -2.0656 H   0  0  0  0  0  0  0  0  0  0  0  0
    6.7909   -4.1283    1.3142 H   0  0  0  0  0  0  0  0  0  0  0  0
    7.2654   -5.3672    0.1785 H   0  0  0  0  0  0  0  0  0  0  0  0
    6.2553   -5.7906    1.5821 H   0  0  0  0  0  0  0  0  0  0  0  0
    7.4282   -8.4267   -2.1224 H   0  0  0  0  0  0  0  0  0  0  0  0
    6.5252   -8.5897   -3.6406 H   0  0  0  0  0  0  0  0  0  0  0  0
    6.2549   -9.7461   -2.3146 H   0  0  0  0  0  0  0  0  0  0  0  0
   -0.5624   -6.8232   -2.5099 H   0  0  0  0  0  0  0  0  0  0  0  0
   -0.3506   -5.0909   -2.2049 H   0  0  0  0  0  0  0  0  0  0  0  0
   -0.7121   -6.1858   -0.8592 H   0  0  0  0  0  0  0  0  0  0  0  0
    1.9801   -4.7735   -0.1516 H   0  0  0  0  0  0  0  0  0  0  0  0
    4.9412   -3.0973    2.1326 H   0  0  0  0  0  0  0  0  0  0  0  0
    3.6856   -0.9929    2.1120 H   0  0  0  0  0  0  0  0  0  0  0  0
  1  2  1  0  0  0  0
  1 22  1  0  0  0  0
  1 23  1  0  0  0  0
  1 24  1  0  0  0  0
  2  3  1  0  0  0  0
  3  4  1  0  0  0  0
  3 21  2  0  0  0  0
  4  5  2  0  0  0  0
  4 25  1  0  0  0  0
  5  6  1  0  0  0  0
  5 26  1  0  0  0  0
  6  7  1  0  0  0  0
  6 20  2  0  0  0  0
  7  8  1  0  0  0  0
  7  9  1  0  0  0  0
  8 27  1  0  0  0  0
  8 28  1  0  0  0  0
  8 29  1  0  0  0  0
  9 10  1  0  0  0  0
  9 19  2  0  0  0  0
 10 11  2  0  0  0  0
 11 12  1  0  0  0  0
 11 13  1  0  0  0  0
 12 30  1  0  0  0  0
 12 31  1  0  0  0  0
 12 32  1  0  0  0  0
 13 14  2  0  0  0  0
 14 15  1  0  0  0  0
 14 19  1  0  0  0  0
 15 16  1  0  0  0  0
 16 17  1  0  0  0  0
 16 18  2  0  0  0  0
 17 33  1  0  0  0  0
 17 34  1  0  0  0  0
 17 35  1  0  0  0  0
 18 19  1  0  0  0  0
 18 36  1  0  0  0  0
 20 21  1  0  0  0  0
 20 37  1  0  0  0  0
 21 38  1  0  0  0  0
M  END
$$$$
