CHEMBL426929
 OpenBabel04072215383D

 43 45  0  0  0  0  0  0  0  0999 V2000
    1.1600   -0.1625    1.3417 C   0  0  0  0  0  0  0  0  0  0  0  0
    2.6242   -0.1097    0.9375 C   0  0  0  0  0  0  0  0  0  0  0  0
    3.2559    1.2409    1.2462 C   0  0  0  0  0  0  0  0  0  0  0  0
    4.6172    1.2362    0.8005 O   0  0  0  0  0  0  0  0  0  0  0  0
    5.1701    2.4878    1.1060 N   0  0  0  0  0  0  0  0  0  0  0  0
    6.4059    2.5463    0.7053 C   0  0  0  0  0  0  0  0  0  0  0  0
    7.2049    3.7674    0.9309 C   0  0  0  0  0  0  0  0  0  0  0  0
    6.8945    4.6675    1.9445 C   0  0  0  0  0  0  0  0  0  0  0  0
    5.9365    4.4014    2.9211 N   0  0  0  0  0  0  0  0  0  0  0  0
    7.5809    5.8062    2.1470 N   0  0  0  0  0  0  0  0  0  0  0  0
    8.5784    6.0613    1.2961 C   0  0  0  0  0  0  0  0  0  0  0  0
    8.9595    5.2752    0.2889 N   0  0  0  0  0  0  0  0  0  0  0  0
    8.2867    4.1105    0.1425 C   0  0  0  0  0  0  0  0  0  0  0  0
    8.7026    3.2462   -0.8677 O   0  0  0  0  0  0  0  0  0  0  0  0
   10.0041    3.3760   -1.3257 C   0  0  0  0  0  0  0  0  0  0  0  0
   11.0905    3.5585   -0.4611 C   0  0  0  0  0  0  0  0  0  0  0  0
   12.3926    3.7081   -0.9425 C   0  0  0  0  0  0  0  0  0  0  0  0
   12.5921    3.5707   -2.3181 C   0  0  0  0  0  0  0  0  0  0  0  0
   13.7579    3.6192   -3.0467 N   0  0  0  0  0  0  0  0  0  0  0  0
   13.5191    3.2546   -4.3474 C   0  0  0  0  0  0  0  0  0  0  0  0
   14.6269    3.0030   -5.3031 C   0  0  0  0  0  0  0  0  0  0  0  0
   12.1485    3.1566   -4.4971 C   0  0  0  0  0  0  0  0  0  0  0  0
   11.5503    3.3196   -3.2118 C   0  0  0  0  0  0  0  0  0  0  0  0
   10.2331    3.2416   -2.7036 C   0  0  0  0  0  0  0  0  0  0  0  0
    9.2050    3.0085   -3.5352 F   0  0  0  0  0  0  0  0  0  0  0  0
    0.7374   -1.1443    1.1085 H   0  0  0  0  0  0  0  0  0  0  0  0
    0.5761    0.5928    0.8054 H   0  0  0  0  0  0  0  0  0  0  0  0
    1.0397    0.0114    2.4163 H   0  0  0  0  0  0  0  0  0  0  0  0
    2.7199   -0.3222   -0.1333 H   0  0  0  0  0  0  0  0  0  0  0  0
    3.1800   -0.9007    1.4550 H   0  0  0  0  0  0  0  0  0  0  0  0
    3.2272    1.4353    2.3262 H   0  0  0  0  0  0  0  0  0  0  0  0
    2.7129    2.0418    0.7300 H   0  0  0  0  0  0  0  0  0  0  0  0
    6.8808    1.7017    0.1801 H   0  0  0  0  0  0  0  0  0  0  0  0
    5.0969    3.9844    2.5187 H   0  0  0  0  0  0  0  0  0  0  0  0
    5.7731    5.2300    3.4810 H   0  0  0  0  0  0  0  0  0  0  0  0
    9.1411    6.9730    1.4539 H   0  0  0  0  0  0  0  0  0  0  0  0
   10.9330    3.6162    0.6149 H   0  0  0  0  0  0  0  0  0  0  0  0
   13.2174    3.8962   -0.2628 H   0  0  0  0  0  0  0  0  0  0  0  0
   14.6701    3.8019   -2.6511 H   0  0  0  0  0  0  0  0  0  0  0  0
   15.6023    3.2287   -4.8566 H   0  0  0  0  0  0  0  0  0  0  0  0
   14.5159    3.6066   -6.2066 H   0  0  0  0  0  0  0  0  0  0  0  0
   14.6336    1.9454   -5.5889 H   0  0  0  0  0  0  0  0  0  0  0  0
   11.6295    2.9130   -5.4155 H   0  0  0  0  0  0  0  0  0  0  0  0
  1  2  1  0  0  0  0
  1 26  1  0  0  0  0
  1 27  1  0  0  0  0
  1 28  1  0  0  0  0
  2  3  1  0  0  0  0
  2 29  1  0  0  0  0
  2 30  1  0  0  0  0
  3  4  1  0  0  0  0
  3 31  1  0  0  0  0
  3 32  1  0  0  0  0
  4  5  1  0  0  0  0
  5  6  2  0  0  0  0
  6  7  1  0  0  0  0
  6 33  1  0  0  0  0
  7  8  1  0  0  0  0
  7 13  2  0  0  0  0
  8  9  1  0  0  0  0
  8 10  2  0  0  0  0
  9 34  1  0  0  0  0
  9 35  1  0  0  0  0
 10 11  1  0  0  0  0
 11 12  2  0  0  0  0
 11 36  1  0  0  0  0
 12 13  1  0  0  0  0
 13 14  1  0  0  0  0
 14 15  1  0  0  0  0
 15 16  1  0  0  0  0
 15 24  2  0  0  0  0
 16 17  2  0  0  0  0
 16 37  1  0  0  0  0
 17 18  1  0  0  0  0
 17 38  1  0  0  0  0
 18 19  1  0  0  0  0
 18 23  2  0  0  0  0
 19 20  1  0  0  0  0
 19 39  1  0  0  0  0
 20 21  1  0  0  0  0
 20 22  2  0  0  0  0
 21 40  1  0  0  0  0
 21 41  1  0  0  0  0
 21 42  1  0  0  0  0
 22 23  1  0  0  0  0
 22 43  1  0  0  0  0
 23 24  1  0  0  0  0
 24 25  1  0  0  0  0
M  END
$$$$
