CHEMBL3912630
 OpenBabel04072215373D

 65 69  0  0  0  0  0  0  0  0999 V2000
    3.4923   -5.4337    3.2006 C   0  0  0  0  0  0  0  0  0  0  0  0
    3.4618   -5.1093    1.8099 O   0  0  0  0  0  0  0  0  0  0  0  0
    4.6711   -5.1460    1.1614 C   0  0  0  0  0  0  0  0  0  0  0  0
    5.7529   -5.9155    1.5565 C   0  0  0  0  0  0  0  0  0  0  0  0
    6.9264   -5.8722    0.8065 C   0  0  0  0  0  0  0  0  0  0  0  0
    8.0057   -6.6759    1.0816 O   0  0  0  0  0  0  0  0  0  0  0  0
    7.6367   -8.0081    1.4527 C   0  0  0  0  0  0  0  0  0  0  0  0
    7.0602   -4.9794   -0.2728 C   0  0  0  0  0  0  0  0  0  0  0  0
    5.9757   -4.2228   -0.7388 C   0  0  0  0  0  0  0  0  0  0  0  0
    6.1020   -3.3115   -1.8273 N   0  0  0  0  0  0  0  0  0  0  0  0
    4.8364   -2.9432   -2.5639 C   0  0  0  0  0  0  0  0  0  0  0  0
    3.8571   -1.9067   -2.0344 C   0  0  0  0  0  0  0  0  0  0  0  0
    4.1702   -0.4218   -1.9886 C   0  0  0  0  0  0  0  0  0  0  0  0
    3.8490   -1.1540   -0.7192 C   0  0  0  0  0  0  0  0  0  0  0  0
    7.2112   -3.1130   -2.7397 C   0  0  0  0  0  0  0  0  0  0  0  0
    7.4415   -1.7845   -3.0751 C   0  0  0  0  0  0  0  0  0  0  0  0
    8.0185   -1.4645   -4.2844 C   0  0  0  0  0  0  0  0  0  0  0  0
    8.5440   -2.4266   -5.1173 C   0  0  0  0  0  0  0  0  0  0  0  0
    8.8657   -1.9821   -6.3315 N   0  0  0  0  0  0  0  0  0  0  0  0
    9.5827   -2.8060   -7.1009 C   0  0  0  0  0  0  0  0  0  0  0  0
   10.0619   -4.0052   -6.6177 C   0  0  0  0  0  0  0  0  0  0  0  0
   11.3457   -4.4215   -7.2071 C   0  0  0  0  0  0  0  0  0  0  0  0
   11.7868   -5.5049   -8.0022 C   0  0  0  0  0  0  0  0  0  0  0  0
   13.0746   -5.3962   -8.3803 N   0  0  0  0  0  0  0  0  0  0  0  0
   13.4742   -4.2254   -7.8437 N   0  0  0  0  0  0  0  0  0  0  0  0
   14.8828   -3.9210   -7.6117 C   0  0  0  0  0  0  0  0  0  0  0  0
   15.8964   -4.1238   -8.7562 C   0  0  0  0  0  0  0  0  0  0  0  0
   15.7085   -3.1252   -9.8980 C   0  0  0  0  0  0  0  0  0  0  0  0
   17.3308   -3.9792   -8.2155 C   0  0  0  0  0  0  0  0  0  0  0  0
   12.4310   -3.5507   -7.2620 C   0  0  0  0  0  0  0  0  0  0  0  0
    9.5795   -4.5386   -5.4359 N   0  0  0  0  0  0  0  0  0  0  0  0
    8.7152   -3.7521   -4.6672 C   0  0  0  0  0  0  0  0  0  0  0  0
    7.9452   -4.0868   -3.4844 C   0  0  0  0  0  0  0  0  0  0  0  0
    4.7742   -4.3591    0.0005 C   0  0  0  0  0  0  0  0  0  0  0  0
    2.5010   -5.2314    3.6195 H   0  0  0  0  0  0  0  0  0  0  0  0
    4.2152   -4.8090    3.7379 H   0  0  0  0  0  0  0  0  0  0  0  0
    3.7012   -6.4971    3.3618 H   0  0  0  0  0  0  0  0  0  0  0  0
    5.6936   -6.5548    2.4280 H   0  0  0  0  0  0  0  0  0  0  0  0
    8.5002   -8.6605    1.2955 H   0  0  0  0  0  0  0  0  0  0  0  0
    6.8142   -8.3927    0.8365 H   0  0  0  0  0  0  0  0  0  0  0  0
    7.3725   -8.0542    2.5146 H   0  0  0  0  0  0  0  0  0  0  0  0
    8.0313   -4.9101   -0.7534 H   0  0  0  0  0  0  0  0  0  0  0  0
    4.2749   -3.8687   -2.7453 H   0  0  0  0  0  0  0  0  0  0  0  0
    5.0666   -2.5885   -3.5792 H   0  0  0  0  0  0  0  0  0  0  0  0
    2.8763   -2.1303   -2.4549 H   0  0  0  0  0  0  0  0  0  0  0  0
    3.4258    0.2689   -2.3765 H   0  0  0  0  0  0  0  0  0  0  0  0
    5.1796   -0.0461   -2.0820 H   0  0  0  0  0  0  0  0  0  0  0  0
    2.8815   -0.9386   -0.2693 H   0  0  0  0  0  0  0  0  0  0  0  0
    4.6428   -1.3031   -0.0007 H   0  0  0  0  0  0  0  0  0  0  0  0
    7.0406   -0.9917   -2.4604 H   0  0  0  0  0  0  0  0  0  0  0  0
    8.0304   -0.4237   -4.5995 H   0  0  0  0  0  0  0  0  0  0  0  0
    9.8579   -2.4213   -8.0679 H   0  0  0  0  0  0  0  0  0  0  0  0
   11.2288   -6.3691   -8.3384 H   0  0  0  0  0  0  0  0  0  0  0  0
   15.1597   -4.5684   -6.7699 H   0  0  0  0  0  0  0  0  0  0  0  0
   14.9356   -2.8855   -7.2515 H   0  0  0  0  0  0  0  0  0  0  0  0
   15.7888   -5.1380   -9.1577 H   0  0  0  0  0  0  0  0  0  0  0  0
   15.9481   -2.1040   -9.5796 H   0  0  0  0  0  0  0  0  0  0  0  0
   14.6838   -3.1359  -10.2774 H   0  0  0  0  0  0  0  0  0  0  0  0
   16.3781   -3.3728  -10.7307 H   0  0  0  0  0  0  0  0  0  0  0  0
   17.5290   -2.9573   -7.8697 H   0  0  0  0  0  0  0  0  0  0  0  0
   18.0666   -4.2120   -8.9938 H   0  0  0  0  0  0  0  0  0  0  0  0
   17.5120   -4.6571   -7.3749 H   0  0  0  0  0  0  0  0  0  0  0  0
   12.5657   -2.5492   -6.8747 H   0  0  0  0  0  0  0  0  0  0  0  0
    7.8860   -5.1383   -3.1966 H   0  0  0  0  0  0  0  0  0  0  0  0
    3.8804   -3.8122   -0.2795 H   0  0  0  0  0  0  0  0  0  0  0  0
  1  2  1  0  0  0  0
  1 35  1  0  0  0  0
  1 36  1  0  0  0  0
  1 37  1  0  0  0  0
  2  3  1  0  0  0  0
  3  4  1  0  0  0  0
  3 34  2  0  0  0  0
  4  5  2  0  0  0  0
  4 38  1  0  0  0  0
  5  6  1  0  0  0  0
  5  8  1  0  0  0  0
  6  7  1  0  0  0  0
  7 39  1  0  0  0  0
  7 40  1  0  0  0  0
  7 41  1  0  0  0  0
  8  9  2  0  0  0  0
  8 42  1  0  0  0  0
  9 10  1  0  0  0  0
  9 34  1  0  0  0  0
 10 11  1  0  0  0  0
 10 15  1  0  0  0  0
 11 12  1  0  0  0  0
 11 43  1  0  0  0  0
 11 44  1  0  0  0  0
 12 13  1  0  0  0  0
 12 14  1  0  0  0  0
 12 45  1  0  0  0  0
 13 14  1  0  0  0  0
 13 46  1  0  0  0  0
 13 47  1  0  0  0  0
 14 48  1  0  0  0  0
 14 49  1  0  0  0  0
 15 16  1  0  0  0  0
 15 33  2  0  0  0  0
 16 17  2  0  0  0  0
 16 50  1  0  0  0  0
 17 18  1  0  0  0  0
 17 51  1  0  0  0  0
 18 19  1  0  0  0  0
 18 32  2  0  0  0  0
 19 20  2  0  0  0  0
 20 21  1  0  0  0  0
 20 52  1  0  0  0  0
 21 22  1  0  0  0  0
 21 31  2  0  0  0  0
 22 23  1  0  0  0  0
 22 30  2  0  0  0  0
 23 24  2  0  0  0  0
 23 53  1  0  0  0  0
 24 25  1  0  0  0  0
 25 26  1  0  0  0  0
 25 30  1  0  0  0  0
 26 27  1  0  0  0  0
 26 54  1  0  0  0  0
 26 55  1  0  0  0  0
 27 28  1  0  0  0  0
 27 29  1  0  0  0  0
 27 56  1  0  0  0  0
 28 57  1  0  0  0  0
 28 58  1  0  0  0  0
 28 59  1  0  0  0  0
 29 60  1  0  0  0  0
 29 61  1  0  0  0  0
 29 62  1  0  0  0  0
 30 63  1  0  0  0  0
 31 32  1  0  0  0  0
 32 33  1  0  0  0  0
 33 64  1  0  0  0  0
 34 65  1  0  0  0  0
M  END
$$$$
