CHEMBL3648127
 OpenBabel04072215373D

 43 44  0  0  1  0  0  0  0  0999 V2000
    8.5266    0.8639    1.5812 C   0  0  0  0  0  0  0  0  0  0  0  0
    7.4672   -0.1756    1.2405 C   0  0  0  0  0  0  0  0  0  0  0  0
    6.0253    0.3121    1.4666 C   0  0  3  0  0  0  0  0  0  0  0  0
    5.6922    1.5246    0.5740 C   0  0  0  0  0  0  0  0  0  0  0  0
    4.3719    2.0137    0.7987 O   0  0  0  0  0  0  0  0  0  0  0  0
    4.8301   -1.0533    1.0658 S   0  0  0  0  0  0  0  0  0  0  0  0
    5.2852   -2.3064    2.2660 C   0  0  0  0  0  0  0  0  0  0  0  0
    5.7192   -1.8464    3.4579 N   0  0  0  0  0  0  0  0  0  0  0  0
    6.0983   -2.7252    4.3965 C   0  0  0  0  0  0  0  0  0  0  0  0
    6.6060   -2.2885    5.6188 N   0  0  0  0  0  0  0  0  0  0  0  0
    6.5127   -1.0496    6.2657 C   0  0  0  0  0  0  0  0  0  0  0  0
    5.6696   -0.0247    5.8163 C   0  0  0  0  0  0  0  0  0  0  0  0
    5.6529    1.2289    6.4263 C   0  0  0  0  0  0  0  0  0  0  0  0
    6.4925    1.4797    7.5034 C   0  0  0  0  0  0  0  0  0  0  0  0
    6.5119    3.1108    8.2219 S   0  0  3  0  0  0  0  0  0  0  0  0
    6.0000    2.8339    9.8976 C   0  0  0  0  0  0  0  0  0  0  0  0
    7.9908    3.5455    8.2200 N   0  0  0  0  0  0  0  0  0  0  0  0
    5.4363    3.8648    7.6063 O   0  0  0  0  0  0  0  0  0  0  0  0
    7.3475    0.4802    7.9792 C   0  0  0  0  0  0  0  0  0  0  0  0
    7.3554   -0.7739    7.3538 C   0  0  0  0  0  0  0  0  0  0  0  0
    6.0509   -4.0512    4.2153 N   0  0  0  0  0  0  0  0  0  0  0  0
    5.5787   -4.4864    3.0262 C   0  0  0  0  0  0  0  0  0  0  0  0
    5.1904   -3.6583    1.9979 C   0  0  0  0  0  0  0  0  0  0  0  0
    4.6157   -4.4137    0.3692 Br  0  0  0  0  0  0  0  0  0  0  0  0
    9.5177    0.3982    1.5732 H   0  0  0  0  0  0  0  0  0  0  0  0
    8.3599    1.2894    2.5755 H   0  0  0  0  0  0  0  0  0  0  0  0
    8.5415    1.6756    0.8483 H   0  0  0  0  0  0  0  0  0  0  0  0
    7.6744   -1.0532    1.8616 H   0  0  0  0  0  0  0  0  0  0  0  0
    7.6045   -0.4886    0.1979 H   0  0  0  0  0  0  0  0  0  0  0  0
    5.8649    0.5988    2.5120 H   0  0  0  0  0  0  0  0  0  0  0  0
    5.7985    1.2889   -0.4911 H   0  0  0  0  0  0  0  0  0  0  0  0
    6.3668    2.3577    0.7923 H   0  0  0  0  0  0  0  0  0  0  0  0
    3.7639    1.2839    0.5828 H   0  0  0  0  0  0  0  0  0  0  0  0
    6.9528   -3.0695    6.1554 H   0  0  0  0  0  0  0  0  0  0  0  0
    4.9951   -0.1810    4.9788 H   0  0  0  0  0  0  0  0  0  0  0  0
    4.9908    1.9991    6.0328 H   0  0  0  0  0  0  0  0  0  0  0  0
    6.7139    2.1842   10.4055 H   0  0  0  0  0  0  0  0  0  0  0  0
    5.0055    2.3814    9.8922 H   0  0  0  0  0  0  0  0  0  0  0  0
    5.9528    3.8033   10.4004 H   0  0  0  0  0  0  0  0  0  0  0  0
    8.5465    3.1184    8.9583 H   0  0  0  0  0  0  0  0  0  0  0  0
    8.0295    0.6649    8.8035 H   0  0  0  0  0  0  0  0  0  0  0  0
    8.0517   -1.5310    7.7102 H   0  0  0  0  0  0  0  0  0  0  0  0
    5.5297   -5.5679    2.9339 H   0  0  0  0  0  0  0  0  0  0  0  0
  1  2  1  0  0  0  0
  1 25  1  0  0  0  0
  1 26  1  0  0  0  0
  1 27  1  0  0  0  0
  2  3  1  0  0  0  0
  2 28  1  0  0  0  0
  2 29  1  0  0  0  0
  3  4  1  0  0  0  0
  3  6  1  0  0  0  0
  3 30  1  0  0  0  0
  4  5  1  0  0  0  0
  4 31  1  0  0  0  0
  4 32  1  0  0  0  0
  5 33  1  0  0  0  0
  6  7  1  0  0  0  0
  7  8  1  0  0  0  0
  7 23  2  0  0  0  0
  8  9  2  0  0  0  0
  9 10  1  0  0  0  0
  9 21  1  0  0  0  0
 10 11  1  0  0  0  0
 10 34  1  0  0  0  0
 11 12  1  0  0  0  0
 11 20  2  0  0  0  0
 12 13  2  0  0  0  0
 12 35  1  0  0  0  0
 13 14  1  0  0  0  0
 13 36  1  0  0  0  0
 14 15  1  0  0  0  0
 14 19  2  0  0  0  0
 15 16  1  0  0  0  0
 15 17  2  0  0  0  0
 15 18  2  0  0  0  0
 16 37  1  0  0  0  0
 16 38  1  0  0  0  0
 16 39  1  0  0  0  0
 17 40  1  0  0  0  0
 19 20  1  0  0  0  0
 19 41  1  0  0  0  0
 20 42  1  0  0  0  0
 21 22  2  0  0  0  0
 22 23  1  0  0  0  0
 22 43  1  0  0  0  0
 23 24  1  0  0  0  0
M  END
$$$$
