CHEMBL3938361
 OpenBabel04072215373D

 61 66  0  0  0  0  0  0  0  0999 V2000
   -2.9501   -2.6710    0.3979 C   0  0  0  0  0  0  0  0  0  0  0  0
   -1.5297   -2.1943    0.4894 C   0  0  0  0  0  0  0  0  0  0  0  0
   -1.1013   -1.4701    1.5952 C   0  0  0  0  0  0  0  0  0  0  0  0
    0.2124   -1.0278    1.6191 C   0  0  0  0  0  0  0  0  0  0  0  0
    1.0629   -1.3149    0.5530 C   0  0  0  0  0  0  0  0  0  0  0  0
    2.4007   -0.8700    0.5391 C   0  0  0  0  0  0  0  0  0  0  0  0
    3.2508   -1.1480   -0.5298 C   0  0  0  0  0  0  0  0  0  0  0  0
    4.5996   -0.7254   -0.5890 N   0  0  0  0  0  0  0  0  0  0  0  0
    5.3226   -0.1728    0.4509 C   0  0  0  0  0  0  0  0  0  0  0  0
    4.8900    0.0109    1.5855 O   0  0  0  0  0  0  0  0  0  0  0  0
    6.7419    0.2339    0.2108 C   0  0  0  0  0  0  0  0  0  0  0  0
    7.2060    1.2509    1.0726 C   0  0  0  0  0  0  0  0  0  0  0  0
    8.5396    1.6527    1.0778 C   0  0  0  0  0  0  0  0  0  0  0  0
    9.4398    1.0412    0.2191 C   0  0  0  0  0  0  0  0  0  0  0  0
    8.9933    0.0670   -0.6741 C   0  0  0  0  0  0  0  0  0  0  0  0
    7.6437   -0.3400   -0.7019 C   0  0  0  0  0  0  0  0  0  0  0  0
    7.2242   -1.4796   -1.9972 S   0  0  0  0  0  0  0  0  0  0  0  0
    7.2961   -3.1045   -1.2668 C   0  0  0  0  0  0  0  0  0  0  0  0
    7.8828   -3.4369   -0.0359 C   0  0  0  0  0  0  0  0  0  0  0  0
    7.9896   -4.7844    0.3887 C   0  0  0  0  0  0  0  0  0  0  0  0
    7.3560   -5.7796   -0.3786 C   0  0  0  0  0  0  0  0  0  0  0  0
    7.1952   -7.2088   -0.4386 C   0  0  0  0  0  0  0  0  0  0  0  0
    8.0819   -8.1807   -1.0722 C   0  0  0  0  0  0  0  0  0  0  0  0
    9.0355   -7.8611   -1.9644 C   0  0  0  0  0  0  0  0  0  0  0  0
    9.2865   -8.6732   -3.1832 C   0  0  0  0  0  0  0  0  0  0  0  0
   10.2726   -8.2820   -4.0892 C   0  0  0  0  0  0  0  0  0  0  0  0
   10.3331   -8.9047   -5.3381 C   0  0  0  0  0  0  0  0  0  0  0  0
    9.4155   -9.8957   -5.6644 C   0  0  0  0  0  0  0  0  0  0  0  0
    8.4699  -10.2309   -4.7041 C   0  0  0  0  0  0  0  0  0  0  0  0
    8.3961   -9.6472   -3.4808 N   0  0  0  0  0  0  0  0  0  0  0  0
    5.9022   -7.4072   -0.7835 N   0  0  0  0  0  0  0  0  0  0  0  0
    5.7248   -6.4107   -1.6754 N   0  0  0  0  0  0  0  0  0  0  0  0
    6.5714   -5.3579   -1.4476 C   0  0  0  0  0  0  0  0  0  0  0  0
    6.6498   -4.0937   -2.0171 C   0  0  0  0  0  0  0  0  0  0  0  0
    2.7350   -1.8766   -1.6071 C   0  0  0  0  0  0  0  0  0  0  0  0
    1.4067   -2.3289   -1.5895 C   0  0  0  0  0  0  0  0  0  0  0  0
    0.5554   -2.0597   -0.5279 C   0  0  0  0  0  0  0  0  0  0  0  0
   -0.7268   -2.4897   -0.5560 N   0  0  0  0  0  0  0  0  0  0  0  0
   -3.4922   -2.5181    1.3364 H   0  0  0  0  0  0  0  0  0  0  0  0
   -2.9685   -3.7401    0.1662 H   0  0  0  0  0  0  0  0  0  0  0  0
   -3.4690   -2.1238   -0.3943 H   0  0  0  0  0  0  0  0  0  0  0  0
   -1.7691   -1.2386    2.4138 H   0  0  0  0  0  0  0  0  0  0  0  0
    0.5511   -0.4563    2.4820 H   0  0  0  0  0  0  0  0  0  0  0  0
    2.7356   -0.2939    1.3887 H   0  0  0  0  0  0  0  0  0  0  0  0
    5.0969   -0.9106   -1.4534 H   0  0  0  0  0  0  0  0  0  0  0  0
    6.5166    1.7317    1.7662 H   0  0  0  0  0  0  0  0  0  0  0  0
    8.8685    2.4304    1.7622 H   0  0  0  0  0  0  0  0  0  0  0  0
   10.4891    1.3278    0.2342 H   0  0  0  0  0  0  0  0  0  0  0  0
    9.7172   -0.3793   -1.3554 H   0  0  0  0  0  0  0  0  0  0  0  0
    8.2696   -2.6629    0.6225 H   0  0  0  0  0  0  0  0  0  0  0  0
    8.4491   -5.0216    1.3451 H   0  0  0  0  0  0  0  0  0  0  0  0
    7.6379   -9.1785   -1.1349 H   0  0  0  0  0  0  0  0  0  0  0  0
    9.4627   -6.8652   -1.9866 H   0  0  0  0  0  0  0  0  0  0  0  0
   10.9507   -7.4697   -3.8597 H   0  0  0  0  0  0  0  0  0  0  0  0
   11.0793   -8.5956   -6.0683 H   0  0  0  0  0  0  0  0  0  0  0  0
    9.4199  -10.3817   -6.6283 H   0  0  0  0  0  0  0  0  0  0  0  0
    7.7146  -10.9858   -4.9056 H   0  0  0  0  0  0  0  0  0  0  0  0
    4.9459   -6.4653   -2.3139 H   0  0  0  0  0  0  0  0  0  0  0  0
    6.1500   -3.8740   -2.9548 H   0  0  0  0  0  0  0  0  0  0  0  0
    3.3596   -2.1210   -2.4624 H   0  0  0  0  0  0  0  0  0  0  0  0
    1.0279   -2.9051   -2.4280 H   0  0  0  0  0  0  0  0  0  0  0  0
  1  2  1  0  0  0  0
  1 39  1  0  0  0  0
  1 40  1  0  0  0  0
  1 41  1  0  0  0  0
  2  3  1  0  0  0  0
  2 38  2  0  0  0  0
  3  4  2  0  0  0  0
  3 42  1  0  0  0  0
  4  5  1  0  0  0  0
  4 43  1  0  0  0  0
  5  6  1  0  0  0  0
  5 37  2  0  0  0  0
  6  7  2  0  0  0  0
  6 44  1  0  0  0  0
  7  8  1  0  0  0  0
  7 35  1  0  0  0  0
  8  9  1  0  0  0  0
  8 45  1  0  0  0  0
  9 10  2  0  0  0  0
  9 11  1  0  0  0  0
 11 12  1  0  0  0  0
 11 16  2  0  0  0  0
 12 13  2  0  0  0  0
 12 46  1  0  0  0  0
 13 14  1  0  0  0  0
 13 47  1  0  0  0  0
 14 15  2  0  0  0  0
 14 48  1  0  0  0  0
 15 16  1  0  0  0  0
 15 49  1  0  0  0  0
 16 17  1  0  0  0  0
 17 18  1  0  0  0  0
 18 19  1  0  0  0  0
 18 34  2  0  0  0  0
 19 20  2  0  0  0  0
 19 50  1  0  0  0  0
 20 21  1  0  0  0  0
 20 51  1  0  0  0  0
 21 22  1  0  0  0  0
 21 33  2  0  0  0  0
 22 23  1  0  0  0  0
 22 31  2  0  0  0  0
 23 24  2  0  0  0  0
 23 52  1  0  0  0  0
 24 25  1  0  0  0  0
 24 53  1  0  0  0  0
 25 26  1  0  0  0  0
 25 30  2  0  0  0  0
 26 27  2  0  0  0  0
 26 54  1  0  0  0  0
 27 28  1  0  0  0  0
 27 55  1  0  0  0  0
 28 29  2  0  0  0  0
 28 56  1  0  0  0  0
 29 30  1  0  0  0  0
 29 57  1  0  0  0  0
 31 32  1  0  0  0  0
 32 33  1  0  0  0  0
 32 58  1  0  0  0  0
 33 34  1  0  0  0  0
 34 59  1  0  0  0  0
 35 36  2  0  0  0  0
 35 60  1  0  0  0  0
 36 37  1  0  0  0  0
 36 61  1  0  0  0  0
 37 38  1  0  0  0  0
M  END
$$$$
