CHEMBL2011297
 OpenBabel04072215363D

 41 44  0  0  0  0  0  0  0  0999 V2000
   -2.8171    0.1488   -0.1917 N   0  0  0  0  0  0  0  0  0  0  0  0
   -1.6549    0.1225   -0.1032 C   0  0  0  0  0  0  0  0  0  0  0  0
   -0.2223    0.0933    0.0093 C   0  0  0  0  0  0  0  0  0  0  0  0
    0.4953   -1.0413   -0.3813 C   0  0  0  0  0  0  0  0  0  0  0  0
    1.8930   -1.0598   -0.2981 C   0  0  0  0  0  0  0  0  0  0  0  0
    2.5969    0.0474    0.2170 C   0  0  0  0  0  0  0  0  0  0  0  0
    4.0233   -0.0105    0.2924 N   0  0  0  0  0  0  0  0  0  0  0  0
    4.6948   -0.7873   -0.5933 N   0  0  0  0  0  0  0  0  0  0  0  0
    5.9906   -0.5055   -0.4062 C   0  0  0  0  0  0  0  0  0  0  0  0
    7.0025   -1.0419   -1.3299 C   0  0  0  0  0  0  0  0  0  0  0  0
    8.1628   -0.3186   -1.6268 C   0  0  0  0  0  0  0  0  0  0  0  0
    9.1789   -0.9455   -2.3263 C   0  0  0  0  0  0  0  0  0  0  0  0
    9.0813   -2.1942   -2.8215 N   0  0  0  0  0  0  0  0  0  0  0  0
    7.9119   -2.8381   -2.6160 C   0  0  0  0  0  0  0  0  0  0  0  0
    6.8594   -2.3158   -1.8813 C   0  0  0  0  0  0  0  0  0  0  0  0
    6.1855    0.2805    0.7870 C   0  0  0  0  0  0  0  0  0  0  0  0
    7.4456    0.6713    1.4486 C   0  0  0  0  0  0  0  0  0  0  0  0
    7.6033    1.9164    2.0745 C   0  0  0  0  0  0  0  0  0  0  0  0
    8.8550    2.3289    2.5515 C   0  0  0  0  0  0  0  0  0  0  0  0
    9.9695    1.5241    2.3577 C   0  0  0  0  0  0  0  0  0  0  0  0
   11.1790    1.9618    2.7298 F   0  0  0  0  0  0  0  0  0  0  0  0
    9.8430    0.2770    1.7707 C   0  0  0  0  0  0  0  0  0  0  0  0
    8.5771   -0.1680    1.3762 C   0  0  0  0  0  0  0  0  0  0  0  0
    4.8970    0.6143    1.1974 C   0  0  0  0  0  0  0  0  0  0  0  0
    4.4719    1.3213    2.2865 N   0  0  0  0  0  0  0  0  0  0  0  0
    1.8745    1.1847    0.6020 C   0  0  0  0  0  0  0  0  0  0  0  0
    0.4752    1.2078    0.4909 C   0  0  0  0  0  0  0  0  0  0  0  0
   -0.0274   -1.9200   -0.7603 H   0  0  0  0  0  0  0  0  0  0  0  0
    2.4257   -1.9587   -0.6078 H   0  0  0  0  0  0  0  0  0  0  0  0
    8.3142    0.6935   -1.2665 H   0  0  0  0  0  0  0  0  0  0  0  0
   10.1330   -0.4509   -2.4867 H   0  0  0  0  0  0  0  0  0  0  0  0
    7.8485   -3.8278   -3.0588 H   0  0  0  0  0  0  0  0  0  0  0  0
    5.9596   -2.9013   -1.7255 H   0  0  0  0  0  0  0  0  0  0  0  0
    6.7698    2.6066    2.1674 H   0  0  0  0  0  0  0  0  0  0  0  0
    8.9722    3.2918    3.0383 H   0  0  0  0  0  0  0  0  0  0  0  0
   10.7244   -0.3351    1.6020 H   0  0  0  0  0  0  0  0  0  0  0  0
    8.5105   -1.1655    0.9453 H   0  0  0  0  0  0  0  0  0  0  0  0
    5.1211    1.4600    3.0586 H   0  0  0  0  0  0  0  0  0  0  0  0
    3.5238    1.1944    2.6363 H   0  0  0  0  0  0  0  0  0  0  0  0
    2.3827    2.0905    0.9275 H   0  0  0  0  0  0  0  0  0  0  0  0
   -0.0662    2.1153    0.7636 H   0  0  0  0  0  0  0  0  0  0  0  0
  1  2  3  0  0  0  0
  2  3  1  0  0  0  0
  3  4  1  0  0  0  0
  3 27  2  0  0  0  0
  4  5  2  0  0  0  0
  4 28  1  0  0  0  0
  5  6  1  0  0  0  0
  5 29  1  0  0  0  0
  6  7  1  0  0  0  0
  6 26  2  0  0  0  0
  7  8  1  0  0  0  0
  7 24  1  0  0  0  0
  8  9  2  0  0  0  0
  9 10  1  0  0  0  0
  9 16  1  0  0  0  0
 10 11  1  0  0  0  0
 10 15  2  0  0  0  0
 11 12  2  0  0  0  0
 11 30  1  0  0  0  0
 12 13  1  0  0  0  0
 12 31  1  0  0  0  0
 13 14  2  0  0  0  0
 14 15  1  0  0  0  0
 14 32  1  0  0  0  0
 15 33  1  0  0  0  0
 16 17  1  0  0  0  0
 16 24  2  0  0  0  0
 17 18  1  0  0  0  0
 17 23  2  0  0  0  0
 18 19  2  0  0  0  0
 18 34  1  0  0  0  0
 19 20  1  0  0  0  0
 19 35  1  0  0  0  0
 20 21  1  0  0  0  0
 20 22  2  0  0  0  0
 22 23  1  0  0  0  0
 22 36  1  0  0  0  0
 23 37  1  0  0  0  0
 24 25  1  0  0  0  0
 25 38  1  0  0  0  0
 25 39  1  0  0  0  0
 26 27  1  0  0  0  0
 26 40  1  0  0  0  0
 27 41  1  0  0  0  0
M  END
$$$$
