CHEMBL215019
 OpenBabel04072215363D

 51 54  0  0  0  0  0  0  0  0999 V2000
    0.9796    0.5313    0.3822 C   0  0  0  0  0  0  0  0  0  0  0  0
    2.1309   -0.0680   -0.2472 N   0  0  0  0  0  0  0  0  0  0  0  0
    2.8186    0.7566   -1.1226 C   0  0  0  0  0  0  0  0  0  0  0  0
    3.4434    0.1299   -2.1249 N   0  0  0  0  0  0  0  0  0  0  0  0
    4.1844    0.8975   -2.9430 C   0  0  0  0  0  0  0  0  0  0  0  0
    4.3130    2.2686   -2.8073 C   0  0  0  0  0  0  0  0  0  0  0  0
    5.1269    3.0646   -3.6416 C   0  0  0  0  0  0  0  0  0  0  0  0
    5.1611    4.4616   -3.5280 C   0  0  0  0  0  0  0  0  0  0  0  0
    5.9854    5.3246   -4.4262 C   0  0  0  0  0  0  0  0  0  0  0  0
    6.6034    6.4873   -3.8828 C   0  0  0  0  0  0  0  0  0  0  0  0
    7.3328    7.3785   -4.6783 C   0  0  0  0  0  0  0  0  0  0  0  0
    7.8506    8.6858   -4.1911 C   0  0  0  0  0  0  0  0  0  0  0  0
    7.9071    9.5970   -5.0155 O   0  0  0  0  0  0  0  0  0  0  0  0
    8.2776    8.7699   -2.8709 N   0  0  0  0  0  0  0  0  0  0  0  0
    8.8064    9.9452   -2.2753 C   0  0  0  0  0  0  0  0  0  0  0  0
    8.6345   11.2153   -2.8272 C   0  0  0  0  0  0  0  0  0  0  0  0
    9.2259   12.3378   -2.2426 C   0  0  0  0  0  0  0  0  0  0  0  0
   10.0009   12.2154   -1.0872 C   0  0  0  0  0  0  0  0  0  0  0  0
   10.6960   13.6716   -0.4801 Cl  0  0  0  0  0  0  0  0  0  0  0  0
   10.1736   10.9623   -0.4927 C   0  0  0  0  0  0  0  0  0  0  0  0
   10.9958   10.7261    0.7489 C   0  0  0  0  0  0  0  0  0  0  0  0
   11.6731   11.7917    1.2475 F   0  0  0  0  0  0  0  0  0  0  0  0
   10.2300   10.2642    1.7786 F   0  0  0  0  0  0  0  0  0  0  0  0
   11.9419    9.7638    0.5446 F   0  0  0  0  0  0  0  0  0  0  0  0
    9.5469    9.8346   -1.0913 C   0  0  0  0  0  0  0  0  0  0  0  0
    7.5016    7.1038   -6.0350 C   0  0  0  0  0  0  0  0  0  0  0  0
    6.9350    5.9653   -6.5937 C   0  0  0  0  0  0  0  0  0  0  0  0
    6.1562    5.0838   -5.8194 C   0  0  0  0  0  0  0  0  0  0  0  0
    5.5276    3.9369   -6.5729 C   0  0  0  0  0  0  0  0  0  0  0  0
    4.3775    5.0121   -2.4978 C   0  0  0  0  0  0  0  0  0  0  0  0
    3.6226    4.2054   -1.6299 C   0  0  0  0  0  0  0  0  0  0  0  0
    3.5735    2.8278   -1.7721 C   0  0  0  0  0  0  0  0  0  0  0  0
    2.8403    2.0844   -0.9335 N   0  0  0  0  0  0  0  0  0  0  0  0
    0.4910   -0.2130    1.0187 H   0  0  0  0  0  0  0  0  0  0  0  0
    0.2478    0.8706   -0.3589 H   0  0  0  0  0  0  0  0  0  0  0  0
    1.2621    1.3719    1.0257 H   0  0  0  0  0  0  0  0  0  0  0  0
    1.9715   -0.9406   -0.7377 H   0  0  0  0  0  0  0  0  0  0  0  0
    4.6825    0.3573   -3.7431 H   0  0  0  0  0  0  0  0  0  0  0  0
    5.7459    2.5559   -4.3724 H   0  0  0  0  0  0  0  0  0  0  0  0
    6.4689    6.7200   -2.8294 H   0  0  0  0  0  0  0  0  0  0  0  0
    8.3783    7.9058   -2.3549 H   0  0  0  0  0  0  0  0  0  0  0  0
    8.0351   11.3790   -3.7153 H   0  0  0  0  0  0  0  0  0  0  0  0
    9.0820   13.3078   -2.7139 H   0  0  0  0  0  0  0  0  0  0  0  0
    9.6843    8.8576   -0.6276 H   0  0  0  0  0  0  0  0  0  0  0  0
    8.0516    7.7926   -6.6725 H   0  0  0  0  0  0  0  0  0  0  0  0
    7.0722    5.7928   -7.6591 H   0  0  0  0  0  0  0  0  0  0  0  0
    5.5993    4.0852   -7.6565 H   0  0  0  0  0  0  0  0  0  0  0  0
    4.4617    3.8445   -6.3404 H   0  0  0  0  0  0  0  0  0  0  0  0
    6.0565    3.0016   -6.3644 H   0  0  0  0  0  0  0  0  0  0  0  0
    4.3340    6.0889   -2.3439 H   0  0  0  0  0  0  0  0  0  0  0  0
    3.0530    4.6708   -0.8285 H   0  0  0  0  0  0  0  0  0  0  0  0
  1  2  1  0  0  0  0
  1 34  1  0  0  0  0
  1 35  1  0  0  0  0
  1 36  1  0  0  0  0
  2  3  1  0  0  0  0
  2 37  1  0  0  0  0
  3  4  1  0  0  0  0
  3 33  2  0  0  0  0
  4  5  2  0  0  0  0
  5  6  1  0  0  0  0
  5 38  1  0  0  0  0
  6  7  1  0  0  0  0
  6 32  2  0  0  0  0
  7  8  2  0  0  0  0
  7 39  1  0  0  0  0
  8  9  1  0  0  0  0
  8 30  1  0  0  0  0
  9 10  1  0  0  0  0
  9 28  2  0  0  0  0
 10 11  2  0  0  0  0
 10 40  1  0  0  0  0
 11 12  1  0  0  0  0
 11 26  1  0  0  0  0
 12 13  2  0  0  0  0
 12 14  1  0  0  0  0
 14 15  1  0  0  0  0
 14 41  1  0  0  0  0
 15 16  1  0  0  0  0
 15 25  2  0  0  0  0
 16 17  2  0  0  0  0
 16 42  1  0  0  0  0
 17 18  1  0  0  0  0
 17 43  1  0  0  0  0
 18 19  1  0  0  0  0
 18 20  2  0  0  0  0
 20 21  1  0  0  0  0
 20 25  1  0  0  0  0
 21 22  1  0  0  0  0
 21 23  1  0  0  0  0
 21 24  1  0  0  0  0
 25 44  1  0  0  0  0
 26 27  2  0  0  0  0
 26 45  1  0  0  0  0
 27 28  1  0  0  0  0
 27 46  1  0  0  0  0
 28 29  1  0  0  0  0
 29 47  1  0  0  0  0
 29 48  1  0  0  0  0
 29 49  1  0  0  0  0
 30 31  2  0  0  0  0
 30 50  1  0  0  0  0
 31 32  1  0  0  0  0
 31 51  1  0  0  0  0
 32 33  1  0  0  0  0
M  END
$$$$
