CHEMBL523320
 OpenBabel04072215383D

 48 51  0  0  0  0  0  0  0  0999 V2000
    2.0304   -2.7206   -0.9887 C   0  0  0  0  0  0  0  0  0  0  0  0
    0.6632   -2.1241   -0.7951 C   0  0  0  0  0  0  0  0  0  0  0  0
   -0.0346   -1.6775   -1.9303 C   0  0  0  0  0  0  0  0  0  0  0  0
   -1.3256   -1.1505   -1.8277 C   0  0  0  0  0  0  0  0  0  0  0  0
   -1.9429   -1.0606   -0.5806 C   0  0  0  0  0  0  0  0  0  0  0  0
   -3.2757   -0.5962   -0.4512 N   0  0  0  0  0  0  0  0  0  0  0  0
   -4.1312   -0.1452   -1.4280 C   0  0  0  0  0  0  0  0  0  0  0  0
   -5.3112    0.1222   -0.7685 C   0  0  0  0  0  0  0  0  0  0  0  0
   -6.5303    0.6445   -1.3718 C   0  0  0  0  0  0  0  0  0  0  0  0
   -6.8552    0.1677   -2.6648 C   0  0  0  0  0  0  0  0  0  0  0  0
   -8.0377    0.5313   -3.3046 C   0  0  0  0  0  0  0  0  0  0  0  0
   -8.9334    1.3602   -2.6527 C   0  0  0  0  0  0  0  0  0  0  0  0
   -8.6226    1.8512   -1.3779 C   0  0  0  0  0  0  0  0  0  0  0  0
   -7.4099    1.5457   -0.7200 C   0  0  0  0  0  0  0  0  0  0  0  0
   -7.2208    2.1696    0.5126 N   0  0  0  0  0  0  0  0  0  0  0  0
   -5.9216    2.5171    1.0664 C   0  0  0  0  0  0  0  0  0  0  0  0
   -5.8703    3.9771    1.4468 C   0  0  0  0  0  0  0  0  0  0  0  0
   -5.6074    4.3690    2.7617 C   0  0  0  0  0  0  0  0  0  0  0  0
   -5.4713    5.7206    3.0351 C   0  0  0  0  0  0  0  0  0  0  0  0
   -5.5819    6.6917    2.1031 N   0  0  0  0  0  0  0  0  0  0  0  0
   -5.8427    6.2927    0.8405 C   0  0  0  0  0  0  0  0  0  0  0  0
   -5.9951    4.9679    0.4683 C   0  0  0  0  0  0  0  0  0  0  0  0
   -5.1610   -0.1924    0.5515 N   0  0  0  0  0  0  0  0  0  0  0  0
   -3.9082   -0.5778    0.7462 N   0  0  0  0  0  0  0  0  0  0  0  0
   -1.2435   -1.4768    0.5618 C   0  0  0  0  0  0  0  0  0  0  0  0
    0.0556   -2.0222    0.4730 C   0  0  0  0  0  0  0  0  0  0  0  0
    0.6988   -2.4739    1.7700 C   0  0  0  0  0  0  0  0  0  0  0  0
    1.8984   -3.1015    1.6358 F   0  0  0  0  0  0  0  0  0  0  0  0
    0.9211   -1.4329    2.6208 F   0  0  0  0  0  0  0  0  0  0  0  0
   -0.0931   -3.3479    2.4545 F   0  0  0  0  0  0  0  0  0  0  0  0
    2.3437   -2.6773   -2.0377 H   0  0  0  0  0  0  0  0  0  0  0  0
    2.0255   -3.7746   -0.6937 H   0  0  0  0  0  0  0  0  0  0  0  0
    2.7746   -2.1695   -0.4052 H   0  0  0  0  0  0  0  0  0  0  0  0
    0.4185   -1.7512   -2.9166 H   0  0  0  0  0  0  0  0  0  0  0  0
   -1.8192   -0.8389   -2.7451 H   0  0  0  0  0  0  0  0  0  0  0  0
   -3.8472   -0.0534   -2.4632 H   0  0  0  0  0  0  0  0  0  0  0  0
   -6.1932   -0.5246   -3.1813 H   0  0  0  0  0  0  0  0  0  0  0  0
   -8.2664    0.1463   -4.2947 H   0  0  0  0  0  0  0  0  0  0  0  0
   -9.8744    1.6291   -3.1197 H   0  0  0  0  0  0  0  0  0  0  0  0
   -9.3494    2.5027   -0.8964 H   0  0  0  0  0  0  0  0  0  0  0  0
   -7.9761    2.7646    0.8339 H   0  0  0  0  0  0  0  0  0  0  0  0
   -5.0942    2.3678    0.3684 H   0  0  0  0  0  0  0  0  0  0  0  0
   -5.7433    1.8985    1.9532 H   0  0  0  0  0  0  0  0  0  0  0  0
   -5.4880    3.6399    3.5568 H   0  0  0  0  0  0  0  0  0  0  0  0
   -5.2492    6.0672    4.0403 H   0  0  0  0  0  0  0  0  0  0  0  0
   -5.9165    7.0912    0.1076 H   0  0  0  0  0  0  0  0  0  0  0  0
   -6.1865    4.7083   -0.5690 H   0  0  0  0  0  0  0  0  0  0  0  0
   -1.7061   -1.3988    1.5481 H   0  0  0  0  0  0  0  0  0  0  0  0
  1  2  1  0  0  0  0
  1 31  1  0  0  0  0
  1 32  1  0  0  0  0
  1 33  1  0  0  0  0
  2  3  1  0  0  0  0
  2 26  2  0  0  0  0
  3  4  2  0  0  0  0
  3 34  1  0  0  0  0
  4  5  1  0  0  0  0
  4 35  1  0  0  0  0
  5  6  1  0  0  0  0
  5 25  2  0  0  0  0
  6  7  1  0  0  0  0
  6 24  1  0  0  0  0
  7  8  2  0  0  0  0
  7 36  1  0  0  0  0
  8  9  1  0  0  0  0
  8 23  1  0  0  0  0
  9 10  1  0  0  0  0
  9 14  2  0  0  0  0
 10 11  2  0  0  0  0
 10 37  1  0  0  0  0
 11 12  1  0  0  0  0
 11 38  1  0  0  0  0
 12 13  2  0  0  0  0
 12 39  1  0  0  0  0
 13 14  1  0  0  0  0
 13 40  1  0  0  0  0
 14 15  1  0  0  0  0
 15 16  1  0  0  0  0
 15 41  1  0  0  0  0
 16 17  1  0  0  0  0
 16 42  1  0  0  0  0
 16 43  1  0  0  0  0
 17 18  1  0  0  0  0
 17 22  2  0  0  0  0
 18 19  2  0  0  0  0
 18 44  1  0  0  0  0
 19 20  1  0  0  0  0
 19 45  1  0  0  0  0
 20 21  2  0  0  0  0
 21 22  1  0  0  0  0
 21 46  1  0  0  0  0
 22 47  1  0  0  0  0
 23 24  2  0  0  0  0
 25 26  1  0  0  0  0
 25 48  1  0  0  0  0
 26 27  1  0  0  0  0
 27 28  1  0  0  0  0
 27 29  1  0  0  0  0
 27 30  1  0  0  0  0
M  END
$$$$
