CHEMBL4165199
 OpenBabel04072215383D

 52 56  0  0  0  0  0  0  0  0999 V2000
    1.0198    0.2944    0.0073 O   0  0  0  0  0  0  0  0  0  0  0  0
    2.2163    0.0189    0.0766 C   0  0  0  0  0  0  0  0  0  0  0  0
    2.8365   -1.0857   -0.4912 N   0  0  0  0  0  0  0  0  0  0  0  0
    2.1714   -2.0166   -1.3269 C   0  0  0  0  0  0  0  0  0  0  0  0
    0.9522   -1.7155   -1.9354 C   0  0  0  0  0  0  0  0  0  0  0  0
    0.2558   -2.6730   -2.6680 C   0  0  0  0  0  0  0  0  0  0  0  0
    0.8157   -3.9267   -2.8965 C   0  0  0  0  0  0  0  0  0  0  0  0
    0.2020   -4.9125   -3.6431 O   0  0  0  0  0  0  0  0  0  0  0  0
   -0.6420   -4.5433   -4.6772 C   0  0  0  0  0  0  0  0  0  0  0  0
   -0.3899   -3.4455   -5.5119 C   0  0  0  0  0  0  0  0  0  0  0  0
   -1.3137   -3.1068   -6.4888 C   0  0  0  0  0  0  0  0  0  0  0  0
   -2.4424   -3.7887   -6.7730 N   0  0  0  0  0  0  0  0  0  0  0  0
   -2.5985   -4.8824   -6.0062 C   0  0  0  0  0  0  0  0  0  0  0  0
   -3.6327   -5.7665   -6.1398 N   0  0  0  0  0  0  0  0  0  0  0  0
   -3.4978   -6.7799   -5.2264 C   0  0  0  0  0  0  0  0  0  0  0  0
   -2.3668   -6.5227   -4.4772 C   0  0  0  0  0  0  0  0  0  0  0  0
   -1.7772   -5.3236   -4.9727 C   0  0  0  0  0  0  0  0  0  0  0  0
    2.0501   -4.2337   -2.3164 C   0  0  0  0  0  0  0  0  0  0  0  0
    2.7321   -3.2781   -1.5419 C   0  0  0  0  0  0  0  0  0  0  0  0
    3.0855    0.9698    0.8800 C   0  0  0  0  0  0  0  0  0  0  0  0
    2.4721    2.0167    1.3658 N   0  0  0  0  0  0  0  0  0  0  0  0
    3.1750    2.9324    2.0924 N   0  0  0  0  0  0  0  0  0  0  0  0
    2.3520    3.8935    2.7641 C   0  0  0  0  0  0  0  0  0  0  0  0
    1.0731    4.2102    2.2789 C   0  0  0  0  0  0  0  0  0  0  0  0
    0.2413    5.1138    2.9491 C   0  0  0  0  0  0  0  0  0  0  0  0
    0.6551    5.7082    4.1453 C   0  0  0  0  0  0  0  0  0  0  0  0
   -0.4574    6.7932    4.8920 Cl  0  0  0  0  0  0  0  0  0  0  0  0
    1.9082    5.4029    4.6759 C   0  0  0  0  0  0  0  0  0  0  0  0
    2.4346    5.9221    5.9881 C   0  0  0  0  0  0  0  0  0  0  0  0
    1.6086    6.7209    6.7101 F   0  0  0  0  0  0  0  0  0  0  0  0
    2.7726    4.8991    6.8272 F   0  0  0  0  0  0  0  0  0  0  0  0
    3.5847    6.6384    5.8200 F   0  0  0  0  0  0  0  0  0  0  0  0
    2.7486    4.5126    3.9603 C   0  0  0  0  0  0  0  0  0  0  0  0
    4.5492    2.8622    2.2116 C   0  0  0  0  0  0  0  0  0  0  0  0
    5.3000    1.8568    1.7583 C   0  0  0  0  0  0  0  0  0  0  0  0
    4.5601    0.7646    1.1111 C   0  0  0  0  0  0  0  0  0  0  0  0
    5.0999   -0.2748    0.7574 O   0  0  0  0  0  0  0  0  0  0  0  0
    3.7864   -1.3017   -0.2000 H   0  0  0  0  0  0  0  0  0  0  0  0
    0.5034   -0.7302   -1.8680 H   0  0  0  0  0  0  0  0  0  0  0  0
   -0.7198   -2.4010   -3.0603 H   0  0  0  0  0  0  0  0  0  0  0  0
    0.4971   -2.8343   -5.3877 H   0  0  0  0  0  0  0  0  0  0  0  0
   -1.1556   -2.2199   -7.0982 H   0  0  0  0  0  0  0  0  0  0  0  0
   -4.3627   -5.6686   -6.8301 H   0  0  0  0  0  0  0  0  0  0  0  0
   -4.2146   -7.5899   -5.1912 H   0  0  0  0  0  0  0  0  0  0  0  0
   -1.9919   -7.1405   -3.6716 H   0  0  0  0  0  0  0  0  0  0  0  0
    2.4790   -5.2230   -2.4563 H   0  0  0  0  0  0  0  0  0  0  0  0
    3.6837   -3.5531   -1.0888 H   0  0  0  0  0  0  0  0  0  0  0  0
    0.7057    3.7503    1.3622 H   0  0  0  0  0  0  0  0  0  0  0  0
   -0.7396    5.3342    2.5328 H   0  0  0  0  0  0  0  0  0  0  0  0
    3.7141    4.2649    4.4015 H   0  0  0  0  0  0  0  0  0  0  0  0
    5.0175    3.7163    2.6893 H   0  0  0  0  0  0  0  0  0  0  0  0
    6.3744    1.8007    1.8483 H   0  0  0  0  0  0  0  0  0  0  0  0
  1  2  2  0  0  0  0
  2  3  1  0  0  0  0
  2 20  1  0  0  0  0
  3  4  1  0  0  0  0
  3 38  1  0  0  0  0
  4  5  1  0  0  0  0
  4 19  2  0  0  0  0
  5  6  2  0  0  0  0
  5 39  1  0  0  0  0
  6  7  1  0  0  0  0
  6 40  1  0  0  0  0
  7  8  1  0  0  0  0
  7 18  2  0  0  0  0
  8  9  1  0  0  0  0
  9 10  1  0  0  0  0
  9 17  2  0  0  0  0
 10 11  2  0  0  0  0
 10 41  1  0  0  0  0
 11 12  1  0  0  0  0
 11 42  1  0  0  0  0
 12 13  2  0  0  0  0
 13 14  1  0  0  0  0
 13 17  1  0  0  0  0
 14 15  1  0  0  0  0
 14 43  1  0  0  0  0
 15 16  2  0  0  0  0
 15 44  1  0  0  0  0
 16 17  1  0  0  0  0
 16 45  1  0  0  0  0
 18 19  1  0  0  0  0
 18 46  1  0  0  0  0
 19 47  1  0  0  0  0
 20 21  2  0  0  0  0
 20 36  1  0  0  0  0
 21 22  1  0  0  0  0
 22 23  1  0  0  0  0
 22 34  1  0  0  0  0
 23 24  1  0  0  0  0
 23 33  2  0  0  0  0
 24 25  2  0  0  0  0
 24 48  1  0  0  0  0
 25 26  1  0  0  0  0
 25 49  1  0  0  0  0
 26 27  1  0  0  0  0
 26 28  2  0  0  0  0
 28 29  1  0  0  0  0
 28 33  1  0  0  0  0
 29 30  1  0  0  0  0
 29 31  1  0  0  0  0
 29 32  1  0  0  0  0
 33 50  1  0  0  0  0
 34 35  2  0  0  0  0
 34 51  1  0  0  0  0
 35 36  1  0  0  0  0
 35 52  1  0  0  0  0
 36 37  2  0  0  0  0
M  END
$$$$
