CHEMBL244287
 OpenBabel04072215363D

 53 56  0  0  0  0  0  0  0  0999 V2000
    7.6175   -6.8284    5.3326 C   0  0  0  0  0  0  0  0  0  0  0  0
    8.2633   -6.0038    6.3013 O   0  0  0  0  0  0  0  0  0  0  0  0
    7.7565   -4.7489    6.4253 C   0  0  0  0  0  0  0  0  0  0  0  0
    6.7587   -4.3332    5.8527 O   0  0  0  0  0  0  0  0  0  0  0  0
    8.6036   -4.0329    7.2194 N   0  0  0  0  0  0  0  0  0  0  0  0
    8.6185   -2.6685    7.1474 C   0  0  0  0  0  0  0  0  0  0  0  0
    9.7139   -1.9677    7.0005 N   0  0  0  0  0  0  0  0  0  0  0  0
    9.3025   -0.6596    6.9073 C   0  0  0  0  0  0  0  0  0  0  0  0
   10.0444    0.4826    6.6163 C   0  0  0  0  0  0  0  0  0  0  0  0
    9.4050    1.7249    6.6516 C   0  0  0  0  0  0  0  0  0  0  0  0
    8.0658    1.8304    7.0590 C   0  0  0  0  0  0  0  0  0  0  0  0
    7.4340    3.0524    7.2465 O   0  0  0  0  0  0  0  0  0  0  0  0
    8.1585    4.0900    7.8052 C   0  0  0  0  0  0  0  0  0  0  0  0
    7.8374    5.3875    7.3989 C   0  0  0  0  0  0  0  0  0  0  0  0
    8.6021    6.4737    7.8535 C   0  0  0  0  0  0  0  0  0  0  0  0
    9.6723    6.2717    8.7344 C   0  0  0  0  0  0  0  0  0  0  0  0
   10.5130    7.3590    9.0359 N   0  0  0  0  0  0  0  0  0  0  0  0
   11.4351    7.4950   10.0564 C   0  0  0  0  0  0  0  0  0  0  0  0
   11.2524    6.9894   11.6391 S   0  0  0  0  0  0  0  0  0  0  0  0
   12.5368    8.2567    9.7333 N   0  0  0  0  0  0  0  0  0  0  0  0
   13.1073    8.3999    8.4560 C   0  0  0  0  0  0  0  0  0  0  0  0
   13.7683    9.5843    8.1403 C   0  0  0  0  0  0  0  0  0  0  0  0
   14.2702    9.7736    6.8507 C   0  0  0  0  0  0  0  0  0  0  0  0
   14.1750    8.7548    5.8990 C   0  0  0  0  0  0  0  0  0  0  0  0
   13.5901    7.5266    6.2325 C   0  0  0  0  0  0  0  0  0  0  0  0
   13.5451    6.3730    5.2630 C   0  0  0  0  0  0  0  0  0  0  0  0
   14.0668    6.6670    4.0409 F   0  0  0  0  0  0  0  0  0  0  0  0
   14.2385    5.2904    5.7146 F   0  0  0  0  0  0  0  0  0  0  0  0
   12.2766    5.9342    5.0335 F   0  0  0  0  0  0  0  0  0  0  0  0
   13.0488    7.3667    7.5150 C   0  0  0  0  0  0  0  0  0  0  0  0
    9.9458    4.9806    9.1794 C   0  0  0  0  0  0  0  0  0  0  0  0
    9.1738    3.9044    8.7439 C   0  0  0  0  0  0  0  0  0  0  0  0
    7.2840    0.6828    7.2667 C   0  0  0  0  0  0  0  0  0  0  0  0
    7.9365   -0.5526    7.1581 C   0  0  0  0  0  0  0  0  0  0  0  0
    7.5100   -1.8591    7.2409 N   0  0  0  0  0  0  0  0  0  0  0  0
    7.9878   -7.8515    5.4613 H   0  0  0  0  0  0  0  0  0  0  0  0
    7.8816   -6.4927    4.3242 H   0  0  0  0  0  0  0  0  0  0  0  0
    6.5342   -6.8364    5.4703 H   0  0  0  0  0  0  0  0  0  0  0  0
    9.5101   -4.4654    7.3344 H   0  0  0  0  0  0  0  0  0  0  0  0
   11.0983    0.4048    6.3720 H   0  0  0  0  0  0  0  0  0  0  0  0
    9.9813    2.6140    6.4054 H   0  0  0  0  0  0  0  0  0  0  0  0
    7.0112    5.5567    6.7136 H   0  0  0  0  0  0  0  0  0  0  0  0
    8.3485    7.4726    7.5093 H   0  0  0  0  0  0  0  0  0  0  0  0
   10.4406    8.1646    8.4277 H   0  0  0  0  0  0  0  0  0  0  0  0
   13.0490    8.6446   10.5188 H   0  0  0  0  0  0  0  0  0  0  0  0
   13.8433   10.3902    8.8653 H   0  0  0  0  0  0  0  0  0  0  0  0
   14.7328   10.7212    6.5836 H   0  0  0  0  0  0  0  0  0  0  0  0
   14.5722    8.9193    4.8982 H   0  0  0  0  0  0  0  0  0  0  0  0
   12.6209    6.4018    7.7855 H   0  0  0  0  0  0  0  0  0  0  0  0
   10.8018    4.7684    9.8141 H   0  0  0  0  0  0  0  0  0  0  0  0
    9.4213    2.9131    9.1139 H   0  0  0  0  0  0  0  0  0  0  0  0
    6.2330    0.7583    7.5229 H   0  0  0  0  0  0  0  0  0  0  0  0
    6.5647   -2.1806    7.3780 H   0  0  0  0  0  0  0  0  0  0  0  0
  1  2  1  0  0  0  0
  1 36  1  0  0  0  0
  1 37  1  0  0  0  0
  1 38  1  0  0  0  0
  2  3  1  0  0  0  0
  3  4  2  0  0  0  0
  3  5  1  0  0  0  0
  5  6  1  0  0  0  0
  5 39  1  0  0  0  0
  6  7  2  0  0  0  0
  6 35  1  0  0  0  0
  7  8  1  0  0  0  0
  8  9  1  0  0  0  0
  8 34  2  0  0  0  0
  9 10  2  0  0  0  0
  9 40  1  0  0  0  0
 10 11  1  0  0  0  0
 10 41  1  0  0  0  0
 11 12  1  0  0  0  0
 11 33  2  0  0  0  0
 12 13  1  0  0  0  0
 13 14  1  0  0  0  0
 13 32  2  0  0  0  0
 14 15  2  0  0  0  0
 14 42  1  0  0  0  0
 15 16  1  0  0  0  0
 15 43  1  0  0  0  0
 16 17  1  0  0  0  0
 16 31  2  0  0  0  0
 17 18  1  0  0  0  0
 17 44  1  0  0  0  0
 18 19  2  0  0  0  0
 18 20  1  0  0  0  0
 20 21  1  0  0  0  0
 20 45  1  0  0  0  0
 21 22  1  0  0  0  0
 21 30  2  0  0  0  0
 22 23  2  0  0  0  0
 22 46  1  0  0  0  0
 23 24  1  0  0  0  0
 23 47  1  0  0  0  0
 24 25  2  0  0  0  0
 24 48  1  0  0  0  0
 25 26  1  0  0  0  0
 25 30  1  0  0  0  0
 26 27  1  0  0  0  0
 26 28  1  0  0  0  0
 26 29  1  0  0  0  0
 30 49  1  0  0  0  0
 31 32  1  0  0  0  0
 31 50  1  0  0  0  0
 32 51  1  0  0  0  0
 33 34  1  0  0  0  0
 33 52  1  0  0  0  0
 34 35  1  0  0  0  0
 35 53  1  0  0  0  0
M  END
$$$$
