CHEMBL1688352
 OpenBabel04072215363D

 54 59  0  0  0  0  0  0  0  0999 V2000
    0.5942    1.0716    0.0404 C   0  0  0  0  0  0  0  0  0  0  0  0
   -0.7575    0.8104    0.0708 C   0  0  0  0  0  0  0  0  0  0  0  0
   -1.3155   -0.4275    0.1786 N   0  0  0  0  0  0  0  0  0  0  0  0
   -0.5119   -1.5076    0.2395 C   0  0  0  0  0  0  0  0  0  0  0  0
   -1.0746   -2.7908    0.4183 N   0  0  0  0  0  0  0  0  0  0  0  0
   -2.5233   -3.0025    0.1456 C   0  0  0  0  0  0  0  0  0  0  0  0
   -3.0240   -3.0502   -1.3156 C   0  0  0  0  0  0  0  0  0  0  0  0
   -4.3799   -3.2045   -1.7065 C   0  0  0  0  0  0  0  0  0  0  0  0
   -4.7308   -3.3018   -3.0758 C   0  0  0  0  0  0  0  0  0  0  0  0
   -3.7858   -3.1260   -4.0727 C   0  0  0  0  0  0  0  0  0  0  0  0
   -4.0301   -2.9614   -5.3985 N   0  0  0  0  0  0  0  0  0  0  0  0
   -2.9859   -2.6589   -6.2107 C   0  0  0  0  0  0  0  0  0  0  0  0
   -1.6643   -2.5338   -5.7764 C   0  0  0  0  0  0  0  0  0  0  0  0
   -1.4139   -2.8062   -4.4476 C   0  0  0  0  0  0  0  0  0  0  0  0
   -2.4444   -3.1013   -3.6190 C   0  0  0  0  0  0  0  0  0  0  0  0
   -2.1502   -3.3812   -2.2916 C   0  0  0  0  0  0  0  0  0  0  0  0
    0.8967   -1.3353    0.1172 C   0  0  0  0  0  0  0  0  0  0  0  0
    1.8301   -2.4110   -0.1277 C   0  0  0  0  0  0  0  0  0  0  0  0
    3.1448   -2.3248   -0.2597 N   0  0  0  0  0  0  0  0  0  0  0  0
    3.5333   -3.5001   -0.8415 N   0  0  0  0  0  0  0  0  0  0  0  0
    2.4591   -4.2520   -0.9718 C   0  0  0  0  0  0  0  0  0  0  0  0
    2.3112   -5.4670   -1.5182 N   0  0  0  0  0  0  0  0  0  0  0  0
    3.1118   -5.9795   -2.5594 C   0  0  0  0  0  0  0  0  0  0  0  0
    2.8901   -7.2930   -3.0016 C   0  0  0  0  0  0  0  0  0  0  0  0
    3.6719   -7.8473   -4.0263 C   0  0  0  0  0  0  0  0  0  0  0  0
    4.6972   -7.0987   -4.5942 C   0  0  0  0  0  0  0  0  0  0  0  0
    4.9276   -5.7906   -4.1616 C   0  0  0  0  0  0  0  0  0  0  0  0
    4.1499   -5.2506   -3.1455 C   0  0  0  0  0  0  0  0  0  0  0  0
    5.9151   -4.9892   -4.6730 O   0  0  0  0  0  0  0  0  0  0  0  0
    6.4221   -5.5031   -5.9042 C   0  0  0  0  0  0  0  0  0  0  0  0
    6.6616   -7.0018   -5.8162 C   0  0  0  0  0  0  0  0  0  0  0  0
    5.4389   -7.7067   -5.5714 O   0  0  0  0  0  0  0  0  0  0  0  0
    1.3395   -3.6284   -0.5196 O   0  0  0  0  0  0  0  0  0  0  0  0
    1.4298   -0.0216    0.0537 C   0  0  0  0  0  0  0  0  0  0  0  0
    0.9887    2.0837   -0.0253 H   0  0  0  0  0  0  0  0  0  0  0  0
   -1.4637    1.6340    0.0108 H   0  0  0  0  0  0  0  0  0  0  0  0
   -0.8055   -3.1424    1.3563 H   0  0  0  0  0  0  0  0  0  0  0  0
   -3.1295   -2.2592    0.6484 H   0  0  0  0  0  0  0  0  0  0  0  0
   -2.7372   -4.0359    0.4545 H   0  0  0  0  0  0  0  0  0  0  0  0
   -5.1597   -3.3510   -0.9694 H   0  0  0  0  0  0  0  0  0  0  0  0
   -5.7665   -3.5012   -3.3849 H   0  0  0  0  0  0  0  0  0  0  0  0
   -3.2231   -2.4947   -7.2514 H   0  0  0  0  0  0  0  0  0  0  0  0
   -0.8711   -2.2316   -6.4421 H   0  0  0  0  0  0  0  0  0  0  0  0
   -0.3901   -2.7235   -4.0531 H   0  0  0  0  0  0  0  0  0  0  0  0
   -1.9052   -4.4606   -2.1753 H   0  0  0  0  0  0  0  0  0  0  0  0
    1.4363   -5.9307   -1.3865 H   0  0  0  0  0  0  0  0  0  0  0  0
    2.0956   -7.8964   -2.5711 H   0  0  0  0  0  0  0  0  0  0  0  0
    3.4799   -8.8589   -4.3730 H   0  0  0  0  0  0  0  0  0  0  0  0
    4.3487   -4.2237   -2.8464 H   0  0  0  0  0  0  0  0  0  0  0  0
    7.3623   -4.9848   -6.1158 H   0  0  0  0  0  0  0  0  0  0  0  0
    5.7086   -5.2562   -6.6994 H   0  0  0  0  0  0  0  0  0  0  0  0
    7.3720   -7.2493   -5.0181 H   0  0  0  0  0  0  0  0  0  0  0  0
    7.0702   -7.3707   -6.7620 H   0  0  0  0  0  0  0  0  0  0  0  0
    2.5070    0.1351   -0.0331 H   0  0  0  0  0  0  0  0  0  0  0  0
  1  2  1  0  0  0  0
  1 34  2  0  0  0  0
  1 35  1  0  0  0  0
  2  3  2  0  0  0  0
  2 36  1  0  0  0  0
  3  4  1  0  0  0  0
  4  5  1  0  0  0  0
  4 17  2  0  0  0  0
  5  6  1  0  0  0  0
  5 37  1  0  0  0  0
  6  7  1  0  0  0  0
  6 38  1  0  0  0  0
  6 39  1  0  0  0  0
  7  8  1  0  0  0  0
  7 16  2  0  0  0  0
  8  9  2  0  0  0  0
  8 40  1  0  0  0  0
  9 10  1  0  0  0  0
  9 41  1  0  0  0  0
 10 11  1  0  0  0  0
 10 15  2  0  0  0  0
 11 12  2  0  0  0  0
 12 13  1  0  0  0  0
 12 42  1  0  0  0  0
 13 14  2  0  0  0  0
 13 43  1  0  0  0  0
 14 15  1  0  0  0  0
 14 44  1  0  0  0  0
 15 16  1  0  0  0  0
 16 45  1  0  0  0  0
 17 18  1  0  0  0  0
 17 34  1  0  0  0  0
 18 19  2  0  0  0  0
 18 33  1  0  0  0  0
 19 20  1  0  0  0  0
 20 21  2  0  0  0  0
 21 22  1  0  0  0  0
 21 33  1  0  0  0  0
 22 23  1  0  0  0  0
 22 46  1  0  0  0  0
 23 24  1  0  0  0  0
 23 28  2  0  0  0  0
 24 25  2  0  0  0  0
 24 47  1  0  0  0  0
 25 26  1  0  0  0  0
 25 48  1  0  0  0  0
 26 27  2  0  0  0  0
 26 32  1  0  0  0  0
 27 28  1  0  0  0  0
 27 29  1  0  0  0  0
 28 49  1  0  0  0  0
 29 30  1  0  0  0  0
 30 31  1  0  0  0  0
 30 50  1  0  0  0  0
 30 51  1  0  0  0  0
 31 32  1  0  0  0  0
 31 52  1  0  0  0  0
 31 53  1  0  0  0  0
 34 54  1  0  0  0  0
M  END
$$$$
