CHEMBL3740930
 OpenBabel04072215373D

 66 71  0  0  0  0  0  0  0  0999 V2000
    1.9227    0.0999   -1.1639 C   0  0  0  0  0  0  0  0  0  0  0  0
    0.6327   -0.0678   -0.4357 C   0  0  0  0  0  0  0  0  0  0  0  0
   -0.1134    1.0502   -0.1597 N   0  0  0  0  0  0  0  0  0  0  0  0
   -1.3185    0.7415    0.4234 C   0  0  0  0  0  0  0  0  0  0  0  0
   -2.2614    1.8218    0.7751 C   0  0  0  0  0  0  0  0  0  0  0  0
   -2.4004    2.9517   -0.0489 C   0  0  0  0  0  0  0  0  0  0  0  0
   -3.3316    3.9507    0.2513 C   0  0  0  0  0  0  0  0  0  0  0  0
   -4.1597    3.8204    1.3624 C   0  0  0  0  0  0  0  0  0  0  0  0
   -4.0276    2.7143    2.1958 C   0  0  0  0  0  0  0  0  0  0  0  0
   -3.0613    1.7433    1.9224 C   0  0  0  0  0  0  0  0  0  0  0  0
   -1.3541   -0.6532    0.5423 C   0  0  0  0  0  0  0  0  0  0  0  0
   -2.5051   -1.4065    1.0877 C   0  0  0  0  0  0  0  0  0  0  0  0
   -3.8286   -1.0442    0.7870 C   0  0  0  0  0  0  0  0  0  0  0  0
   -4.9153   -1.6938    1.3848 C   0  0  0  0  0  0  0  0  0  0  0  0
   -4.7012   -2.7848    2.2199 C   0  0  0  0  0  0  0  0  0  0  0  0
   -3.4012   -3.2084    2.4737 C   0  0  0  0  0  0  0  0  0  0  0  0
   -2.3150   -2.5032    1.9416 C   0  0  0  0  0  0  0  0  0  0  0  0
   -0.0804   -1.1700    0.0336 C   0  0  0  0  0  0  0  0  0  0  0  0
    0.2800   -2.5999   -0.0655 C   0  0  0  0  0  0  0  0  0  0  0  0
   -0.6028   -3.4413   -0.1409 O   0  0  0  0  0  0  0  0  0  0  0  0
    1.6922   -2.9916   -0.0326 C   0  0  0  0  0  0  0  0  0  0  0  0
    2.7314   -2.3561    0.6210 C   0  0  0  0  0  0  0  0  0  0  0  0
    3.8988   -2.9949    0.2807 N   0  0  0  0  0  0  0  0  0  0  0  0
    5.2318   -2.5784    0.5694 C   0  0  0  0  0  0  0  0  0  0  0  0
    5.4863   -1.4433    1.3517 C   0  0  0  0  0  0  0  0  0  0  0  0
    6.8024   -1.0632    1.6401 C   0  0  0  0  0  0  0  0  0  0  0  0
    7.8753   -1.8012    1.1395 C   0  0  0  0  0  0  0  0  0  0  0  0
    7.6263   -2.9236    0.3467 C   0  0  0  0  0  0  0  0  0  0  0  0
    6.3138   -3.3114    0.0587 C   0  0  0  0  0  0  0  0  0  0  0  0
    3.6480   -4.1422   -0.4021 N   0  0  0  0  0  0  0  0  0  0  0  0
    2.3058   -4.1741   -0.5566 C   0  0  0  0  0  0  0  0  0  0  0  0
    1.6410   -5.3350   -1.1900 C   0  0  0  0  0  0  0  0  0  0  0  0
    0.4292   -5.3813   -1.3466 O   0  0  0  0  0  0  0  0  0  0  0  0
    2.5056   -6.3640   -1.5325 N   0  0  0  0  0  0  0  0  0  0  0  0
    2.1195   -7.6199   -2.0495 C   0  0  0  0  0  0  0  0  0  0  0  0
    0.8276   -7.9016   -2.5104 C   0  0  0  0  0  0  0  0  0  0  0  0
    0.4754   -9.1797   -2.9436 C   0  0  0  0  0  0  0  0  0  0  0  0
    1.4216  -10.1973   -2.9424 C   0  0  0  0  0  0  0  0  0  0  0  0
    2.7220   -9.9249   -2.5211 C   0  0  0  0  0  0  0  0  0  0  0  0
    3.0749   -8.6410   -2.0855 C   0  0  0  0  0  0  0  0  0  0  0  0
    1.9864    1.0853   -1.6394 H   0  0  0  0  0  0  0  0  0  0  0  0
    2.0369   -0.6523   -1.9480 H   0  0  0  0  0  0  0  0  0  0  0  0
    2.7711    0.0400   -0.4769 H   0  0  0  0  0  0  0  0  0  0  0  0
    0.1671    1.9925   -0.3985 H   0  0  0  0  0  0  0  0  0  0  0  0
   -1.8072    3.0620   -0.9529 H   0  0  0  0  0  0  0  0  0  0  0  0
   -3.4242    4.8195   -0.3953 H   0  0  0  0  0  0  0  0  0  0  0  0
   -4.9095    4.5768    1.5773 H   0  0  0  0  0  0  0  0  0  0  0  0
   -4.6814    2.5942    3.0554 H   0  0  0  0  0  0  0  0  0  0  0  0
   -2.9705    0.8982    2.6010 H   0  0  0  0  0  0  0  0  0  0  0  0
   -4.0358   -0.2214    0.1071 H   0  0  0  0  0  0  0  0  0  0  0  0
   -5.9264   -1.3459    1.1914 H   0  0  0  0  0  0  0  0  0  0  0  0
   -5.5431   -3.3107    2.6615 H   0  0  0  0  0  0  0  0  0  0  0  0
   -3.2245   -4.0896    3.0847 H   0  0  0  0  0  0  0  0  0  0  0  0
   -1.3165   -2.8523    2.1877 H   0  0  0  0  0  0  0  0  0  0  0  0
    2.7221   -1.4738    1.2427 H   0  0  0  0  0  0  0  0  0  0  0  0
    4.6895   -0.8286    1.7647 H   0  0  0  0  0  0  0  0  0  0  0  0
    6.9926   -0.1895    2.2578 H   0  0  0  0  0  0  0  0  0  0  0  0
    8.8917   -1.5128    1.3715 H   0  0  0  0  0  0  0  0  0  0  0  0
    8.4589   -3.4992   -0.0511 H   0  0  0  0  0  0  0  0  0  0  0  0
    6.1547   -4.1831   -0.5722 H   0  0  0  0  0  0  0  0  0  0  0  0
    3.4761   -6.2102   -1.2791 H   0  0  0  0  0  0  0  0  0  0  0  0
    0.0484   -7.1439   -2.5407 H   0  0  0  0  0  0  0  0  0  0  0  0
   -0.5434   -9.3716   -3.2740 H   0  0  0  0  0  0  0  0  0  0  0  0
    1.1427  -11.1958   -3.2682 H   0  0  0  0  0  0  0  0  0  0  0  0
    3.4600  -10.7201   -2.5176 H   0  0  0  0  0  0  0  0  0  0  0  0
    4.0911   -8.4638   -1.7470 H   0  0  0  0  0  0  0  0  0  0  0  0
  1  2  1  0  0  0  0
  1 41  1  0  0  0  0
  1 42  1  0  0  0  0
  1 43  1  0  0  0  0
  2  3  1  0  0  0  0
  2 18  2  0  0  0  0
  3  4  1  0  0  0  0
  3 44  1  0  0  0  0
  4  5  1  0  0  0  0
  4 11  2  0  0  0  0
  5  6  1  0  0  0  0
  5 10  2  0  0  0  0
  6  7  2  0  0  0  0
  6 45  1  0  0  0  0
  7  8  1  0  0  0  0
  7 46  1  0  0  0  0
  8  9  2  0  0  0  0
  8 47  1  0  0  0  0
  9 10  1  0  0  0  0
  9 48  1  0  0  0  0
 10 49  1  0  0  0  0
 11 12  1  0  0  0  0
 11 18  1  0  0  0  0
 12 13  1  0  0  0  0
 12 17  2  0  0  0  0
 13 14  2  0  0  0  0
 13 50  1  0  0  0  0
 14 15  1  0  0  0  0
 14 51  1  0  0  0  0
 15 16  2  0  0  0  0
 15 52  1  0  0  0  0
 16 17  1  0  0  0  0
 16 53  1  0  0  0  0
 17 54  1  0  0  0  0
 18 19  1  0  0  0  0
 19 20  2  0  0  0  0
 19 21  1  0  0  0  0
 21 22  2  0  0  0  0
 21 31  1  0  0  0  0
 22 23  1  0  0  0  0
 22 55  1  0  0  0  0
 23 24  1  0  0  0  0
 23 30  1  0  0  0  0
 24 25  1  0  0  0  0
 24 29  2  0  0  0  0
 25 26  2  0  0  0  0
 25 56  1  0  0  0  0
 26 27  1  0  0  0  0
 26 57  1  0  0  0  0
 27 28  2  0  0  0  0
 27 58  1  0  0  0  0
 28 29  1  0  0  0  0
 28 59  1  0  0  0  0
 29 60  1  0  0  0  0
 30 31  2  0  0  0  0
 31 32  1  0  0  0  0
 32 33  2  0  0  0  0
 32 34  1  0  0  0  0
 34 35  1  0  0  0  0
 34 61  1  0  0  0  0
 35 36  1  0  0  0  0
 35 40  2  0  0  0  0
 36 37  2  0  0  0  0
 36 62  1  0  0  0  0
 37 38  1  0  0  0  0
 37 63  1  0  0  0  0
 38 39  2  0  0  0  0
 38 64  1  0  0  0  0
 39 40  1  0  0  0  0
 39 65  1  0  0  0  0
 40 66  1  0  0  0  0
M  END
$$$$
