CHEMBL3690405
 OpenBabel04072215373D

 56 60  0  0  0  0  0  0  0  0999 V2000
    9.8472   -3.6211    2.1388 C   0  0  0  0  0  0  0  0  0  0  0  0
    8.9606   -2.7946    1.3310 N   0  0  0  0  0  0  0  0  0  0  0  0
    8.5512   -1.5738    2.0631 C   0  0  0  0  0  0  0  0  0  0  0  0
    7.0992   -1.7985    1.5662 C   0  0  0  0  0  0  0  0  0  0  0  0
    6.8230   -1.0753    0.3437 N   0  0  0  0  0  0  0  0  0  0  0  0
    7.4614   -1.2053   -0.8646 C   0  0  0  0  0  0  0  0  0  0  0  0
    6.8744   -0.3161   -1.7351 C   0  0  0  0  0  0  0  0  0  0  0  0
    7.1742   -0.1529   -3.1348 C   0  0  0  0  0  0  0  0  0  0  0  0
    8.0453   -1.1434   -3.7909 C   0  0  0  0  0  0  0  0  0  0  0  0
    8.1241   -1.2058   -5.1270 C   0  0  0  0  0  0  0  0  0  0  0  0
    7.6341   -0.1439   -5.8747 N   0  0  0  0  0  0  0  0  0  0  0  0
    7.9207    0.2263   -7.1805 C   0  0  0  0  0  0  0  0  0  0  0  0
    8.8997   -0.3923   -8.0919 C   0  0  0  0  0  0  0  0  0  0  0  0
    8.6354   -0.3948   -9.4641 C   0  0  0  0  0  0  0  0  0  0  0  0
    9.5741   -0.8881  -10.3676 C   0  0  0  0  0  0  0  0  0  0  0  0
   10.7923   -1.3879   -9.9160 C   0  0  0  0  0  0  0  0  0  0  0  0
   11.0988   -1.4003   -8.5564 C   0  0  0  0  0  0  0  0  0  0  0  0
   12.3283   -1.8829   -8.0505 N   0  0  0  0  0  0  0  0  0  0  0  0
   13.4070   -2.3363   -8.7943 C   0  0  0  0  0  0  0  0  0  0  0  0
   13.5029   -2.3812  -10.0073 O   0  0  0  0  0  0  0  0  0  0  0  0
   14.4016   -2.8516   -7.9856 N   0  0  0  0  0  0  0  0  0  0  0  0
   15.6064   -3.3867   -8.6409 C   0  0  0  0  0  0  0  0  0  0  0  0
   16.6190   -2.3485   -9.1517 C   0  0  0  0  0  0  0  0  0  0  0  0
   16.3346   -1.1004   -8.7130 F   0  0  0  0  0  0  0  0  0  0  0  0
   17.8573   -2.6520   -8.6854 F   0  0  0  0  0  0  0  0  0  0  0  0
   16.6952   -2.3179  -10.4977 F   0  0  0  0  0  0  0  0  0  0  0  0
   10.1436   -0.9004   -7.6505 C   0  0  0  0  0  0  0  0  0  0  0  0
    7.1860    1.3921   -7.3525 C   0  0  0  0  0  0  0  0  0  0  0  0
    6.5386    1.7769   -6.2069 N   0  0  0  0  0  0  0  0  0  0  0  0
    6.8769    0.8789   -5.3092 C   0  0  0  0  0  0  0  0  0  0  0  0
    6.6131    0.8128   -3.9065 C   0  0  0  0  0  0  0  0  0  0  0  0
    5.8965    0.3260   -0.9421 C   0  0  0  0  0  0  0  0  0  0  0  0
    5.8533   -0.1407    0.3126 N   0  0  0  0  0  0  0  0  0  0  0  0
    7.5592   -3.2684    1.3946 C   0  0  0  0  0  0  0  0  0  0  0  0
   10.8489   -3.1766    2.1513 H   0  0  0  0  0  0  0  0  0  0  0  0
    9.9422   -4.6158    1.6898 H   0  0  0  0  0  0  0  0  0  0  0  0
    9.5175   -3.7452    3.1758 H   0  0  0  0  0  0  0  0  0  0  0  0
    9.0432   -0.6528    1.7343 H   0  0  0  0  0  0  0  0  0  0  0  0
    8.6325   -1.6245    3.1578 H   0  0  0  0  0  0  0  0  0  0  0  0
    6.3410   -1.6198    2.3363 H   0  0  0  0  0  0  0  0  0  0  0  0
    8.2563   -1.9244   -0.9971 H   0  0  0  0  0  0  0  0  0  0  0  0
    8.6485   -1.8166   -3.1941 H   0  0  0  0  0  0  0  0  0  0  0  0
    8.6521   -1.9926   -5.6456 H   0  0  0  0  0  0  0  0  0  0  0  0
    7.7032    0.0099   -9.8503 H   0  0  0  0  0  0  0  0  0  0  0  0
    9.3670   -0.8646  -11.4348 H   0  0  0  0  0  0  0  0  0  0  0  0
   11.4827   -1.7657  -10.6632 H   0  0  0  0  0  0  0  0  0  0  0  0
   12.4335   -1.9173   -7.0476 H   0  0  0  0  0  0  0  0  0  0  0  0
   14.5419   -2.3941   -7.0985 H   0  0  0  0  0  0  0  0  0  0  0  0
   15.2917   -4.0197   -9.4786 H   0  0  0  0  0  0  0  0  0  0  0  0
   16.0898   -4.0410   -7.9081 H   0  0  0  0  0  0  0  0  0  0  0  0
   10.3945   -0.8686   -6.5948 H   0  0  0  0  0  0  0  0  0  0  0  0
    7.1559    2.0169   -8.2365 H   0  0  0  0  0  0  0  0  0  0  0  0
    5.9402    1.5625   -3.5040 H   0  0  0  0  0  0  0  0  0  0  0  0
    5.1859    1.0812   -1.2275 H   0  0  0  0  0  0  0  0  0  0  0  0
    7.2099   -3.7932    0.4994 H   0  0  0  0  0  0  0  0  0  0  0  0
    7.3135   -3.8964    2.2627 H   0  0  0  0  0  0  0  0  0  0  0  0
  1  2  1  0  0  0  0
  1 35  1  0  0  0  0
  1 36  1  0  0  0  0
  1 37  1  0  0  0  0
  2  3  1  0  0  0  0
  2 34  1  0  0  0  0
  3  4  1  0  0  0  0
  3 38  1  0  0  0  0
  3 39  1  0  0  0  0
  4  5  1  0  0  0  0
  4 34  1  0  0  0  0
  4 40  1  0  0  0  0
  5  6  1  0  0  0  0
  5 33  1  0  0  0  0
  6  7  2  0  0  0  0
  6 41  1  0  0  0  0
  7  8  1  0  0  0  0
  7 32  1  0  0  0  0
  8  9  1  0  0  0  0
  8 31  2  0  0  0  0
  9 10  2  0  0  0  0
  9 42  1  0  0  0  0
 10 11  1  0  0  0  0
 10 43  1  0  0  0  0
 11 12  1  0  0  0  0
 11 30  1  0  0  0  0
 12 13  1  0  0  0  0
 12 28  2  0  0  0  0
 13 14  1  0  0  0  0
 13 27  2  0  0  0  0
 14 15  2  0  0  0  0
 14 44  1  0  0  0  0
 15 16  1  0  0  0  0
 15 45  1  0  0  0  0
 16 17  2  0  0  0  0
 16 46  1  0  0  0  0
 17 18  1  0  0  0  0
 17 27  1  0  0  0  0
 18 19  1  0  0  0  0
 18 47  1  0  0  0  0
 19 20  2  0  0  0  0
 19 21  1  0  0  0  0
 21 22  1  0  0  0  0
 21 48  1  0  0  0  0
 22 23  1  0  0  0  0
 22 49  1  0  0  0  0
 22 50  1  0  0  0  0
 23 24  1  0  0  0  0
 23 25  1  0  0  0  0
 23 26  1  0  0  0  0
 27 51  1  0  0  0  0
 28 29  1  0  0  0  0
 28 52  1  0  0  0  0
 29 30  2  0  0  0  0
 30 31  1  0  0  0  0
 31 53  1  0  0  0  0
 32 33  2  0  0  0  0
 32 54  1  0  0  0  0
 34 55  1  0  0  0  0
 34 56  1  0  0  0  0
M  END
$$$$
