CHEMBL4226159
 OpenBabel04072215383D

 60 63  0  0  0  0  0  0  0  0999 V2000
    3.5676    1.0800    0.6845 O   0  0  0  0  0  0  0  0  0  0  0  0
    2.8595    0.3610   -0.0117 C   0  0  0  0  0  0  0  0  0  0  0  0
    1.4366    0.6727   -0.3011 C   0  0  0  0  0  0  0  0  0  0  0  0
    0.9082    1.7985    0.1963 C   0  0  0  0  0  0  0  0  0  0  0  0
   -0.3911    2.2099    0.0621 N   0  0  0  0  0  0  0  0  0  0  0  0
   -1.0080    3.3399    0.6244 C   0  0  0  0  0  0  0  0  0  0  0  0
   -0.3106    4.3214    1.3494 C   0  0  0  0  0  0  0  0  0  0  0  0
   -0.9794    5.4184    1.8984 C   0  0  0  0  0  0  0  0  0  0  0  0
   -2.3504    5.5407    1.7255 C   0  0  0  0  0  0  0  0  0  0  0  0
   -2.9915    6.5916    2.2524 F   0  0  0  0  0  0  0  0  0  0  0  0
   -3.0669    4.5899    1.0099 C   0  0  0  0  0  0  0  0  0  0  0  0
   -2.3953    3.4958    0.4616 C   0  0  0  0  0  0  0  0  0  0  0  0
    3.3963   -0.9103   -0.5470 C   0  0  0  0  0  0  0  0  0  0  0  0
    4.3571   -1.5808    0.2093 C   0  0  0  0  0  0  0  0  0  0  0  0
    4.8936   -2.7752   -0.2651 C   0  0  0  0  0  0  0  0  0  0  0  0
    4.4676   -3.3246   -1.4890 C   0  0  0  0  0  0  0  0  0  0  0  0
    5.0293   -4.5673   -1.8108 N   0  0  0  0  0  0  0  0  0  0  0  0
    4.6654   -5.5957   -2.6591 C   0  0  0  0  0  0  0  0  0  0  0  0
    3.8109   -5.5447   -4.0855 S   0  0  0  0  0  0  0  0  0  0  0  0
    5.1637   -6.8246   -2.2332 N   0  0  0  0  0  0  0  0  0  0  0  0
    5.4213   -7.1742   -0.8870 C   0  0  0  0  0  0  0  0  0  0  0  0
    4.6961   -6.5798    0.1589 C   0  0  0  0  0  0  0  0  0  0  0  0
    5.1166   -6.7042    1.4782 C   0  0  0  0  0  0  0  0  0  0  0  0
    6.2383   -7.4827    1.7550 C   0  0  0  0  0  0  0  0  0  0  0  0
    6.9174   -7.4539    3.4034 S   0  0  0  0  0  0  0  0  0  0  0  0
    8.3103   -7.8375    3.3138 O   0  0  0  0  0  0  0  0  0  0  0  0
    6.5407   -6.1821    3.9855 O   0  0  0  0  0  0  0  0  0  0  0  0
    6.0479   -8.6363    4.2220 N   0  0  0  0  0  0  0  0  0  0  0  0
    6.1831   -9.9394    3.7140 C   0  0  0  0  0  0  0  0  0  0  0  0
    7.2730  -10.7387    4.0080 C   0  0  0  0  0  0  0  0  0  0  0  0
    7.3099  -12.0097    3.4427 C   0  0  0  0  0  0  0  0  0  0  0  0
    6.2780  -12.4080    2.5975 C   0  0  0  0  0  0  0  0  0  0  0  0
    5.2470  -11.5143    2.3501 C   0  0  0  0  0  0  0  0  0  0  0  0
    5.1725  -10.2828    2.8987 N   0  0  0  0  0  0  0  0  0  0  0  0
    6.8950   -8.1788    0.7306 C   0  0  0  0  0  0  0  0  0  0  0  0
    6.4685   -8.0469   -0.5961 C   0  0  0  0  0  0  0  0  0  0  0  0
    3.5082   -2.6530   -2.2344 C   0  0  0  0  0  0  0  0  0  0  0  0
    2.9849   -1.4391   -1.7762 C   0  0  0  0  0  0  0  0  0  0  0  0
    0.8392   -0.0241   -0.8664 H   0  0  0  0  0  0  0  0  0  0  0  0
    1.5457    2.4619    0.7763 H   0  0  0  0  0  0  0  0  0  0  0  0
   -1.0095    1.5835   -0.4416 H   0  0  0  0  0  0  0  0  0  0  0  0
    0.7653    4.2624    1.4977 H   0  0  0  0  0  0  0  0  0  0  0  0
   -0.4360    6.1707    2.4603 H   0  0  0  0  0  0  0  0  0  0  0  0
   -4.1371    4.7061    0.8846 H   0  0  0  0  0  0  0  0  0  0  0  0
   -2.9691    2.7573   -0.0925 H   0  0  0  0  0  0  0  0  0  0  0  0
    4.6805   -1.1858    1.1712 H   0  0  0  0  0  0  0  0  0  0  0  0
    5.6201   -3.2921    0.3603 H   0  0  0  0  0  0  0  0  0  0  0  0
    5.7945   -4.8343   -1.2019 H   0  0  0  0  0  0  0  0  0  0  0  0
    5.3735   -7.4974   -2.9634 H   0  0  0  0  0  0  0  0  0  0  0  0
    3.8192   -5.9687   -0.0508 H   0  0  0  0  0  0  0  0  0  0  0  0
    4.5933   -6.1586    2.2594 H   0  0  0  0  0  0  0  0  0  0  0  0
    5.0652   -8.3787    4.2662 H   0  0  0  0  0  0  0  0  0  0  0  0
    8.0626  -10.3908    4.6641 H   0  0  0  0  0  0  0  0  0  0  0  0
    8.1312  -12.6843    3.6660 H   0  0  0  0  0  0  0  0  0  0  0  0
    6.2771  -13.3920    2.1415 H   0  0  0  0  0  0  0  0  0  0  0  0
    4.4281  -11.7749    1.6848 H   0  0  0  0  0  0  0  0  0  0  0  0
    7.7632   -8.7962    0.9553 H   0  0  0  0  0  0  0  0  0  0  0  0
    7.0212   -8.5427   -1.3863 H   0  0  0  0  0  0  0  0  0  0  0  0
    3.1628   -3.0210   -3.1916 H   0  0  0  0  0  0  0  0  0  0  0  0
    2.2721   -0.9177   -2.4063 H   0  0  0  0  0  0  0  0  0  0  0  0
  1  2  2  0  0  0  0
  2  3  1  0  0  0  0
  2 13  1  0  0  0  0
  3  4  2  0  0  0  0
  3 39  1  0  0  0  0
  4  5  1  0  0  0  0
  4 40  1  0  0  0  0
  5  6  1  0  0  0  0
  5 41  1  0  0  0  0
  6  7  1  0  0  0  0
  6 12  2  0  0  0  0
  7  8  2  0  0  0  0
  7 42  1  0  0  0  0
  8  9  1  0  0  0  0
  8 43  1  0  0  0  0
  9 10  1  0  0  0  0
  9 11  2  0  0  0  0
 11 12  1  0  0  0  0
 11 44  1  0  0  0  0
 12 45  1  0  0  0  0
 13 14  1  0  0  0  0
 13 38  2  0  0  0  0
 14 15  2  0  0  0  0
 14 46  1  0  0  0  0
 15 16  1  0  0  0  0
 15 47  1  0  0  0  0
 16 17  1  0  0  0  0
 16 37  2  0  0  0  0
 17 18  1  0  0  0  0
 17 48  1  0  0  0  0
 18 19  2  0  0  0  0
 18 20  1  0  0  0  0
 20 21  1  0  0  0  0
 20 49  1  0  0  0  0
 21 22  1  0  0  0  0
 21 36  2  0  0  0  0
 22 23  2  0  0  0  0
 22 50  1  0  0  0  0
 23 24  1  0  0  0  0
 23 51  1  0  0  0  0
 24 25  1  0  0  0  0
 24 35  2  0  0  0  0
 25 26  2  0  0  0  0
 25 27  2  0  0  0  0
 25 28  1  0  0  0  0
 28 29  1  0  0  0  0
 28 52  1  0  0  0  0
 29 30  1  0  0  0  0
 29 34  2  0  0  0  0
 30 31  2  0  0  0  0
 30 53  1  0  0  0  0
 31 32  1  0  0  0  0
 31 54  1  0  0  0  0
 32 33  2  0  0  0  0
 32 55  1  0  0  0  0
 33 34  1  0  0  0  0
 33 56  1  0  0  0  0
 35 36  1  0  0  0  0
 35 57  1  0  0  0  0
 36 58  1  0  0  0  0
 37 38  1  0  0  0  0
 37 59  1  0  0  0  0
 38 60  1  0  0  0  0
M  END
$$$$
