CHEMBL3954009
 OpenBabel04072215373D

 49 51  0  0  0  0  0  0  0  0999 V2000
    1.6666   -1.9140   -0.7109 N   0  0  0  0  0  0  0  0  0  0  0  0
    3.0035   -1.6948   -0.6198 C   0  0  0  0  0  0  0  0  0  0  0  0
    3.7272   -1.7645   -1.6035 O   0  0  0  0  0  0  0  0  0  0  0  0
    3.4690   -1.4071    0.7584 C   0  0  0  0  0  0  0  0  0  0  0  0
    4.5503   -0.6683    1.0840 C   0  0  0  0  0  0  0  0  0  0  0  0
    4.8440   -0.5140    2.5276 C   0  0  0  0  0  0  0  0  0  0  0  0
    5.6499   -1.4539    3.1793 C   0  0  0  0  0  0  0  0  0  0  0  0
    5.9928   -1.2721    4.5198 C   0  0  0  0  0  0  0  0  0  0  0  0
    5.5345   -0.1552    5.2150 C   0  0  0  0  0  0  0  0  0  0  0  0
    4.7190    0.7770    4.5757 C   0  0  0  0  0  0  0  0  0  0  0  0
    4.3718    0.5982    3.2348 C   0  0  0  0  0  0  0  0  0  0  0  0
    5.3404    0.0562    0.0688 C   0  0  0  0  0  0  0  0  0  0  0  0
    4.9461    1.3447   -0.2862 C   0  0  0  0  0  0  0  0  0  0  0  0
    5.6732    2.0703   -1.2276 C   0  0  0  0  0  0  0  0  0  0  0  0
    6.8103    1.5333   -1.8383 C   0  0  0  0  0  0  0  0  0  0  0  0
    7.5477    2.2215   -2.8296 N   0  0  0  0  0  0  0  0  0  0  0  0
    7.3285    3.5269   -3.2208 C   0  0  0  0  0  0  0  0  0  0  0  0
    6.5513    4.3111   -2.6895 O   0  0  0  0  0  0  0  0  0  0  0  0
    8.0807    3.8812   -4.3382 N   0  0  0  0  0  0  0  0  0  0  0  0
    7.9569    5.1952   -4.8627 C   0  0  0  0  0  0  0  0  0  0  0  0
    7.9832    6.3173   -4.0252 C   0  0  0  0  0  0  0  0  0  0  0  0
    7.7508    7.6044   -4.5367 C   0  0  0  0  0  0  0  0  0  0  0  0
    7.7757    8.8127   -3.6319 C   0  0  0  0  0  0  0  0  0  0  0  0
    8.0611    8.5257   -2.3322 F   0  0  0  0  0  0  0  0  0  0  0  0
    8.7125    9.7228   -4.0226 F   0  0  0  0  0  0  0  0  0  0  0  0
    6.5909    9.4829   -3.6182 F   0  0  0  0  0  0  0  0  0  0  0  0
    7.4855    7.7480   -5.9090 C   0  0  0  0  0  0  0  0  0  0  0  0
    7.4869    6.6333   -6.7526 C   0  0  0  0  0  0  0  0  0  0  0  0
    7.7442    5.3694   -6.2285 C   0  0  0  0  0  0  0  0  0  0  0  0
    7.7132    4.3025   -7.0416 F   0  0  0  0  0  0  0  0  0  0  0  0
    7.2138    0.2443   -1.4679 C   0  0  0  0  0  0  0  0  0  0  0  0
    6.4867   -0.4895   -0.5186 C   0  0  0  0  0  0  0  0  0  0  0  0
    1.2920   -2.0884   -1.6349 H   0  0  0  0  0  0  0  0  0  0  0  0
    1.0204   -1.8040    0.0580 H   0  0  0  0  0  0  0  0  0  0  0  0
    2.8669   -1.8598    1.5432 H   0  0  0  0  0  0  0  0  0  0  0  0
    6.0342   -2.3175    2.6412 H   0  0  0  0  0  0  0  0  0  0  0  0
    6.6369   -1.9945    5.0166 H   0  0  0  0  0  0  0  0  0  0  0  0
    5.8199   -0.0052    6.2542 H   0  0  0  0  0  0  0  0  0  0  0  0
    4.3674    1.6531    5.1160 H   0  0  0  0  0  0  0  0  0  0  0  0
    3.7518    1.3453    2.7428 H   0  0  0  0  0  0  0  0  0  0  0  0
    4.0682    1.8024    0.1611 H   0  0  0  0  0  0  0  0  0  0  0  0
    5.3006    3.0593   -1.4627 H   0  0  0  0  0  0  0  0  0  0  0  0
    8.3569    1.7571   -3.2125 H   0  0  0  0  0  0  0  0  0  0  0  0
    8.1622    3.1469   -5.0329 H   0  0  0  0  0  0  0  0  0  0  0  0
    8.1638    6.1921   -2.9574 H   0  0  0  0  0  0  0  0  0  0  0  0
    7.2725    8.7336   -6.3212 H   0  0  0  0  0  0  0  0  0  0  0  0
    7.2671    6.7413   -7.8108 H   0  0  0  0  0  0  0  0  0  0  0  0
    8.0926   -0.2165   -1.9158 H   0  0  0  0  0  0  0  0  0  0  0  0
    6.8091   -1.4929   -0.2523 H   0  0  0  0  0  0  0  0  0  0  0  0
  1  2  1  0  0  0  0
  1 33  1  0  0  0  0
  1 34  1  0  0  0  0
  2  3  2  0  0  0  0
  2  4  1  0  0  0  0
  4  5  2  0  0  0  0
  4 35  1  0  0  0  0
  5  6  1  0  0  0  0
  5 12  1  0  0  0  0
  6  7  1  0  0  0  0
  6 11  2  0  0  0  0
  7  8  2  0  0  0  0
  7 36  1  0  0  0  0
  8  9  1  0  0  0  0
  8 37  1  0  0  0  0
  9 10  2  0  0  0  0
  9 38  1  0  0  0  0
 10 11  1  0  0  0  0
 10 39  1  0  0  0  0
 11 40  1  0  0  0  0
 12 13  1  0  0  0  0
 12 32  2  0  0  0  0
 13 14  2  0  0  0  0
 13 41  1  0  0  0  0
 14 15  1  0  0  0  0
 14 42  1  0  0  0  0
 15 16  1  0  0  0  0
 15 31  2  0  0  0  0
 16 17  1  0  0  0  0
 16 43  1  0  0  0  0
 17 18  2  0  0  0  0
 17 19  1  0  0  0  0
 19 20  1  0  0  0  0
 19 44  1  0  0  0  0
 20 21  1  0  0  0  0
 20 29  2  0  0  0  0
 21 22  2  0  0  0  0
 21 45  1  0  0  0  0
 22 23  1  0  0  0  0
 22 27  1  0  0  0  0
 23 24  1  0  0  0  0
 23 25  1  0  0  0  0
 23 26  1  0  0  0  0
 27 28  2  0  0  0  0
 27 46  1  0  0  0  0
 28 29  1  0  0  0  0
 28 47  1  0  0  0  0
 29 30  1  0  0  0  0
 31 32  1  0  0  0  0
 31 48  1  0  0  0  0
 32 49  1  0  0  0  0
M  END
$$$$
