CHEMBL1980329
 OpenBabel04072215363D

 37 40  0  0  0  0  0  0  0  0999 V2000
   -2.9860    0.9825    0.1162 O   0  0  0  0  0  0  0  0  0  0  0  0
   -1.8205    0.6482    0.0577 C   0  0  0  0  0  0  0  0  0  0  0  0
   -0.7397    1.5092    0.0350 N   0  0  0  0  0  0  0  0  0  0  0  0
    0.4635    0.8221    0.0355 C   0  0  0  0  0  0  0  0  0  0  0  0
    1.7205    1.3984    0.0284 C   0  0  0  0  0  0  0  0  0  0  0  0
    2.8498    0.5602    0.0475 C   0  0  0  0  0  0  0  0  0  0  0  0
    4.2173    1.1429    0.0982 C   0  0  0  0  0  0  0  0  0  0  0  0
    4.4682    2.3608    0.7670 C   0  0  0  0  0  0  0  0  0  0  0  0
    5.7477    2.9251    0.8226 C   0  0  0  0  0  0  0  0  0  0  0  0
    6.8072    2.2669    0.2178 C   0  0  0  0  0  0  0  0  0  0  0  0
    8.0731    2.7693    0.2568 O   0  0  0  0  0  0  0  0  0  0  0  0
    6.6023    1.0672   -0.4474 C   0  0  0  0  0  0  0  0  0  0  0  0
    5.3177    0.5146   -0.5122 C   0  0  0  0  0  0  0  0  0  0  0  0
    2.6281   -0.8442    0.0298 C   0  0  0  0  0  0  0  0  0  0  0  0
    1.3362   -1.4094    0.0229 C   0  0  0  0  0  0  0  0  0  0  0  0
    0.2506   -0.5567    0.0447 C   0  0  0  0  0  0  0  0  0  0  0  0
   -1.2092   -0.7377    0.0533 C   0  0  0  0  0  0  0  0  0  0  0  0
   -1.8762   -1.9028    0.0400 C   0  0  0  0  0  0  0  0  0  0  0  0
   -3.2833   -1.9507   -0.0917 C   0  0  0  0  0  0  0  0  0  0  0  0
   -4.1141   -2.0705   -1.1868 C   0  0  0  0  0  0  0  0  0  0  0  0
   -5.4477   -1.9365   -0.7306 C   0  0  0  0  0  0  0  0  0  0  0  0
   -5.3985   -1.7760    0.6356 C   0  0  0  0  0  0  0  0  0  0  0  0
   -4.0796   -1.7990    1.0179 N   0  0  0  0  0  0  0  0  0  0  0  0
   -0.8541    2.5107    0.0383 H   0  0  0  0  0  0  0  0  0  0  0  0
    1.8120    2.4758    0.0095 H   0  0  0  0  0  0  0  0  0  0  0  0
    3.6635    2.8904    1.2728 H   0  0  0  0  0  0  0  0  0  0  0  0
    5.8898    3.8671    1.3430 H   0  0  0  0  0  0  0  0  0  0  0  0
    8.0640    3.5989    0.7622 H   0  0  0  0  0  0  0  0  0  0  0  0
    7.4388    0.5604   -0.9196 H   0  0  0  0  0  0  0  0  0  0  0  0
    5.1919   -0.4149   -1.0624 H   0  0  0  0  0  0  0  0  0  0  0  0
    3.4771   -1.5276    0.0373 H   0  0  0  0  0  0  0  0  0  0  0  0
    1.2140   -2.4871    0.0031 H   0  0  0  0  0  0  0  0  0  0  0  0
   -1.3428   -2.8491    0.0343 H   0  0  0  0  0  0  0  0  0  0  0  0
   -3.7915   -2.1785   -2.2142 H   0  0  0  0  0  0  0  0  0  0  0  0
   -6.3431   -1.9266   -1.3378 H   0  0  0  0  0  0  0  0  0  0  0  0
   -6.1820   -1.6133    1.3634 H   0  0  0  0  0  0  0  0  0  0  0  0
   -3.7493   -1.6516    1.9620 H   0  0  0  0  0  0  0  0  0  0  0  0
  1  2  2  0  0  0  0
  2  3  1  0  0  0  0
  2 17  1  0  0  0  0
  3  4  1  0  0  0  0
  3 24  1  0  0  0  0
  4  5  1  0  0  0  0
  4 16  2  0  0  0  0
  5  6  2  0  0  0  0
  5 25  1  0  0  0  0
  6  7  1  0  0  0  0
  6 14  1  0  0  0  0
  7  8  1  0  0  0  0
  7 13  2  0  0  0  0
  8  9  2  0  0  0  0
  8 26  1  0  0  0  0
  9 10  1  0  0  0  0
  9 27  1  0  0  0  0
 10 11  1  0  0  0  0
 10 12  2  0  0  0  0
 11 28  1  0  0  0  0
 12 13  1  0  0  0  0
 12 29  1  0  0  0  0
 13 30  1  0  0  0  0
 14 15  2  0  0  0  0
 14 31  1  0  0  0  0
 15 16  1  0  0  0  0
 15 32  1  0  0  0  0
 16 17  1  0  0  0  0
 17 18  2  3  0  0  0
 18 19  1  0  0  0  0
 18 33  1  0  0  0  0
 19 20  2  0  0  0  0
 19 23  1  0  0  0  0
 20 21  1  0  0  0  0
 20 34  1  0  0  0  0
 21 22  2  0  0  0  0
 21 35  1  0  0  0  0
 22 23  1  0  0  0  0
 22 36  1  0  0  0  0
 23 37  1  0  0  0  0
M  END
$$$$
