CHEMBL3921434
 OpenBabel04072215373D

 51 54  0  0  0  0  0  0  0  0999 V2000
    4.9143    2.0190   -1.0325 O   0  0  0  0  0  0  0  0  0  0  0  0
    4.3105    1.1090   -0.4752 C   0  0  0  0  0  0  0  0  0  0  0  0
    3.0513    1.2322    0.0719 N   0  0  0  0  0  0  0  0  0  0  0  0
    2.2850    2.4255    0.0990 C   0  0  0  0  0  0  0  0  0  0  0  0
    2.5995    3.5690   -0.6422 C   0  0  0  0  0  0  0  0  0  0  0  0
    1.8138    4.7216   -0.5515 C   0  0  0  0  0  0  0  0  0  0  0  0
    0.6932    4.7441    0.2752 C   0  0  0  0  0  0  0  0  0  0  0  0
   -0.0663    5.8909    0.2364 O   0  0  0  0  0  0  0  0  0  0  0  0
   -0.6210    6.3573    1.4212 C   0  0  0  0  0  0  0  0  0  0  0  0
   -1.6947    7.2140    1.2976 C   0  0  0  0  0  0  0  0  0  0  0  0
   -2.2180    7.6879    2.4796 C   0  0  0  0  0  0  0  0  0  0  0  0
   -3.2886    8.5942    2.4287 N   0  0  0  0  0  0  0  0  0  0  0  0
   -3.8587    9.1635    3.5497 C   0  0  0  0  0  0  0  0  0  0  0  0
   -3.5734    8.9474    4.7183 O   0  0  0  0  0  0  0  0  0  0  0  0
   -4.9312   10.1661    3.2479 C   0  0  0  0  0  0  0  0  0  0  0  0
   -5.0211   11.4179    4.0957 C   0  0  0  0  0  0  0  0  0  0  0  0
   -6.0679   10.3503    4.2297 C   0  0  0  0  0  0  0  0  0  0  0  0
   -1.7152    7.3245    3.6658 N   0  0  0  0  0  0  0  0  0  0  0  0
   -0.6641    6.5056    3.6733 C   0  0  0  0  0  0  0  0  0  0  0  0
   -0.0694    6.0025    2.5939 N   0  0  0  0  0  0  0  0  0  0  0  0
    0.3471    3.6011    0.9980 C   0  0  0  0  0  0  0  0  0  0  0  0
    1.1492    2.4638    0.9145 C   0  0  0  0  0  0  0  0  0  0  0  0
    0.8186    1.3835    1.6412 F   0  0  0  0  0  0  0  0  0  0  0  0
    4.8479   -0.1518   -0.3045 N   0  0  0  0  0  0  0  0  0  0  0  0
    6.2198   -0.4528   -0.4999 C   0  0  0  0  0  0  0  0  0  0  0  0
    7.2165    0.5295   -0.4364 C   0  0  0  0  0  0  0  0  0  0  0  0
    8.5738    0.2115   -0.6000 C   0  0  0  0  0  0  0  0  0  0  0  0
    9.6232    1.2947   -0.5115 C   0  0  0  0  0  0  0  0  0  0  0  0
    9.1135    2.5436   -0.3243 F   0  0  0  0  0  0  0  0  0  0  0  0
   10.4864    1.0890    0.5218 F   0  0  0  0  0  0  0  0  0  0  0  0
   10.3923    1.3695   -1.6322 F   0  0  0  0  0  0  0  0  0  0  0  0
    8.9317   -1.1255   -0.8244 C   0  0  0  0  0  0  0  0  0  0  0  0
    7.9484   -2.1174   -0.8828 C   0  0  0  0  0  0  0  0  0  0  0  0
    6.6064   -1.7767   -0.7144 C   0  0  0  0  0  0  0  0  0  0  0  0
    5.6762   -2.7426   -0.7724 F   0  0  0  0  0  0  0  0  0  0  0  0
    2.7232    0.4837    0.6685 H   0  0  0  0  0  0  0  0  0  0  0  0
    3.4502    3.6054   -1.3143 H   0  0  0  0  0  0  0  0  0  0  0  0
    2.0893    5.5987   -1.1322 H   0  0  0  0  0  0  0  0  0  0  0  0
   -2.0810    7.4863    0.3260 H   0  0  0  0  0  0  0  0  0  0  0  0
   -3.6386    8.8609    1.5202 H   0  0  0  0  0  0  0  0  0  0  0  0
   -5.1874   10.2859    2.2000 H   0  0  0  0  0  0  0  0  0  0  0  0
   -5.3018   12.3483    3.6189 H   0  0  0  0  0  0  0  0  0  0  0  0
   -4.3147   11.5341    4.9130 H   0  0  0  0  0  0  0  0  0  0  0  0
   -7.0574   10.5565    3.8420 H   0  0  0  0  0  0  0  0  0  0  0  0
   -6.0631    9.7502    5.1351 H   0  0  0  0  0  0  0  0  0  0  0  0
   -0.2668    6.2255    4.6422 H   0  0  0  0  0  0  0  0  0  0  0  0
   -0.5281    3.5806    1.6378 H   0  0  0  0  0  0  0  0  0  0  0  0
    4.2089   -0.9369   -0.3048 H   0  0  0  0  0  0  0  0  0  0  0  0
    6.9591    1.5679   -0.2365 H   0  0  0  0  0  0  0  0  0  0  0  0
    9.9798   -1.3963   -0.9457 H   0  0  0  0  0  0  0  0  0  0  0  0
    8.2218   -3.1541   -1.0550 H   0  0  0  0  0  0  0  0  0  0  0  0
  1  2  2  0  0  0  0
  2  3  1  0  0  0  0
  2 24  1  0  0  0  0
  3  4  1  0  0  0  0
  3 36  1  0  0  0  0
  4  5  1  0  0  0  0
  4 22  2  0  0  0  0
  5  6  2  0  0  0  0
  5 37  1  0  0  0  0
  6  7  1  0  0  0  0
  6 38  1  0  0  0  0
  7  8  1  0  0  0  0
  7 21  2  0  0  0  0
  8  9  1  0  0  0  0
  9 10  1  0  0  0  0
  9 20  2  0  0  0  0
 10 11  2  0  0  0  0
 10 39  1  0  0  0  0
 11 12  1  0  0  0  0
 11 18  1  0  0  0  0
 12 13  1  0  0  0  0
 12 40  1  0  0  0  0
 13 14  2  0  0  0  0
 13 15  1  0  0  0  0
 15 16  1  0  0  0  0
 15 17  1  0  0  0  0
 15 41  1  0  0  0  0
 16 17  1  0  0  0  0
 16 42  1  0  0  0  0
 16 43  1  0  0  0  0
 17 44  1  0  0  0  0
 17 45  1  0  0  0  0
 18 19  2  0  0  0  0
 19 20  1  0  0  0  0
 19 46  1  0  0  0  0
 21 22  1  0  0  0  0
 21 47  1  0  0  0  0
 22 23  1  0  0  0  0
 24 25  1  0  0  0  0
 24 48  1  0  0  0  0
 25 26  1  0  0  0  0
 25 34  2  0  0  0  0
 26 27  2  0  0  0  0
 26 49  1  0  0  0  0
 27 28  1  0  0  0  0
 27 32  1  0  0  0  0
 28 29  1  0  0  0  0
 28 30  1  0  0  0  0
 28 31  1  0  0  0  0
 32 33  2  0  0  0  0
 32 50  1  0  0  0  0
 33 34  1  0  0  0  0
 33 51  1  0  0  0  0
 34 35  1  0  0  0  0
M  END
$$$$
