CHEMBL3891464
 OpenBabel04072215373D

 53 56  0  0  0  0  0  0  0  0999 V2000
    2.5085   -1.9191   -1.7469 C   0  0  0  0  0  0  0  0  0  0  0  0
    3.2801   -1.0550   -0.8501 N   0  0  0  0  0  0  0  0  0  0  0  0
    3.6780    0.1610   -1.5806 C   0  0  0  0  0  0  0  0  0  0  0  0
    4.2982    1.2794   -0.7136 C   0  0  0  0  0  0  0  0  0  0  0  0
    4.8757    2.4247   -1.4982 N   0  0  0  0  0  0  0  0  0  0  0  0
    3.9685    3.3881   -2.0433 C   0  0  0  0  0  0  0  0  0  0  0  0
    2.7695    3.0513   -2.6836 C   0  0  0  0  0  0  0  0  0  0  0  0
    1.9554    4.0033   -3.2896 C   0  0  0  0  0  0  0  0  0  0  0  0
    0.8361    3.6040   -3.9097 F   0  0  0  0  0  0  0  0  0  0  0  0
    2.3038    5.3365   -3.3009 C   0  0  0  0  0  0  0  0  0  0  0  0
    3.4744    5.7307   -2.6628 C   0  0  0  0  0  0  0  0  0  0  0  0
    3.7150    7.0723   -2.7488 O   0  0  0  0  0  0  0  0  0  0  0  0
    4.8903    7.5593   -2.1211 C   0  0  0  0  0  0  0  0  0  0  0  0
    4.2816    4.7694   -2.0294 C   0  0  0  0  0  0  0  0  0  0  0  0
    6.2940    2.5661   -1.4982 C   0  0  0  0  0  0  0  0  0  0  0  0
    6.9423    3.2075   -2.5644 C   0  0  0  0  0  0  0  0  0  0  0  0
    8.3301    3.3880   -2.5836 C   0  0  0  0  0  0  0  0  0  0  0  0
    9.1336    2.9150   -1.5642 C   0  0  0  0  0  0  0  0  0  0  0  0
   10.4649    3.0879   -1.6294 N   0  0  0  0  0  0  0  0  0  0  0  0
   11.1867    2.5864   -0.5982 C   0  0  0  0  0  0  0  0  0  0  0  0
   10.6060    1.9328    0.4764 C   0  0  0  0  0  0  0  0  0  0  0  0
   11.4008    1.3944    1.5674 C   0  0  0  0  0  0  0  0  0  0  0  0
   12.7892    1.4446    1.8268 C   0  0  0  0  0  0  0  0  0  0  0  0
   13.1276    0.8326    2.9644 N   0  0  0  0  0  0  0  0  0  0  0  0
   11.9534    0.3891    3.4441 N   0  0  0  0  0  0  0  0  0  0  0  0
   11.9040   -0.3183    4.7006 C   0  0  0  0  0  0  0  0  0  0  0  0
   10.8928    0.6931    2.6428 C   0  0  0  0  0  0  0  0  0  0  0  0
    9.2607    1.7651    0.5478 N   0  0  0  0  0  0  0  0  0  0  0  0
    8.5231    2.2540   -0.4738 C   0  0  0  0  0  0  0  0  0  0  0  0
    7.1334    2.1140   -0.4555 C   0  0  0  0  0  0  0  0  0  0  0  0
    2.1327   -2.7885   -1.2017 H   0  0  0  0  0  0  0  0  0  0  0  0
    3.1240   -2.2714   -2.5812 H   0  0  0  0  0  0  0  0  0  0  0  0
    1.6364   -1.3937   -2.1562 H   0  0  0  0  0  0  0  0  0  0  0  0
    4.1082   -1.5560   -0.5302 H   0  0  0  0  0  0  0  0  0  0  0  0
    2.7473    0.5191   -1.9978 H   0  0  0  0  0  0  0  0  0  0  0  0
    4.3524   -0.0928   -2.4058 H   0  0  0  0  0  0  0  0  0  0  0  0
    5.0613    0.7751   -0.1143 H   0  0  0  0  0  0  0  0  0  0  0  0
    3.5707    1.6615    0.0135 H   0  0  0  0  0  0  0  0  0  0  0  0
    2.4195    2.0473   -2.8207 H   0  0  0  0  0  0  0  0  0  0  0  0
    1.6713    6.0526   -3.8128 H   0  0  0  0  0  0  0  0  0  0  0  0
    4.9072    8.6453   -2.2529 H   0  0  0  0  0  0  0  0  0  0  0  0
    5.7876    7.1487   -2.5949 H   0  0  0  0  0  0  0  0  0  0  0  0
    4.8755    7.3535   -1.0466 H   0  0  0  0  0  0  0  0  0  0  0  0
    5.1841    5.0846   -1.5153 H   0  0  0  0  0  0  0  0  0  0  0  0
    6.3685    3.5808   -3.4079 H   0  0  0  0  0  0  0  0  0  0  0  0
    8.7904    3.9072   -3.4222 H   0  0  0  0  0  0  0  0  0  0  0  0
   12.2579    2.7348   -0.6816 H   0  0  0  0  0  0  0  0  0  0  0  0
   13.5752    1.9033    1.2415 H   0  0  0  0  0  0  0  0  0  0  0  0
   12.9194   -0.4669    5.0789 H   0  0  0  0  0  0  0  0  0  0  0  0
   11.4248   -1.2857    4.5334 H   0  0  0  0  0  0  0  0  0  0  0  0
   11.3262    0.2800    5.4090 H   0  0  0  0  0  0  0  0  0  0  0  0
    9.8831    0.4012    2.8979 H   0  0  0  0  0  0  0  0  0  0  0  0
    6.7242    1.6607    0.4434 H   0  0  0  0  0  0  0  0  0  0  0  0
  1  2  1  0  0  0  0
  1 31  1  0  0  0  0
  1 32  1  0  0  0  0
  1 33  1  0  0  0  0
  2  3  1  0  0  0  0
  2 34  1  0  0  0  0
  3  4  1  0  0  0  0
  3 35  1  0  0  0  0
  3 36  1  0  0  0  0
  4  5  1  0  0  0  0
  4 37  1  0  0  0  0
  4 38  1  0  0  0  0
  5  6  1  0  0  0  0
  5 15  1  0  0  0  0
  6  7  1  0  0  0  0
  6 14  2  0  0  0  0
  7  8  2  0  0  0  0
  7 39  1  0  0  0  0
  8  9  1  0  0  0  0
  8 10  1  0  0  0  0
 10 11  2  0  0  0  0
 10 40  1  0  0  0  0
 11 12  1  0  0  0  0
 11 14  1  0  0  0  0
 12 13  1  0  0  0  0
 13 41  1  0  0  0  0
 13 42  1  0  0  0  0
 13 43  1  0  0  0  0
 14 44  1  0  0  0  0
 15 16  1  0  0  0  0
 15 30  2  0  0  0  0
 16 17  2  0  0  0  0
 16 45  1  0  0  0  0
 17 18  1  0  0  0  0
 17 46  1  0  0  0  0
 18 19  1  0  0  0  0
 18 29  2  0  0  0  0
 19 20  2  0  0  0  0
 20 21  1  0  0  0  0
 20 47  1  0  0  0  0
 21 22  1  0  0  0  0
 21 28  2  0  0  0  0
 22 23  1  0  0  0  0
 22 27  2  0  0  0  0
 23 24  2  0  0  0  0
 23 48  1  0  0  0  0
 24 25  1  0  0  0  0
 25 26  1  0  0  0  0
 25 27  1  0  0  0  0
 26 49  1  0  0  0  0
 26 50  1  0  0  0  0
 26 51  1  0  0  0  0
 27 52  1  0  0  0  0
 28 29  1  0  0  0  0
 29 30  1  0  0  0  0
 30 53  1  0  0  0  0
M  END
$$$$
