CHEMBL4283293
 OpenBabel04072215383D

 41 44  0  0  0  0  0  0  0  0999 V2000
    2.0997   -1.1508   -4.3614 C   0  0  0  0  0  0  0  0  0  0  0  0
    2.5993   -1.2632   -3.0333 O   0  0  0  0  0  0  0  0  0  0  0  0
    3.2940   -0.2004   -2.5204 C   0  0  0  0  0  0  0  0  0  0  0  0
    3.2119    1.0896   -3.0687 C   0  0  0  0  0  0  0  0  0  0  0  0
    3.9370    2.1499   -2.5223 C   0  0  0  0  0  0  0  0  0  0  0  0
    4.7266    1.9436   -1.3983 C   0  0  0  0  0  0  0  0  0  0  0  0
    4.8143    0.6679   -0.8388 C   0  0  0  0  0  0  0  0  0  0  0  0
    4.1172   -0.4214   -1.3941 C   0  0  0  0  0  0  0  0  0  0  0  0
    4.4417   -1.7997   -0.8323 C   0  0  0  0  0  0  0  0  0  0  0  0
    5.6272   -1.9273   -0.3057 N   0  0  0  0  0  0  0  0  0  0  0  0
    6.0874   -3.1947    0.0556 C   0  0  0  0  0  0  0  0  0  0  0  0
    5.8961   -4.4272   -0.6079 C   0  0  0  0  0  0  0  0  0  0  0  0
    6.6218   -5.4003   -0.0469 N   0  0  0  0  0  0  0  0  0  0  0  0
    7.2271   -4.7832    0.9811 N   0  0  0  0  0  0  0  0  0  0  0  0
    6.9420   -3.4448    1.0899 C   0  0  0  0  0  0  0  0  0  0  0  0
    7.5150   -2.5850    2.1446 C   0  0  0  0  0  0  0  0  0  0  0  0
    4.9990   -4.6252   -1.6020 N   0  0  0  0  0  0  0  0  0  0  0  0
    3.6882   -4.1448   -1.4418 C   0  0  0  0  0  0  0  0  0  0  0  0
    2.7116   -5.0496   -1.6747 N   0  0  0  0  0  0  0  0  0  0  0  0
    1.4679   -4.7172   -1.2982 C   0  0  0  0  0  0  0  0  0  0  0  0
    0.1459   -5.8764   -1.5561 S   0  0  0  0  0  0  0  0  0  0  0  0
    1.0665   -7.2828   -2.2250 C   0  0  0  0  0  0  0  0  0  0  0  0
    1.1311   -3.5621   -0.7001 N   0  0  0  0  0  0  0  0  0  0  0  0
    2.1236   -2.6630   -0.5406 C   0  0  0  0  0  0  0  0  0  0  0  0
    3.4234   -2.8796   -0.9368 C   0  0  0  0  0  0  0  0  0  0  0  0
    1.6505   -2.1112   -4.6299 H   0  0  0  0  0  0  0  0  0  0  0  0
    2.9159   -0.9492   -5.0612 H   0  0  0  0  0  0  0  0  0  0  0  0
    1.3133   -0.3916   -4.4368 H   0  0  0  0  0  0  0  0  0  0  0  0
    2.5956    1.3065   -3.9355 H   0  0  0  0  0  0  0  0  0  0  0  0
    3.8880    3.1347   -2.9800 H   0  0  0  0  0  0  0  0  0  0  0  0
    5.2926    2.7656   -0.9695 H   0  0  0  0  0  0  0  0  0  0  0  0
    5.4648    0.5208    0.0218 H   0  0  0  0  0  0  0  0  0  0  0  0
    7.8232   -5.3396    1.5894 H   0  0  0  0  0  0  0  0  0  0  0  0
    8.1022   -3.1618    2.8676 H   0  0  0  0  0  0  0  0  0  0  0  0
    6.7155   -2.0756    2.6944 H   0  0  0  0  0  0  0  0  0  0  0  0
    8.1721   -1.8247    1.7031 H   0  0  0  0  0  0  0  0  0  0  0  0
    4.9358   -5.5884   -1.9124 H   0  0  0  0  0  0  0  0  0  0  0  0
    0.3658   -8.0970   -2.4302 H   0  0  0  0  0  0  0  0  0  0  0  0
    1.8077   -7.6440   -1.5064 H   0  0  0  0  0  0  0  0  0  0  0  0
    1.5608   -7.0150   -3.1630 H   0  0  0  0  0  0  0  0  0  0  0  0
    1.8225   -1.7326   -0.0673 H   0  0  0  0  0  0  0  0  0  0  0  0
  1  2  1  0  0  0  0
  1 26  1  0  0  0  0
  1 27  1  0  0  0  0
  1 28  1  0  0  0  0
  2  3  1  0  0  0  0
  3  4  1  0  0  0  0
  3  8  2  0  0  0  0
  4  5  2  0  0  0  0
  4 29  1  0  0  0  0
  5  6  1  0  0  0  0
  5 30  1  0  0  0  0
  6  7  2  0  0  0  0
  6 31  1  0  0  0  0
  7  8  1  0  0  0  0
  7 32  1  0  0  0  0
  8  9  1  0  0  0  0
  9 10  2  0  0  0  0
  9 25  1  0  0  0  0
 10 11  1  0  0  0  0
 11 12  1  0  0  0  0
 11 15  2  0  0  0  0
 12 13  2  0  0  0  0
 12 17  1  0  0  0  0
 13 14  1  0  0  0  0
 14 15  1  0  0  0  0
 14 33  1  0  0  0  0
 15 16  1  0  0  0  0
 16 34  1  0  0  0  0
 16 35  1  0  0  0  0
 16 36  1  0  0  0  0
 17 18  1  0  0  0  0
 17 37  1  0  0  0  0
 18 19  1  0  0  0  0
 18 25  2  0  0  0  0
 19 20  2  0  0  0  0
 20 21  1  0  0  0  0
 20 23  1  0  0  0  0
 21 22  1  0  0  0  0
 22 38  1  0  0  0  0
 22 39  1  0  0  0  0
 22 40  1  0  0  0  0
 23 24  2  0  0  0  0
 24 25  1  0  0  0  0
 24 41  1  0  0  0  0
M  END
$$$$
