CHEMBL3656057
 OpenBabel04072215373D

 47 50  0  0  0  0  0  0  0  0999 V2000
    2.9626   -0.0996   -0.4090 C   0  0  0  0  0  0  0  0  0  0  0  0
    1.5002   -0.0659   -0.0737 C   0  0  0  0  0  0  0  0  0  0  0  0
    0.8278   -1.1839    0.4131 C   0  0  0  0  0  0  0  0  0  0  0  0
   -0.5364   -1.1137    0.7129 C   0  0  0  0  0  0  0  0  0  0  0  0
   -1.2334    0.0856    0.5310 C   0  0  0  0  0  0  0  0  0  0  0  0
   -2.5389    0.1132    0.8408 F   0  0  0  0  0  0  0  0  0  0  0  0
   -0.5849    1.2150    0.0480 C   0  0  0  0  0  0  0  0  0  0  0  0
   -1.2500    2.5227   -0.1868 C   0  0  0  0  0  0  0  0  0  0  0  0
   -0.5387    3.4255   -0.6240 O   0  0  0  0  0  0  0  0  0  0  0  0
   -2.5950    2.6493    0.1271 N   0  0  0  0  0  0  0  0  0  0  0  0
   -3.3540    3.8312   -0.0539 C   0  0  0  0  0  0  0  0  0  0  0  0
   -2.9171    4.8877   -0.8566 C   0  0  0  0  0  0  0  0  0  0  0  0
   -3.6423    6.0746   -0.9476 C   0  0  0  0  0  0  0  0  0  0  0  0
   -4.8680    6.1948   -0.3007 C   0  0  0  0  0  0  0  0  0  0  0  0
   -5.6505    7.3260   -0.3382 O   0  0  0  0  0  0  0  0  0  0  0  0
   -5.6874    8.1075   -1.4736 C   0  0  0  0  0  0  0  0  0  0  0  0
   -5.5333    7.6278   -2.7710 C   0  0  0  0  0  0  0  0  0  0  0  0
   -5.5941    8.5344   -3.8137 C   0  0  0  0  0  0  0  0  0  0  0  0
   -5.8389    9.8520   -3.6528 N   0  0  0  0  0  0  0  0  0  0  0  0
   -6.0332   10.2894   -2.3841 C   0  0  0  0  0  0  0  0  0  0  0  0
   -6.3114   11.7181   -2.2799 C   0  0  0  0  0  0  0  0  0  0  0  0
   -6.5555   12.5438   -1.1947 C   0  0  0  0  0  0  0  0  0  0  0  0
   -6.7519   13.8619   -1.6752 C   0  0  0  0  0  0  0  0  0  0  0  0
   -6.6304   13.8182   -3.0443 C   0  0  0  0  0  0  0  0  0  0  0  0
   -6.3669   12.5231   -3.3994 N   0  0  0  0  0  0  0  0  0  0  0  0
   -5.9677    9.4569   -1.2754 C   0  0  0  0  0  0  0  0  0  0  0  0
   -5.3247    5.1404    0.4949 C   0  0  0  0  0  0  0  0  0  0  0  0
   -4.5776    3.9569    0.6094 C   0  0  0  0  0  0  0  0  0  0  0  0
    0.7856    1.1286   -0.2507 C   0  0  0  0  0  0  0  0  0  0  0  0
    3.3953   -1.0872   -0.2267 H   0  0  0  0  0  0  0  0  0  0  0  0
    3.5079    0.6266    0.2053 H   0  0  0  0  0  0  0  0  0  0  0  0
    3.1138    0.1464   -1.4660 H   0  0  0  0  0  0  0  0  0  0  0  0
    1.3580   -2.1264    0.5555 H   0  0  0  0  0  0  0  0  0  0  0  0
   -1.0622   -1.9870    1.0868 H   0  0  0  0  0  0  0  0  0  0  0  0
   -3.0427    1.8839    0.6170 H   0  0  0  0  0  0  0  0  0  0  0  0
   -2.0040    4.8238   -1.4397 H   0  0  0  0  0  0  0  0  0  0  0  0
   -3.2253    6.8858   -1.5370 H   0  0  0  0  0  0  0  0  0  0  0  0
   -5.3543    6.5805   -2.9827 H   0  0  0  0  0  0  0  0  0  0  0  0
   -5.4410    8.2109   -4.8395 H   0  0  0  0  0  0  0  0  0  0  0  0
   -6.5862   12.2356   -0.1580 H   0  0  0  0  0  0  0  0  0  0  0  0
   -6.9575   14.7444   -1.0837 H   0  0  0  0  0  0  0  0  0  0  0  0
   -6.7062   14.5945   -3.7941 H   0  0  0  0  0  0  0  0  0  0  0  0
   -6.2224   12.1713   -4.3379 H   0  0  0  0  0  0  0  0  0  0  0  0
   -6.1273    9.8391   -0.2743 H   0  0  0  0  0  0  0  0  0  0  0  0
   -6.2600    5.2449    1.0400 H   0  0  0  0  0  0  0  0  0  0  0  0
   -4.9535    3.1627    1.2492 H   0  0  0  0  0  0  0  0  0  0  0  0
    1.3144    2.0049   -0.6296 H   0  0  0  0  0  0  0  0  0  0  0  0
  1  2  1  0  0  0  0
  1 30  1  0  0  0  0
  1 31  1  0  0  0  0
  1 32  1  0  0  0  0
  2  3  1  0  0  0  0
  2 29  2  0  0  0  0
  3  4  2  0  0  0  0
  3 33  1  0  0  0  0
  4  5  1  0  0  0  0
  4 34  1  0  0  0  0
  5  6  1  0  0  0  0
  5  7  2  0  0  0  0
  7  8  1  0  0  0  0
  7 29  1  0  0  0  0
  8  9  2  0  0  0  0
  8 10  1  0  0  0  0
 10 11  1  0  0  0  0
 10 35  1  0  0  0  0
 11 12  1  0  0  0  0
 11 28  2  0  0  0  0
 12 13  2  0  0  0  0
 12 36  1  0  0  0  0
 13 14  1  0  0  0  0
 13 37  1  0  0  0  0
 14 15  1  0  0  0  0
 14 27  2  0  0  0  0
 15 16  1  0  0  0  0
 16 17  1  0  0  0  0
 16 26  2  0  0  0  0
 17 18  2  0  0  0  0
 17 38  1  0  0  0  0
 18 19  1  0  0  0  0
 18 39  1  0  0  0  0
 19 20  2  0  0  0  0
 20 21  1  0  0  0  0
 20 26  1  0  0  0  0
 21 22  2  0  0  0  0
 21 25  1  0  0  0  0
 22 23  1  0  0  0  0
 22 40  1  0  0  0  0
 23 24  2  0  0  0  0
 23 41  1  0  0  0  0
 24 25  1  0  0  0  0
 24 42  1  0  0  0  0
 25 43  1  0  0  0  0
 26 44  1  0  0  0  0
 27 28  1  0  0  0  0
 27 45  1  0  0  0  0
 28 46  1  0  0  0  0
 29 47  1  0  0  0  0
M  END
$$$$
