CHEMBL1240545
 OpenBabel04072215363D

 38 40  0  0  0  0  0  0  0  0999 V2000
    3.3706    0.6925    0.8375 C   0  0  0  0  0  0  0  0  0  0  0  0
    2.4855   -0.0583   -0.1591 C   0  0  0  0  0  0  0  0  0  0  0  0
    1.0160    0.3214    0.0299 C   0  0  0  0  0  0  0  0  0  0  0  0
    2.9218    0.1466   -1.5392 N   0  0  0  0  0  0  0  0  0  0  0  0
    2.9545    1.3908   -2.0663 N   0  0  0  0  0  0  0  0  0  0  0  0
    3.3777    1.2127   -3.3311 C   0  0  0  0  0  0  0  0  0  0  0  0
    3.5454    2.3405   -4.2485 C   0  0  0  0  0  0  0  0  0  0  0  0
    3.9733    3.5906   -3.7994 C   0  0  0  0  0  0  0  0  0  0  0  0
    4.3275    4.5897   -4.7237 C   0  0  0  0  0  0  0  0  0  0  0  0
    4.2865    4.3254   -6.1054 C   0  0  0  0  0  0  0  0  0  0  0  0
    4.7957    5.3083   -7.1196 C   0  0  0  0  0  0  0  0  0  0  0  0
    6.2888    5.1511   -7.3573 C   0  0  0  0  0  0  0  0  0  0  0  0
    7.5274    5.0207   -7.5544 N   0  0  0  0  0  0  0  0  0  0  0  0
    3.7979    3.0977   -6.5439 C   0  0  0  0  0  0  0  0  0  0  0  0
    3.3681    2.1502   -5.6220 C   0  0  0  0  0  0  0  0  0  0  0  0
    3.6618   -0.1753   -3.5940 C   0  0  0  0  0  0  0  0  0  0  0  0
    4.1466   -0.9771   -4.6352 C   0  0  0  0  0  0  0  0  0  0  0  0
    4.5882   -0.5315   -5.8811 N   0  0  0  0  0  0  0  0  0  0  0  0
    4.2129   -2.3128   -4.4514 N   0  0  0  0  0  0  0  0  0  0  0  0
    3.8324   -2.8131   -3.2661 C   0  0  0  0  0  0  0  0  0  0  0  0
    3.3933   -2.1509   -2.1873 N   0  0  0  0  0  0  0  0  0  0  0  0
    3.3260   -0.8259   -2.4149 C   0  0  0  0  0  0  0  0  0  0  0  0
    3.0287    0.5223    1.8653 H   0  0  0  0  0  0  0  0  0  0  0  0
    3.3602    1.7727    0.6562 H   0  0  0  0  0  0  0  0  0  0  0  0
    4.4107    0.3532    0.7685 H   0  0  0  0  0  0  0  0  0  0  0  0
    2.5828   -1.1298    0.0498 H   0  0  0  0  0  0  0  0  0  0  0  0
    0.8586    1.3976   -0.0969 H   0  0  0  0  0  0  0  0  0  0  0  0
    0.6757    0.0496    1.0342 H   0  0  0  0  0  0  0  0  0  0  0  0
    0.3780   -0.1983   -0.6936 H   0  0  0  0  0  0  0  0  0  0  0  0
    4.0580    3.7958   -2.7354 H   0  0  0  0  0  0  0  0  0  0  0  0
    4.6716    5.5523   -4.3513 H   0  0  0  0  0  0  0  0  0  0  0  0
    4.5935    6.3310   -6.7791 H   0  0  0  0  0  0  0  0  0  0  0  0
    4.2627    5.1880   -8.0704 H   0  0  0  0  0  0  0  0  0  0  0  0
    3.7679    2.8527   -7.6050 H   0  0  0  0  0  0  0  0  0  0  0  0
    2.9368    1.2283   -6.0070 H   0  0  0  0  0  0  0  0  0  0  0  0
    5.0745    0.3562   -5.8641 H   0  0  0  0  0  0  0  0  0  0  0  0
    5.0605   -1.2750   -6.3858 H   0  0  0  0  0  0  0  0  0  0  0  0
    3.8997   -3.8982   -3.1744 H   0  0  0  0  0  0  0  0  0  0  0  0
  1  2  1  0  0  0  0
  1 23  1  0  0  0  0
  1 24  1  0  0  0  0
  1 25  1  0  0  0  0
  2  3  1  0  0  0  0
  2  4  1  0  0  0  0
  2 26  1  0  0  0  0
  3 27  1  0  0  0  0
  3 28  1  0  0  0  0
  3 29  1  0  0  0  0
  4  5  1  0  0  0  0
  4 22  1  0  0  0  0
  5  6  2  0  0  0  0
  6  7  1  0  0  0  0
  6 16  1  0  0  0  0
  7  8  1  0  0  0  0
  7 15  2  0  0  0  0
  8  9  2  0  0  0  0
  8 30  1  0  0  0  0
  9 10  1  0  0  0  0
  9 31  1  0  0  0  0
 10 11  1  0  0  0  0
 10 14  2  0  0  0  0
 11 12  1  0  0  0  0
 11 32  1  0  0  0  0
 11 33  1  0  0  0  0
 12 13  3  0  0  0  0
 14 15  1  0  0  0  0
 14 34  1  0  0  0  0
 15 35  1  0  0  0  0
 16 17  1  0  0  0  0
 16 22  2  0  0  0  0
 17 18  1  0  0  0  0
 17 19  2  0  0  0  0
 18 36  1  0  0  0  0
 18 37  1  0  0  0  0
 19 20  1  0  0  0  0
 20 21  2  0  0  0  0
 20 38  1  0  0  0  0
 21 22  1  0  0  0  0
M  END
$$$$
