CHEMBL209861
 OpenBabel04072215363D

 46 50  0  0  0  0  0  0  0  0999 V2000
    1.9702    0.0274   -0.9809 C   0  0  0  0  0  0  0  0  0  0  0  0
    0.5235    0.2150   -1.0471 N   0  0  0  0  0  0  0  0  0  0  0  0
   -0.1836   -1.0332   -0.7174 C   0  0  0  0  0  0  0  0  0  0  0  0
   -1.7172   -0.8360   -0.7141 C   0  0  0  0  0  0  0  0  0  0  0  0
   -2.1995    0.1991    0.2260 N   0  0  0  0  0  0  0  0  0  0  0  0
   -2.0379   -0.1573    1.6477 C   0  0  0  0  0  0  0  0  0  0  0  0
   -2.7676   -1.4212    2.0752 C   0  0  0  0  0  0  0  0  0  0  0  0
   -2.0942   -2.6699    1.9949 C   0  0  0  0  0  0  0  0  0  0  0  0
   -2.7212   -3.8695    2.3230 C   0  0  0  0  0  0  0  0  0  0  0  0
   -4.0131   -3.7887    2.7763 C   0  0  0  0  0  0  0  0  0  0  0  0
   -4.7095   -2.5586    2.9254 C   0  0  0  0  0  0  0  0  0  0  0  0
   -4.0949   -1.3704    2.5492 C   0  0  0  0  0  0  0  0  0  0  0  0
   -6.1210   -2.7385    3.5415 C   0  0  0  0  0  0  0  0  0  0  0  0
   -6.0782   -4.2253    3.6786 C   0  0  0  0  0  0  0  0  0  0  0  0
   -6.8114   -5.3108    4.1866 C   0  0  0  0  0  0  0  0  0  0  0  0
   -8.1394   -5.2272    4.8915 C   0  0  0  0  0  0  0  0  0  0  0  0
   -8.7835   -4.0848    5.0545 N   0  0  0  0  0  0  0  0  0  0  0  0
   -9.9484   -4.3069    5.7618 C   0  0  0  0  0  0  0  0  0  0  0  0
  -10.1801   -5.6095    6.1437 C   0  0  0  0  0  0  0  0  0  0  0  0
   -8.9110   -6.6089    5.5760 S   0  0  0  0  0  0  0  0  0  0  0  0
   -6.1444   -6.4735    3.9949 N   0  0  0  0  0  0  0  0  0  0  0  0
   -4.9826   -6.1089    3.4015 N   0  0  0  0  0  0  0  0  0  0  0  0
   -4.9144   -4.7800    3.2302 C   0  0  0  0  0  0  0  0  0  0  0  0
   -1.4628    1.4490   -0.0871 C   0  0  0  0  0  0  0  0  0  0  0  0
    0.0831    1.3066   -0.1588 C   0  0  0  0  0  0  0  0  0  0  0  0
    2.2854   -0.7812   -1.6508 H   0  0  0  0  0  0  0  0  0  0  0  0
    2.3116   -0.2172    0.0318 H   0  0  0  0  0  0  0  0  0  0  0  0
    2.4899    0.9321   -1.3123 H   0  0  0  0  0  0  0  0  0  0  0  0
    0.1521   -1.4122    0.2553 H   0  0  0  0  0  0  0  0  0  0  0  0
    0.0615   -1.8014   -1.4602 H   0  0  0  0  0  0  0  0  0  0  0  0
   -2.2201   -1.7933   -0.5453 H   0  0  0  0  0  0  0  0  0  0  0  0
   -2.0287   -0.5442   -1.7266 H   0  0  0  0  0  0  0  0  0  0  0  0
   -2.4313    0.6658    2.2605 H   0  0  0  0  0  0  0  0  0  0  0  0
   -0.9840   -0.2515    1.9359 H   0  0  0  0  0  0  0  0  0  0  0  0
   -1.0624   -2.7061    1.6561 H   0  0  0  0  0  0  0  0  0  0  0  0
   -2.1999   -4.8157    2.2360 H   0  0  0  0  0  0  0  0  0  0  0  0
   -4.6190   -0.4232    2.6287 H   0  0  0  0  0  0  0  0  0  0  0  0
   -6.8965   -2.4057    2.8477 H   0  0  0  0  0  0  0  0  0  0  0  0
   -6.1860   -2.2387    4.5107 H   0  0  0  0  0  0  0  0  0  0  0  0
  -10.6014   -3.4719    5.9820 H   0  0  0  0  0  0  0  0  0  0  0  0
  -11.0077   -6.0146    6.7077 H   0  0  0  0  0  0  0  0  0  0  0  0
   -4.3043   -6.8260    3.1670 H   0  0  0  0  0  0  0  0  0  0  0  0
   -1.7254    2.2344    0.6325 H   0  0  0  0  0  0  0  0  0  0  0  0
   -1.8199    1.8134   -1.0600 H   0  0  0  0  0  0  0  0  0  0  0  0
    0.4758    1.1574    0.8551 H   0  0  0  0  0  0  0  0  0  0  0  0
    0.4959    2.2538   -0.5264 H   0  0  0  0  0  0  0  0  0  0  0  0
  1  2  1  0  0  0  0
  1 26  1  0  0  0  0
  1 27  1  0  0  0  0
  1 28  1  0  0  0  0
  2  3  1  0  0  0  0
  2 25  1  0  0  0  0
  3  4  1  0  0  0  0
  3 29  1  0  0  0  0
  3 30  1  0  0  0  0
  4  5  1  0  0  0  0
  4 31  1  0  0  0  0
  4 32  1  0  0  0  0
  5  6  1  0  0  0  0
  5 24  1  0  0  0  0
  6  7  1  0  0  0  0
  6 33  1  0  0  0  0
  6 34  1  0  0  0  0
  7  8  1  0  0  0  0
  7 12  2  0  0  0  0
  8  9  2  0  0  0  0
  8 35  1  0  0  0  0
  9 10  1  0  0  0  0
  9 36  1  0  0  0  0
 10 11  2  0  0  0  0
 10 23  1  0  0  0  0
 11 12  1  0  0  0  0
 11 13  1  0  0  0  0
 12 37  1  0  0  0  0
 13 14  1  0  0  0  0
 13 38  1  0  0  0  0
 13 39  1  0  0  0  0
 14 15  1  0  0  0  0
 14 23  2  0  0  0  0
 15 16  1  0  0  0  0
 15 21  2  0  0  0  0
 16 17  2  0  0  0  0
 16 20  1  0  0  0  0
 17 18  1  0  0  0  0
 18 19  2  0  0  0  0
 18 40  1  0  0  0  0
 19 20  1  0  0  0  0
 19 41  1  0  0  0  0
 21 22  1  0  0  0  0
 22 23  1  0  0  0  0
 22 42  1  0  0  0  0
 24 25  1  0  0  0  0
 24 43  1  0  0  0  0
 24 44  1  0  0  0  0
 25 45  1  0  0  0  0
 25 46  1  0  0  0  0
M  END
$$$$
