CHEMBL3969815
 OpenBabel04072215373D

 63 66  0  0  0  0  0  0  0  0999 V2000
    2.2376    5.0748    0.9246 C   0  0  0  0  0  0  0  0  0  0  0  0
    1.9234    3.9055    1.4941 O   0  0  0  0  0  0  0  0  0  0  0  0
    2.8885    2.9992    1.4533 C   0  0  0  0  0  0  0  0  0  0  0  0
    2.5748    1.7254    1.3972 C   0  0  0  0  0  0  0  0  0  0  0  0
    3.4490    0.8035    1.0000 C   0  0  0  0  0  0  0  0  0  0  0  0
    2.9941   -0.4324    0.7696 O   0  0  0  0  0  0  0  0  0  0  0  0
    3.7957   -1.5481    0.9544 C   0  0  0  0  0  0  0  0  0  0  0  0
    4.7322    1.1993    0.7117 C   0  0  0  0  0  0  0  0  0  0  0  0
    5.1350    2.5148    0.8871 C   0  0  0  0  0  0  0  0  0  0  0  0
    6.4720    2.9235    0.4324 N   0  0  0  0  0  0  0  0  0  0  0  0
    7.0622    2.2427   -0.7118 C   0  0  0  0  0  0  0  0  0  0  0  0
    6.1182    1.6876   -1.7808 C   0  0  0  0  0  0  0  0  0  0  0  0
    6.6276    1.0009   -2.9387 N   0  0  0  0  0  0  0  0  0  0  0  0
    5.4846    0.5802   -3.7896 C   0  0  0  0  0  0  0  0  0  0  0  0
    4.9983   -0.7158   -3.1639 C   0  0  0  0  0  0  0  0  0  0  0  0
    6.3041   -1.3702   -2.7467 C   0  0  0  0  0  0  0  0  0  0  0  0
    7.2576   -0.2343   -2.5081 C   0  0  0  0  0  0  0  0  0  0  0  0
    7.4701    3.6007    1.3412 C   0  0  0  0  0  0  0  0  0  0  0  0
    8.2867    4.4364    0.6378 C   0  0  0  0  0  0  0  0  0  0  0  0
    9.1497    5.1473    1.2115 C   0  0  0  0  0  0  0  0  0  0  0  0
    9.3834    5.1517    2.4608 C   0  0  0  0  0  0  0  0  0  0  0  0
   10.2978    5.7883    2.6000 N   0  0  0  0  0  0  0  0  0  0  0  0
   11.1796    6.3956    2.6859 C   0  0  0  0  0  0  0  0  0  0  0  0
   11.3554    6.4560    4.0187 C   0  0  0  0  0  0  0  0  0  0  0  0
   12.8217    7.6419    3.9327 C   0  0  0  0  0  0  0  0  0  0  0  0
   13.3665    8.7317    3.0566 C   0  0  0  0  0  0  0  0  0  0  0  0
   14.2484    9.5583    3.7549 N   0  0  0  0  0  0  0  0  0  0  0  0
   14.3722    9.1474    5.0031 N   0  0  0  0  0  0  0  0  0  0  0  0
   13.5500    8.0517    5.1869 C   0  0  0  0  0  0  0  0  0  0  0  0
   10.1169    5.3509    4.6713 N   0  0  0  0  0  0  0  0  0  0  0  0
    9.0013    4.5899    3.5986 C   0  0  0  0  0  0  0  0  0  0  0  0
    7.7095    3.5488    2.8968 C   0  0  0  0  0  0  0  0  0  0  0  0
    4.1387    3.3589    1.4622 C   0  0  0  0  0  0  0  0  0  0  0  0
   -0.2953    0.1368   -1.3385 Cl  0  0  0  0  0  0  0  0  0  0  0  0
    1.2218    5.6982    1.0021 H   0  0  0  0  0  0  0  0  0  0  0  0
    2.9223    4.6086   -0.0473 H   0  0  0  0  0  0  0  0  0  0  0  0
    3.0534    5.7579    1.2203 H   0  0  0  0  0  0  0  0  0  0  0  0
    1.5985    1.4667    1.6087 H   0  0  0  0  0  0  0  0  0  0  0  0
    3.2342   -2.4511    0.7426 H   0  0  0  0  0  0  0  0  0  0  0  0
    4.1921   -1.6041    2.0055 H   0  0  0  0  0  0  0  0  0  0  0  0
    4.6675   -1.4763    0.2656 H   0  0  0  0  0  0  0  0  0  0  0  0
    5.4179    0.4918    0.3603 H   0  0  0  0  0  0  0  0  0  0  0  0
    7.5920    1.3777   -0.2604 H   0  0  0  0  0  0  0  0  0  0  0  0
    7.6810    2.9601   -1.2312 H   0  0  0  0  0  0  0  0  0  0  0  0
    5.7056    2.6228   -2.2350 H   0  0  0  0  0  0  0  0  0  0  0  0
    5.4932    0.9426   -1.2204 H   0  0  0  0  0  0  0  0  0  0  0  0
    5.8691    0.3812   -4.8017 H   0  0  0  0  0  0  0  0  0  0  0  0
    4.6571    1.3315   -3.9237 H   0  0  0  0  0  0  0  0  0  0  0  0
    4.3977   -1.3332   -3.8363 H   0  0  0  0  0  0  0  0  0  0  0  0
    4.3573   -0.5092   -2.2763 H   0  0  0  0  0  0  0  0  0  0  0  0
    6.7462   -1.9123   -3.5873 H   0  0  0  0  0  0  0  0  0  0  0  0
    6.2195   -2.0559   -1.8813 H   0  0  0  0  0  0  0  0  0  0  0  0
    8.2371   -0.2899   -2.9700 H   0  0  0  0  0  0  0  0  0  0  0  0
    7.6342   -0.2983   -1.4998 H   0  0  0  0  0  0  0  0  0  0  0  0
    8.3504    4.6471   -0.4007 H   0  0  0  0  0  0  0  0  0  0  0  0
    9.7958    5.8035    0.6689 H   0  0  0  0  0  0  0  0  0  0  0  0
   11.6875    6.7857    1.9161 H   0  0  0  0  0  0  0  0  0  0  0  0
   13.1072    9.1291    2.0818 H   0  0  0  0  0  0  0  0  0  0  0  0
   14.9772    9.6553    5.7304 H   0  0  0  0  0  0  0  0  0  0  0  0
   13.4675    7.7158    6.2136 H   0  0  0  0  0  0  0  0  0  0  0  0
    6.9374    2.6719    3.1731 H   0  0  0  0  0  0  0  0  0  0  0  0
    4.0929    4.3169    1.8798 H   0  0  0  0  0  0  0  0  0  0  0  0
    1.2579    0.2458   -1.6026 H   0  0  0  0  0  0  0  0  0  0  0  0
  1  2  1  0  0  0  0
  1 35  1  0  0  0  0
  1 36  1  0  0  0  0
  1 37  1  0  0  0  0
  2  3  1  0  0  0  0
  3  4  1  0  0  0  0
  3 33  2  0  0  0  0
  4  5  2  0  0  0  0
  4 38  1  0  0  0  0
  5  6  1  0  0  0  0
  5  8  1  0  0  0  0
  6  7  1  0  0  0  0
  7 39  1  0  0  0  0
  7 40  1  0  0  0  0
  7 41  1  0  0  0  0
  8  9  2  0  0  0  0
  8 42  1  0  0  0  0
  9 10  1  0  0  0  0
  9 33  1  0  0  0  0
 10 11  1  0  0  0  0
 10 18  1  0  0  0  0
 11 12  1  0  0  0  0
 11 43  1  0  0  0  0
 11 44  1  0  0  0  0
 12 13  1  0  0  0  0
 12 45  1  0  0  0  0
 12 46  1  0  0  0  0
 13 14  1  0  0  0  0
 13 17  1  0  0  0  0
 14 15  1  0  0  0  0
 14 47  1  0  0  0  0
 14 48  1  0  0  0  0
 15 16  1  0  0  0  0
 15 49  1  0  0  0  0
 15 50  1  0  0  0  0
 16 17  1  0  0  0  0
 16 51  1  0  0  0  0
 16 52  1  0  0  0  0
 17 53  1  0  0  0  0
 17 54  1  0  0  0  0
 18 19  1  0  0  0  0
 18 32  2  0  0  0  0
 19 20  2  0  0  0  0
 19 55  1  0  0  0  0
 20 21  1  0  0  0  0
 20 56  1  0  0  0  0
 21 22  1  0  0  0  0
 21 31  2  0  0  0  0
 22 23  2  0  0  0  0
 23 24  1  0  0  0  0
 23 57  1  0  0  0  0
 24 25  1  0  0  0  0
 24 30  2  0  0  0  0
 25 26  1  0  0  0  0
 25 29  2  0  0  0  0
 26 27  2  0  0  0  0
 26 58  1  0  0  0  0
 27 28  1  0  0  0  0
 28 29  1  0  0  0  0
 28 59  1  0  0  0  0
 29 60  1  0  0  0  0
 30 31  1  0  0  0  0
 31 32  1  0  0  0  0
 32 61  1  0  0  0  0
 33 62  1  0  0  0  0
 34 63  1  0  0  0  0
M  END
$$$$
