CHEMBL4098219
 OpenBabel04072215383D

 63 67  0  0  1  0  0  0  0  0999 V2000
    6.3859   -6.3326   12.5404 C   0  0  0  0  0  0  0  0  0  0  0  0
    5.8671   -7.2591   11.5845 O   0  0  0  0  0  0  0  0  0  0  0  0
    5.3434   -6.6829   10.4566 C   0  0  0  0  0  0  0  0  0  0  0  0
    4.6995   -5.4339   10.5113 C   0  0  0  0  0  0  0  0  0  0  0  0
    4.2961   -4.7422    9.3773 C   0  0  0  0  0  0  0  0  0  0  0  0
    3.8093   -3.5077    9.5458 N   0  0  0  0  0  0  0  0  0  0  0  0
    3.5396   -2.7964    8.4451 C   0  0  0  0  0  0  0  0  0  0  0  0
    3.6954   -3.2120    7.1879 N   0  0  0  0  0  0  0  0  0  0  0  0
    4.0954   -4.5032    7.0435 C   0  0  0  0  0  0  0  0  0  0  0  0
    4.1251   -5.0142    5.7187 N   0  0  0  0  0  0  0  0  0  0  0  0
    3.8385   -6.3135    5.4453 N   0  0  0  0  0  0  0  0  0  0  0  0
    4.0333   -6.3835    4.1361 C   0  0  0  0  0  0  0  0  0  0  0  0
    3.9496   -7.5200    3.4226 N   0  0  0  0  0  0  0  0  0  0  0  0
    4.6431   -7.8293    2.2404 C   0  0  0  0  0  0  0  0  0  0  0  0
    5.8360   -7.1813    1.9080 C   0  0  0  0  0  0  0  0  0  0  0  0
    6.4440   -7.3774    0.6730 C   0  0  0  0  0  0  0  0  0  0  0  0
    5.8569   -8.2128   -0.2720 C   0  0  0  0  0  0  0  0  0  0  0  0
    6.3113   -8.4080   -1.5474 O   0  0  0  0  0  0  0  0  0  0  0  0
    7.4315   -7.6177   -1.9738 C   0  0  3  0  0  0  0  0  0  0  0  0
    7.3251   -7.4251   -3.4882 C   0  0  0  0  0  0  0  0  0  0  0  0
    8.5887   -6.7642   -4.0278 C   0  0  0  0  0  0  0  0  0  0  0  0
    9.8372   -7.5506   -3.6246 C   0  0  0  0  0  0  0  0  0  0  0  0
    9.9350   -7.6728   -2.1640 N   0  0  0  0  0  0  0  0  0  0  0  0
   11.1414   -8.4130   -1.7905 C   0  0  0  0  0  0  0  0  0  0  0  0
    8.7445   -8.3407   -1.6124 C   0  0  0  0  0  0  0  0  0  0  0  0
    4.6968   -8.9126    0.0700 C   0  0  0  0  0  0  0  0  0  0  0  0
    4.0959   -8.7275    1.3210 C   0  0  0  0  0  0  0  0  0  0  0  0
    4.3297   -5.1908    3.5373 N   0  0  0  0  0  0  0  0  0  0  0  0
    4.3784   -4.3391    4.5267 C   0  0  0  0  0  0  0  0  0  0  0  0
    4.7347   -3.0403    4.4155 N   0  0  0  0  0  0  0  0  0  0  0  0
    4.4597   -5.3378    8.1290 C   0  0  0  0  0  0  0  0  0  0  0  0
    5.0224   -6.6489    8.0872 C   0  0  0  0  0  0  0  0  0  0  0  0
    5.4546   -7.3303    9.2307 C   0  0  0  0  0  0  0  0  0  0  0  0
    5.9679   -8.5600    8.9315 O   0  0  0  0  0  0  0  0  0  0  0  0
    6.4482   -9.3966    9.9705 C   0  0  0  0  0  0  0  0  0  0  0  0
    7.1413   -6.8473   13.1401 H   0  0  0  0  0  0  0  0  0  0  0  0
    5.5866   -5.9999   13.2103 H   0  0  0  0  0  0  0  0  0  0  0  0
    6.8747   -5.4728   12.0652 H   0  0  0  0  0  0  0  0  0  0  0  0
    4.5283   -4.9483   11.4674 H   0  0  0  0  0  0  0  0  0  0  0  0
    3.1572   -1.7935    8.5972 H   0  0  0  0  0  0  0  0  0  0  0  0
    3.6027   -8.3348    3.9114 H   0  0  0  0  0  0  0  0  0  0  0  0
    6.3083   -6.4974    2.6093 H   0  0  0  0  0  0  0  0  0  0  0  0
    7.3632   -6.8328    0.4924 H   0  0  0  0  0  0  0  0  0  0  0  0
    7.4049   -6.6082   -1.5443 H   0  0  0  0  0  0  0  0  0  0  0  0
    6.4479   -6.8088   -3.7210 H   0  0  0  0  0  0  0  0  0  0  0  0
    7.1570   -8.3894   -3.9830 H   0  0  0  0  0  0  0  0  0  0  0  0
    8.6602   -5.7378   -3.6442 H   0  0  0  0  0  0  0  0  0  0  0  0
    8.5316   -6.6927   -5.1194 H   0  0  0  0  0  0  0  0  0  0  0  0
   10.7167   -7.0216   -4.0102 H   0  0  0  0  0  0  0  0  0  0  0  0
    9.8147   -8.5406   -4.0986 H   0  0  0  0  0  0  0  0  0  0  0  0
   12.0371   -7.9029   -2.1608 H   0  0  0  0  0  0  0  0  0  0  0  0
   11.1372   -9.4353   -2.1861 H   0  0  0  0  0  0  0  0  0  0  0  0
   11.2379   -8.4670   -0.7002 H   0  0  0  0  0  0  0  0  0  0  0  0
    8.8340   -8.3860   -0.5202 H   0  0  0  0  0  0  0  0  0  0  0  0
    8.6861   -9.3855   -1.9475 H   0  0  0  0  0  0  0  0  0  0  0  0
    4.2357   -9.5815   -0.6520 H   0  0  0  0  0  0  0  0  0  0  0  0
    3.1674   -9.2450    1.5468 H   0  0  0  0  0  0  0  0  0  0  0  0
    4.7208   -2.6460    3.4786 H   0  0  0  0  0  0  0  0  0  0  0  0
    4.4990   -2.3864    5.1581 H   0  0  0  0  0  0  0  0  0  0  0  0
    5.1840   -7.1559    7.1383 H   0  0  0  0  0  0  0  0  0  0  0  0
    6.6121  -10.3897    9.5374 H   0  0  0  0  0  0  0  0  0  0  0  0
    5.7224   -9.5220   10.7783 H   0  0  0  0  0  0  0  0  0  0  0  0
    7.4133   -9.0340   10.3359 H   0  0  0  0  0  0  0  0  0  0  0  0
  1  2  1  0  0  0  0
  1 36  1  0  0  0  0
  1 37  1  0  0  0  0
  1 38  1  0  0  0  0
  2  3  1  0  0  0  0
  3  4  1  0  0  0  0
  3 33  2  0  0  0  0
  4  5  2  0  0  0  0
  4 39  1  0  0  0  0
  5  6  1  0  0  0  0
  5 31  1  0  0  0  0
  6  7  2  0  0  0  0
  7  8  1  0  0  0  0
  7 40  1  0  0  0  0
  8  9  2  0  0  0  0
  9 10  1  0  0  0  0
  9 31  1  0  0  0  0
 10 11  1  0  0  0  0
 10 29  1  0  0  0  0
 11 12  2  0  0  0  0
 12 13  1  0  0  0  0
 12 28  1  0  0  0  0
 13 14  1  0  0  0  0
 13 41  1  0  0  0  0
 14 15  1  0  0  0  0
 14 27  2  0  0  0  0
 15 16  2  0  0  0  0
 15 42  1  0  0  0  0
 16 17  1  0  0  0  0
 16 43  1  0  0  0  0
 17 18  1  0  0  0  0
 17 26  2  0  0  0  0
 18 19  1  0  0  0  0
 19 20  1  0  0  0  0
 19 25  1  0  0  0  0
 19 44  1  0  0  0  0
 20 21  1  0  0  0  0
 20 45  1  0  0  0  0
 20 46  1  0  0  0  0
 21 22  1  0  0  0  0
 21 47  1  0  0  0  0
 21 48  1  0  0  0  0
 22 23  1  0  0  0  0
 22 49  1  0  0  0  0
 22 50  1  0  0  0  0
 23 24  1  0  0  0  0
 23 25  1  0  0  0  0
 24 51  1  0  0  0  0
 24 52  1  0  0  0  0
 24 53  1  0  0  0  0
 25 54  1  0  0  0  0
 25 55  1  0  0  0  0
 26 27  1  0  0  0  0
 26 56  1  0  0  0  0
 27 57  1  0  0  0  0
 28 29  2  0  0  0  0
 29 30  1  0  0  0  0
 30 58  1  0  0  0  0
 30 59  1  0  0  0  0
 31 32  2  0  0  0  0
 32 33  1  0  0  0  0
 32 60  1  0  0  0  0
 33 34  1  0  0  0  0
 34 35  1  0  0  0  0
 35 61  1  0  0  0  0
 35 62  1  0  0  0  0
 35 63  1  0  0  0  0
M  END
$$$$
