CHEMBL1993424
 OpenBabel04072215363D

 44 47  0  0  0  0  0  0  0  0999 V2000
    5.5101   -2.7607   -1.8671 N   0  0  0  0  0  0  0  0  0  0  0  0
    4.1328   -3.4264   -2.5638 S   0  0  0  0  0  0  0  0  0  0  0  0
    3.1343   -2.3820   -2.5941 O   0  0  0  0  0  0  0  0  0  0  0  0
    4.6038   -4.0876   -3.7574 O   0  0  0  0  0  0  0  0  0  0  0  0
    3.6577   -4.6342   -1.3683 C   0  0  0  0  0  0  0  0  0  0  0  0
    3.6182   -5.9755   -1.7581 C   0  0  0  0  0  0  0  0  0  0  0  0
    3.3244   -6.9472   -0.8136 C   0  0  0  0  0  0  0  0  0  0  0  0
    3.0793   -6.5738    0.5075 C   0  0  0  0  0  0  0  0  0  0  0  0
    3.1056   -5.2330    0.9189 C   0  0  0  0  0  0  0  0  0  0  0  0
    2.9563   -4.8660    2.2653 N   0  0  0  0  0  0  0  0  0  0  0  0
    2.9732   -5.6619    3.4157 C   0  0  0  0  0  0  0  0  0  0  0  0
    2.2554   -5.1861    4.4530 N   0  0  0  0  0  0  0  0  0  0  0  0
    2.1833   -5.9148    5.5942 C   0  0  0  0  0  0  0  0  0  0  0  0
    2.8701   -7.1181    5.6891 C   0  0  0  0  0  0  0  0  0  0  0  0
    3.0541   -8.1293    6.6670 C   0  0  0  0  0  0  0  0  0  0  0  0
    3.9082   -9.0718    6.1323 C   0  0  0  0  0  0  0  0  0  0  0  0
    4.2333   -8.6754    4.8540 N   0  0  0  0  0  0  0  0  0  0  0  0
    5.1976   -9.3448    3.9890 C   0  0  0  0  0  0  0  0  0  0  0  0
    4.5840  -10.4826    3.2099 C   0  0  0  0  0  0  0  0  0  0  0  0
    4.1171  -10.2750    1.9044 C   0  0  0  0  0  0  0  0  0  0  0  0
    3.5366  -11.3182    1.1794 C   0  0  0  0  0  0  0  0  0  0  0  0
    3.4213  -12.5834    1.7501 C   0  0  0  0  0  0  0  0  0  0  0  0
    3.8915  -12.8077    3.0423 C   0  0  0  0  0  0  0  0  0  0  0  0
    4.4704  -11.7643    3.7689 C   0  0  0  0  0  0  0  0  0  0  0  0
    3.6038   -7.4862    4.5736 C   0  0  0  0  0  0  0  0  0  0  0  0
    3.6930   -6.7976    3.4274 N   0  0  0  0  0  0  0  0  0  0  0  0
    3.3948   -4.2545   -0.0444 C   0  0  0  0  0  0  0  0  0  0  0  0
    5.4715   -1.7430   -1.9558 H   0  0  0  0  0  0  0  0  0  0  0  0
    6.3463   -3.1752   -2.2757 H   0  0  0  0  0  0  0  0  0  0  0  0
    3.8303   -6.2702   -2.7823 H   0  0  0  0  0  0  0  0  0  0  0  0
    3.2998   -7.9965   -1.0924 H   0  0  0  0  0  0  0  0  0  0  0  0
    2.8438   -7.3577    1.2217 H   0  0  0  0  0  0  0  0  0  0  0  0
    2.4417   -4.0127    2.4454 H   0  0  0  0  0  0  0  0  0  0  0  0
    1.5763   -5.5090    6.3953 H   0  0  0  0  0  0  0  0  0  0  0  0
    2.6248   -8.1602    7.6599 H   0  0  0  0  0  0  0  0  0  0  0  0
    4.3122   -9.9825    6.5544 H   0  0  0  0  0  0  0  0  0  0  0  0
    6.0113   -9.7120    4.6262 H   0  0  0  0  0  0  0  0  0  0  0  0
    5.6395   -8.5996    3.3178 H   0  0  0  0  0  0  0  0  0  0  0  0
    4.2081   -9.2950    1.4429 H   0  0  0  0  0  0  0  0  0  0  0  0
    3.1741  -11.1424    0.1702 H   0  0  0  0  0  0  0  0  0  0  0  0
    2.9654  -13.3945    1.1878 H   0  0  0  0  0  0  0  0  0  0  0  0
    3.8059  -13.7967    3.4855 H   0  0  0  0  0  0  0  0  0  0  0  0
    4.8334  -11.9622    4.7747 H   0  0  0  0  0  0  0  0  0  0  0  0
    3.4527   -3.2054    0.2373 H   0  0  0  0  0  0  0  0  0  0  0  0
  1  2  1  0  0  0  0
  1 28  1  0  0  0  0
  1 29  1  0  0  0  0
  2  3  2  0  0  0  0
  2  4  2  0  0  0  0
  2  5  1  0  0  0  0
  5  6  1  0  0  0  0
  5 27  2  0  0  0  0
  6  7  2  0  0  0  0
  6 30  1  0  0  0  0
  7  8  1  0  0  0  0
  7 31  1  0  0  0  0
  8  9  2  0  0  0  0
  8 32  1  0  0  0  0
  9 10  1  0  0  0  0
  9 27  1  0  0  0  0
 10 11  1  0  0  0  0
 10 33  1  0  0  0  0
 11 12  1  0  0  0  0
 11 26  2  0  0  0  0
 12 13  2  0  0  0  0
 13 14  1  0  0  0  0
 13 34  1  0  0  0  0
 14 15  1  0  0  0  0
 14 25  2  0  0  0  0
 15 16  2  0  0  0  0
 15 35  1  0  0  0  0
 16 17  1  0  0  0  0
 16 36  1  0  0  0  0
 17 18  1  0  0  0  0
 17 25  1  0  0  0  0
 18 19  1  0  0  0  0
 18 37  1  0  0  0  0
 18 38  1  0  0  0  0
 19 20  1  0  0  0  0
 19 24  2  0  0  0  0
 20 21  2  0  0  0  0
 20 39  1  0  0  0  0
 21 22  1  0  0  0  0
 21 40  1  0  0  0  0
 22 23  2  0  0  0  0
 22 41  1  0  0  0  0
 23 24  1  0  0  0  0
 23 42  1  0  0  0  0
 24 43  1  0  0  0  0
 25 26  1  0  0  0  0
 27 44  1  0  0  0  0
M  END
$$$$
