CHEMBL3648111
 OpenBabel04072215373D

 48 49  0  0  1  0  0  0  0  0999 V2000
    1.1884  -11.8670    8.8261 C   0  0  0  0  0  0  0  0  0  0  0  0
    2.3399  -11.0455    8.6668 O   0  0  0  0  0  0  0  0  0  0  0  0
    2.1863   -9.8838    7.9598 C   0  0  0  0  0  0  0  0  0  0  0  0
    0.9521   -9.2281    7.7868 C   0  0  0  0  0  0  0  0  0  0  0  0
    0.8628   -7.9962    7.1056 C   0  0  0  0  0  0  0  0  0  0  0  0
   -0.3956   -7.4096    6.8964 N   0  0  0  0  0  0  0  0  0  0  0  0
   -0.7523   -6.2529    6.1978 C   0  0  0  0  0  0  0  0  0  0  0  0
   -1.8588   -5.6369    6.6329 N   0  0  0  0  0  0  0  0  0  0  0  0
   -2.1855   -4.4829    6.0168 C   0  0  0  0  0  0  0  0  0  0  0  0
   -1.4823   -3.9515    4.9600 C   0  0  0  0  0  0  0  0  0  0  0  0
   -2.0050   -2.2986    4.2119 Br  0  0  0  0  0  0  0  0  0  0  0  0
   -0.3704   -4.6649    4.5413 C   0  0  0  0  0  0  0  0  0  0  0  0
    0.4335   -4.1638    3.5046 N   0  0  0  0  0  0  0  0  0  0  0  0
    1.7252   -4.8145    3.2297 C   0  0  2  0  0  0  0  0  0  0  0  0
    2.7507   -4.3056    4.2451 C   0  0  0  0  0  0  0  0  0  0  0  0
    2.1568   -4.4550    1.7765 C   0  0  1  0  0  0  0  0  0  0  0  0
    3.5357   -4.9815    1.3907 C   0  0  0  0  0  0  0  0  0  0  0  0
    1.1923   -4.9746    0.8476 O   0  0  0  0  0  0  0  0  0  0  0  0
   -0.0140   -5.8047    5.1653 N   0  0  0  0  0  0  0  0  0  0  0  0
    2.0410   -7.4474    6.5930 C   0  0  0  0  0  0  0  0  0  0  0  0
    3.2685   -8.0850    6.7409 C   0  0  0  0  0  0  0  0  0  0  0  0
    3.3405   -9.3026    7.4170 C   0  0  0  0  0  0  0  0  0  0  0  0
    4.9298  -10.1130    7.4891 S   0  0  3  0  0  0  0  0  0  0  0  0
    5.2879  -10.2398    9.2186 C   0  0  0  0  0  0  0  0  0  0  0  0
    4.7268  -11.5316    6.9160 N   0  0  0  0  0  0  0  0  0  0  0  0
    5.9025   -9.1699    6.9646 O   0  0  0  0  0  0  0  0  0  0  0  0
    1.5018  -12.7730    9.3541 H   0  0  0  0  0  0  0  0  0  0  0  0
    0.7872  -12.1641    7.8524 H   0  0  0  0  0  0  0  0  0  0  0  0
    0.4258  -11.3813    9.4424 H   0  0  0  0  0  0  0  0  0  0  0  0
    0.0347   -9.6538    8.1795 H   0  0  0  0  0  0  0  0  0  0  0  0
   -1.0993   -7.5976    7.5973 H   0  0  0  0  0  0  0  0  0  0  0  0
   -3.0497   -3.9737    6.4337 H   0  0  0  0  0  0  0  0  0  0  0  0
   -0.1209   -4.0279    2.6579 H   0  0  0  0  0  0  0  0  0  0  0  0
    1.6235   -5.9059    3.2913 H   0  0  0  0  0  0  0  0  0  0  0  0
    2.9753   -3.2470    4.0733 H   0  0  0  0  0  0  0  0  0  0  0  0
    3.6846   -4.8716    4.1824 H   0  0  0  0  0  0  0  0  0  0  0  0
    2.3850   -4.3894    5.2725 H   0  0  0  0  0  0  0  0  0  0  0  0
    2.1493   -3.3660    1.6490 H   0  0  0  0  0  0  0  0  0  0  0  0
    3.5887   -6.0698    1.5015 H   0  0  0  0  0  0  0  0  0  0  0  0
    4.3287   -4.5278    1.9934 H   0  0  0  0  0  0  0  0  0  0  0  0
    3.7483   -4.7605    0.3387 H   0  0  0  0  0  0  0  0  0  0  0  0
    1.1948   -5.9447    0.9332 H   0  0  0  0  0  0  0  0  0  0  0  0
    2.0318   -6.4982    6.0746 H   0  0  0  0  0  0  0  0  0  0  0  0
    4.1542   -7.6207    6.3155 H   0  0  0  0  0  0  0  0  0  0  0  0
    4.5794  -10.9010    9.7152 H   0  0  0  0  0  0  0  0  0  0  0  0
    5.2559   -9.2408    9.6585 H   0  0  0  0  0  0  0  0  0  0  0  0
    6.2974  -10.6468    9.3181 H   0  0  0  0  0  0  0  0  0  0  0  0
    4.1714  -12.1142    7.5440 H   0  0  0  0  0  0  0  0  0  0  0  0
  1  2  1  0  0  0  0
  1 27  1  0  0  0  0
  1 28  1  0  0  0  0
  1 29  1  0  0  0  0
  2  3  1  0  0  0  0
  3  4  1  0  0  0  0
  3 22  2  0  0  0  0
  4  5  2  0  0  0  0
  4 30  1  0  0  0  0
  5  6  1  0  0  0  0
  5 20  1  0  0  0  0
  6  7  1  0  0  0  0
  6 31  1  0  0  0  0
  7  8  1  0  0  0  0
  7 19  2  0  0  0  0
  8  9  2  0  0  0  0
  9 10  1  0  0  0  0
  9 32  1  0  0  0  0
 10 11  1  0  0  0  0
 10 12  2  0  0  0  0
 12 13  1  0  0  0  0
 12 19  1  0  0  0  0
 13 33  1  0  0  0  0
 14 16  1  0  0  0  0
 14 15  1  0  0  0  0
 14 13  1  0  0  0  0
 14 34  1  1  0  0  0
 15 35  1  0  0  0  0
 15 36  1  0  0  0  0
 15 37  1  0  0  0  0
 16 17  1  0  0  0  0
 16 18  1  0  0  0  0
 16 38  1  6  0  0  0
 17 39  1  0  0  0  0
 17 40  1  0  0  0  0
 17 41  1  0  0  0  0
 18 42  1  0  0  0  0
 20 21  2  0  0  0  0
 20 43  1  0  0  0  0
 21 22  1  0  0  0  0
 21 44  1  0  0  0  0
 22 23  1  0  0  0  0
 23 24  1  0  0  0  0
 23 25  2  0  0  0  0
 23 26  2  0  0  0  0
 24 45  1  0  0  0  0
 24 46  1  0  0  0  0
 24 47  1  0  0  0  0
 25 48  1  0  0  0  0
M  END
$$$$
