CHEMBL1982388
 OpenBabel04072215363D

 31 33  0  0  0  0  0  0  0  0999 V2000
    6.1314    3.6458   -4.8783 N   0  0  0  0  0  0  0  0  0  0  0  0
    6.6915    3.1742   -3.7052 C   0  0  0  0  0  0  0  0  0  0  0  0
    5.9546    3.1616   -2.5747 N   0  0  0  0  0  0  0  0  0  0  0  0
    6.5095    2.6897   -1.4366 C   0  0  0  0  0  0  0  0  0  0  0  0
    5.5071    2.5771    0.0361 S   0  0  0  0  0  0  0  0  0  0  0  0
    4.4431    4.0329   -0.1297 C   0  0  0  0  0  0  0  0  0  0  0  0
    5.2048    5.3418   -0.2182 C   0  0  0  0  0  0  0  0  0  0  0  0
    4.8911    6.1643   -1.0765 O   0  0  0  0  0  0  0  0  0  0  0  0
    6.1631    5.5092    0.7548 N   0  0  0  0  0  0  0  0  0  0  0  0
    6.9727    6.6280    0.8907 C   0  0  0  0  0  0  0  0  0  0  0  0
    6.7145    7.7542    0.2175 N   0  0  0  0  0  0  0  0  0  0  0  0
    7.5912    8.7636    0.3453 C   0  0  0  0  0  0  0  0  0  0  0  0
    8.7195    8.6864    1.1203 C   0  0  0  0  0  0  0  0  0  0  0  0
    8.8811    7.5033    1.7995 C   0  0  0  0  0  0  0  0  0  0  0  0
    8.0183    6.4698    1.7176 N   0  0  0  0  0  0  0  0  0  0  0  0
    7.7506    2.2139   -1.2816 N   0  0  0  0  0  0  0  0  0  0  0  0
    8.4661    2.2249   -2.4146 C   0  0  0  0  0  0  0  0  0  0  0  0
    9.7536    1.7753   -2.5401 N   0  0  0  0  0  0  0  0  0  0  0  0
   10.0492    1.9545   -3.8055 C   0  0  0  0  0  0  0  0  0  0  0  0
    9.0138    2.5101   -4.4992 N   0  0  0  0  0  0  0  0  0  0  0  0
    7.9798    2.6889   -3.6204 C   0  0  0  0  0  0  0  0  0  0  0  0
    5.2995    4.1980   -4.6915 H   0  0  0  0  0  0  0  0  0  0  0  0
    6.7591    4.0335   -5.5674 H   0  0  0  0  0  0  0  0  0  0  0  0
    3.7943    4.0849    0.7520 H   0  0  0  0  0  0  0  0  0  0  0  0
    3.7965    3.9278   -1.0062 H   0  0  0  0  0  0  0  0  0  0  0  0
    6.4480    4.7305    1.3310 H   0  0  0  0  0  0  0  0  0  0  0  0
    7.3505    9.6561   -0.2242 H   0  0  0  0  0  0  0  0  0  0  0  0
    9.4284    9.4989    1.1880 H   0  0  0  0  0  0  0  0  0  0  0  0
    9.7422    7.3412    2.4417 H   0  0  0  0  0  0  0  0  0  0  0  0
   10.9937    1.6987   -4.2748 H   0  0  0  0  0  0  0  0  0  0  0  0
    9.0061    2.7363   -5.4828 H   0  0  0  0  0  0  0  0  0  0  0  0
  1  2  1  0  0  0  0
  1 22  1  0  0  0  0
  1 23  1  0  0  0  0
  2  3  1  0  0  0  0
  2 21  2  0  0  0  0
  3  4  2  0  0  0  0
  4  5  1  0  0  0  0
  4 16  1  0  0  0  0
  5  6  1  0  0  0  0
  6  7  1  0  0  0  0
  6 24  1  0  0  0  0
  6 25  1  0  0  0  0
  7  8  2  0  0  0  0
  7  9  1  0  0  0  0
  9 10  1  0  0  0  0
  9 26  1  0  0  0  0
 10 11  1  0  0  0  0
 10 15  2  0  0  0  0
 11 12  2  0  0  0  0
 12 13  1  0  0  0  0
 12 27  1  0  0  0  0
 13 14  2  0  0  0  0
 13 28  1  0  0  0  0
 14 15  1  0  0  0  0
 14 29  1  0  0  0  0
 16 17  2  0  0  0  0
 17 18  1  0  0  0  0
 17 21  1  0  0  0  0
 18 19  2  0  0  0  0
 19 20  1  0  0  0  0
 19 30  1  0  0  0  0
 20 21  1  0  0  0  0
 20 31  1  0  0  0  0
M  END
$$$$
