CHEMBL3290931
 OpenBabel04072215363D

 84 89  0  0  0  0  0  0  0  0999 V2000
    2.6303   -0.6472    0.9596 C   0  0  0  0  0  0  0  0  0  0  0  0
    2.4730    0.3008   -0.0918 O   0  0  0  0  0  0  0  0  0  0  0  0
    3.1813    0.1254   -1.2502 C   0  0  0  0  0  0  0  0  0  0  0  0
    4.3031   -0.7106   -1.3517 C   0  0  0  0  0  0  0  0  0  0  0  0
    4.9426   -0.9602   -2.5911 C   0  0  0  0  0  0  0  0  0  0  0  0
    6.0389   -1.8457   -2.7710 C   0  0  0  0  0  0  0  0  0  0  0  0
    6.4895   -2.5697   -1.6803 O   0  0  0  0  0  0  0  0  0  0  0  0
    6.9789   -3.8493   -1.8576 C   0  0  0  0  0  0  0  0  0  0  0  0
    8.0399   -4.2159   -1.0333 C   0  0  0  0  0  0  0  0  0  0  0  0
    8.5752   -5.5138   -1.0928 C   0  0  0  0  0  0  0  0  0  0  0  0
    8.0619   -6.4850   -1.9638 C   0  0  0  0  0  0  0  0  0  0  0  0
    8.5648   -7.8175   -2.0344 N   0  0  0  0  0  0  0  0  0  0  0  0
    9.6319   -8.3192   -1.3066 C   0  0  0  0  0  0  0  0  0  0  0  0
   10.3245   -7.7106   -0.5027 O   0  0  0  0  0  0  0  0  0  0  0  0
    9.9815   -9.7962   -1.5459 C   0  0  0  0  0  0  0  0  0  0  0  0
    9.0042  -10.6557   -1.5433 N   0  0  0  0  0  0  0  0  0  0  0  0
    9.3445  -11.9970   -1.6637 N   0  0  0  0  0  0  0  0  0  0  0  0
    8.2621  -12.8977   -1.4812 C   0  0  0  0  0  0  0  0  0  0  0  0
    8.3778  -13.8951   -0.4907 C   0  0  0  0  0  0  0  0  0  0  0  0
    7.3411  -14.7937   -0.2427 C   0  0  0  0  0  0  0  0  0  0  0  0
    6.1752  -14.7195   -0.9922 C   0  0  0  0  0  0  0  0  0  0  0  0
    6.0557  -13.7512   -1.9911 C   0  0  0  0  0  0  0  0  0  0  0  0
    7.0942  -12.8294   -2.2551 C   0  0  0  0  0  0  0  0  0  0  0  0
    6.9106  -11.9021   -3.4285 C   0  0  0  0  0  0  0  0  0  0  0  0
    7.9838  -11.1562   -3.8132 F   0  0  0  0  0  0  0  0  0  0  0  0
    6.5553  -12.5892   -4.5566 F   0  0  0  0  0  0  0  0  0  0  0  0
    5.9011  -11.0061   -3.2244 F   0  0  0  0  0  0  0  0  0  0  0  0
   10.6473  -12.4764   -1.7920 C   0  0  0  0  0  0  0  0  0  0  0  0
   10.9865  -13.6521   -1.9034 O   0  0  0  0  0  0  0  0  0  0  0  0
   11.7004  -11.4492   -1.8316 C   0  0  0  0  0  0  0  0  0  0  0  0
   11.4274  -10.1472   -1.6983 C   0  0  0  0  0  0  0  0  0  0  0  0
   12.5120   -9.1200   -1.6812 C   0  0  0  0  0  0  0  0  0  0  0  0
    6.9941   -6.1136   -2.7876 C   0  0  0  0  0  0  0  0  0  0  0  0
    6.4541   -4.8163   -2.7204 C   0  0  0  0  0  0  0  0  0  0  0  0
    5.4127   -4.5316   -3.5156 F   0  0  0  0  0  0  0  0  0  0  0  0
    6.6696   -1.9290   -4.0079 C   0  0  0  0  0  0  0  0  0  0  0  0
    6.1142   -1.2341   -5.0569 C   0  0  0  0  0  0  0  0  0  0  0  0
    5.0271   -0.4432   -4.9480 N   0  0  0  0  0  0  0  0  0  0  0  0
    4.4643   -0.2956   -3.7384 C   0  0  0  0  0  0  0  0  0  0  0  0
    3.3773    0.5596   -3.6193 C   0  0  0  0  0  0  0  0  0  0  0  0
    2.7447    0.8146   -2.3921 C   0  0  0  0  0  0  0  0  0  0  0  0
    1.7085    1.7125   -2.4884 O   0  0  0  0  0  0  0  0  0  0  0  0
    1.4483    2.5233   -1.3391 C   0  0  0  0  0  0  0  0  0  0  0  0
    0.8720    3.8917   -1.7407 C   0  0  0  0  0  0  0  0  0  0  0  0
   -0.5106    3.7941   -2.4041 C   0  0  0  0  0  0  0  0  0  0  0  0
   -1.0988    5.1004   -2.7679 N   0  0  0  0  0  0  0  0  0  0  0  0
   -1.4179    5.9810   -1.6215 C   0  0  0  0  0  0  0  0  0  0  0  0
   -2.6596    5.5613   -0.8155 C   0  0  0  0  0  0  0  0  0  0  0  0
   -3.8134    5.4427   -1.6562 O   0  0  0  0  0  0  0  0  0  0  0  0
   -3.5675    4.5073   -2.7133 C   0  0  0  0  0  0  0  0  0  0  0  0
   -2.3452    4.9200   -3.5549 C   0  0  0  0  0  0  0  0  0  0  0  0
    3.2595   -0.2122    1.7420 H   0  0  0  0  0  0  0  0  0  0  0  0
    3.0294   -1.6166    0.6480 H   0  0  0  0  0  0  0  0  0  0  0  0
    1.6410   -0.8420    1.3852 H   0  0  0  0  0  0  0  0  0  0  0  0
    4.7264   -1.1749   -0.4656 H   0  0  0  0  0  0  0  0  0  0  0  0
    8.4593   -3.5002   -0.3311 H   0  0  0  0  0  0  0  0  0  0  0  0
    9.3946   -5.7280   -0.4142 H   0  0  0  0  0  0  0  0  0  0  0  0
    8.0671   -8.4773   -2.6328 H   0  0  0  0  0  0  0  0  0  0  0  0
    9.2781  -13.9663    0.1180 H   0  0  0  0  0  0  0  0  0  0  0  0
    7.4479  -15.5495    0.5325 H   0  0  0  0  0  0  0  0  0  0  0  0
    5.3665  -15.4232   -0.8151 H   0  0  0  0  0  0  0  0  0  0  0  0
    5.1485  -13.7326   -2.5951 H   0  0  0  0  0  0  0  0  0  0  0  0
   12.7099  -11.8262   -1.9491 H   0  0  0  0  0  0  0  0  0  0  0  0
   13.4978   -9.5768   -1.8280 H   0  0  0  0  0  0  0  0  0  0  0  0
   12.5551   -8.6089   -0.7158 H   0  0  0  0  0  0  0  0  0  0  0  0
   12.3709   -8.3848   -2.4780 H   0  0  0  0  0  0  0  0  0  0  0  0
    6.5539   -6.8111   -3.4949 H   0  0  0  0  0  0  0  0  0  0  0  0
    7.5537   -2.5331   -4.1659 H   0  0  0  0  0  0  0  0  0  0  0  0
    6.5387   -1.2979   -6.0564 H   0  0  0  0  0  0  0  0  0  0  0  0
    3.0103    1.0609   -4.5134 H   0  0  0  0  0  0  0  0  0  0  0  0
    2.3718    2.7175   -0.7803 H   0  0  0  0  0  0  0  0  0  0  0  0
    0.7288    2.0065   -0.6937 H   0  0  0  0  0  0  0  0  0  0  0  0
    1.5662    4.3929   -2.4260 H   0  0  0  0  0  0  0  0  0  0  0  0
    0.8112    4.4942   -0.8285 H   0  0  0  0  0  0  0  0  0  0  0  0
   -1.1863    3.2188   -1.7637 H   0  0  0  0  0  0  0  0  0  0  0  0
   -0.3805    3.2171   -3.3304 H   0  0  0  0  0  0  0  0  0  0  0  0
   -1.6092    6.9820   -2.0326 H   0  0  0  0  0  0  0  0  0  0  0  0
   -0.5616    6.1043   -0.9526 H   0  0  0  0  0  0  0  0  0  0  0  0
   -2.8845    6.3254   -0.0635 H   0  0  0  0  0  0  0  0  0  0  0  0
   -2.4992    4.6157   -0.2862 H   0  0  0  0  0  0  0  0  0  0  0  0
   -4.4610    4.4863   -3.3457 H   0  0  0  0  0  0  0  0  0  0  0  0
   -3.4470    3.5063   -2.2842 H   0  0  0  0  0  0  0  0  0  0  0  0
   -2.5696    5.8810   -4.0368 H   0  0  0  0  0  0  0  0  0  0  0  0
   -2.1894    4.2017   -4.3679 H   0  0  0  0  0  0  0  0  0  0  0  0
  1  2  1  0  0  0  0
  1 52  1  0  0  0  0
  1 53  1  0  0  0  0
  1 54  1  0  0  0  0
  2  3  1  0  0  0  0
  3  4  1  0  0  0  0
  3 41  2  0  0  0  0
  4  5  2  0  0  0  0
  4 55  1  0  0  0  0
  5  6  1  0  0  0  0
  5 39  1  0  0  0  0
  6  7  1  0  0  0  0
  6 36  2  0  0  0  0
  7  8  1  0  0  0  0
  8  9  1  0  0  0  0
  8 34  2  0  0  0  0
  9 10  2  0  0  0  0
  9 56  1  0  0  0  0
 10 11  1  0  0  0  0
 10 57  1  0  0  0  0
 11 12  1  0  0  0  0
 11 33  2  0  0  0  0
 12 13  1  0  0  0  0
 12 58  1  0  0  0  0
 13 14  2  0  0  0  0
 13 15  1  0  0  0  0
 15 16  2  0  0  0  0
 15 31  1  0  0  0  0
 16 17  1  0  0  0  0
 17 18  1  0  0  0  0
 17 28  1  0  0  0  0
 18 19  1  0  0  0  0
 18 23  2  0  0  0  0
 19 20  2  0  0  0  0
 19 59  1  0  0  0  0
 20 21  1  0  0  0  0
 20 60  1  0  0  0  0
 21 22  2  0  0  0  0
 21 61  1  0  0  0  0
 22 23  1  0  0  0  0
 22 62  1  0  0  0  0
 23 24  1  0  0  0  0
 24 25  1  0  0  0  0
 24 26  1  0  0  0  0
 24 27  1  0  0  0  0
 28 29  2  0  0  0  0
 28 30  1  0  0  0  0
 30 31  2  0  0  0  0
 30 63  1  0  0  0  0
 31 32  1  0  0  0  0
 32 64  1  0  0  0  0
 32 65  1  0  0  0  0
 32 66  1  0  0  0  0
 33 34  1  0  0  0  0
 33 67  1  0  0  0  0
 34 35  1  0  0  0  0
 36 37  1  0  0  0  0
 36 68  1  0  0  0  0
 37 38  2  0  0  0  0
 37 69  1  0  0  0  0
 38 39  1  0  0  0  0
 39 40  2  0  0  0  0
 40 41  1  0  0  0  0
 40 70  1  0  0  0  0
 41 42  1  0  0  0  0
 42 43  1  0  0  0  0
 43 44  1  0  0  0  0
 43 71  1  0  0  0  0
 43 72  1  0  0  0  0
 44 45  1  0  0  0  0
 44 73  1  0  0  0  0
 44 74  1  0  0  0  0
 45 46  1  0  0  0  0
 45 75  1  0  0  0  0
 45 76  1  0  0  0  0
 46 47  1  0  0  0  0
 46 51  1  0  0  0  0
 47 48  1  0  0  0  0
 47 77  1  0  0  0  0
 47 78  1  0  0  0  0
 48 49  1  0  0  0  0
 48 79  1  0  0  0  0
 48 80  1  0  0  0  0
 49 50  1  0  0  0  0
 50 51  1  0  0  0  0
 50 81  1  0  0  0  0
 50 82  1  0  0  0  0
 51 83  1  0  0  0  0
 51 84  1  0  0  0  0
M  END
$$$$
