CHEMBL360503
 OpenBabel04072215363D

 36 38  0  0  0  0  0  0  0  0999 V2000
    1.1966    2.5625   -0.3352 C   0  0  0  0  0  0  0  0  0  0  0  0
    2.6139    2.4100   -0.3739 O   0  0  0  0  0  0  0  0  0  0  0  0
    3.0378    1.1275   -0.5680 C   0  0  0  0  0  0  0  0  0  0  0  0
    2.2894    0.1669   -0.7067 O   0  0  0  0  0  0  0  0  0  0  0  0
    4.4963    1.0191   -0.5866 C   0  0  0  0  0  0  0  0  0  0  0  0
    5.3738    2.0684   -0.3895 C   0  0  0  0  0  0  0  0  0  0  0  0
    6.6485    1.5969   -0.4640 N   0  0  0  0  0  0  0  0  0  0  0  0
    7.7392    2.3573   -0.3015 N   0  0  0  0  0  0  0  0  0  0  0  0
    8.8485    1.7079   -0.4293 C   0  0  0  0  0  0  0  0  0  0  0  0
    8.9855    0.3820   -0.7219 N   0  0  0  0  0  0  0  0  0  0  0  0
    7.9339   -0.3754   -0.8752 C   0  0  0  0  0  0  0  0  0  0  0  0
    8.0999   -1.7168   -1.1394 N   0  0  0  0  0  0  0  0  0  0  0  0
    9.1397   -2.3077   -1.8828 C   0  0  0  0  0  0  0  0  0  0  0  0
    9.9108   -1.5907   -2.8091 C   0  0  0  0  0  0  0  0  0  0  0  0
   10.9453   -2.2060   -3.5204 C   0  0  0  0  0  0  0  0  0  0  0  0
   11.2366   -3.5470   -3.2910 C   0  0  0  0  0  0  0  0  0  0  0  0
   12.6434   -4.3662   -4.2563 Br  0  0  0  0  0  0  0  0  0  0  0  0
   10.4931   -4.2661   -2.3562 C   0  0  0  0  0  0  0  0  0  0  0  0
   10.7400   -5.5828   -2.0816 O   0  0  0  0  0  0  0  0  0  0  0  0
    9.4544   -3.6547   -1.6562 C   0  0  0  0  0  0  0  0  0  0  0  0
    6.6407    0.2537   -0.7264 C   0  0  0  0  0  0  0  0  0  0  0  0
    5.3089   -0.1559   -0.8105 C   0  0  0  0  0  0  0  0  0  0  0  0
    4.7258   -1.5031   -1.0822 C   0  0  0  0  0  0  0  0  0  0  0  0
    0.9734    3.6329   -0.3212 H   0  0  0  0  0  0  0  0  0  0  0  0
    0.7960    2.1116    0.5777 H   0  0  0  0  0  0  0  0  0  0  0  0
    0.7278    2.1264   -1.2227 H   0  0  0  0  0  0  0  0  0  0  0  0
    5.1966    3.1170   -0.1994 H   0  0  0  0  0  0  0  0  0  0  0  0
    9.7906    2.2660   -0.2943 H   0  0  0  0  0  0  0  0  0  0  0  0
    7.3117   -2.3286   -1.0103 H   0  0  0  0  0  0  0  0  0  0  0  0
    9.6971   -0.5435   -3.0109 H   0  0  0  0  0  0  0  0  0  0  0  0
   11.5090   -1.6260   -4.2461 H   0  0  0  0  0  0  0  0  0  0  0  0
   11.4942   -5.8570   -2.6352 H   0  0  0  0  0  0  0  0  0  0  0  0
    8.9062   -4.2339   -0.9177 H   0  0  0  0  0  0  0  0  0  0  0  0
    5.4633   -2.2761   -1.2825 H   0  0  0  0  0  0  0  0  0  0  0  0
    4.0705   -1.4599   -1.9584 H   0  0  0  0  0  0  0  0  0  0  0  0
    4.1321   -1.8334   -0.2229 H   0  0  0  0  0  0  0  0  0  0  0  0
  1  2  1  0  0  0  0
  1 24  1  0  0  0  0
  1 25  1  0  0  0  0
  1 26  1  0  0  0  0
  2  3  1  0  0  0  0
  3  4  2  0  0  0  0
  3  5  1  0  0  0  0
  5  6  2  0  0  0  0
  5 22  1  0  0  0  0
  6  7  1  0  0  0  0
  6 27  1  0  0  0  0
  7  8  1  0  0  0  0
  7 21  1  0  0  0  0
  8  9  2  0  0  0  0
  9 10  1  0  0  0  0
  9 28  1  0  0  0  0
 10 11  2  0  0  0  0
 11 12  1  0  0  0  0
 11 21  1  0  0  0  0
 12 13  1  0  0  0  0
 12 29  1  0  0  0  0
 13 14  1  0  0  0  0
 13 20  2  0  0  0  0
 14 15  2  0  0  0  0
 14 30  1  0  0  0  0
 15 16  1  0  0  0  0
 15 31  1  0  0  0  0
 16 17  1  0  0  0  0
 16 18  2  0  0  0  0
 18 19  1  0  0  0  0
 18 20  1  0  0  0  0
 19 32  1  0  0  0  0
 20 33  1  0  0  0  0
 21 22  2  0  0  0  0
 22 23  1  0  0  0  0
 23 34  1  0  0  0  0
 23 35  1  0  0  0  0
 23 36  1  0  0  0  0
M  END
$$$$
