CHEMBL206538
 OpenBabel04072215363D

 47 50  0  0  0  0  0  0  0  0999 V2000
    2.1090    0.0586   -0.0239 C   0  0  0  0  0  0  0  0  0  0  0  0
    0.6705   -0.0648   -0.0040 N   0  0  0  0  0  0  0  0  0  0  0  0
   -0.2035    0.9824    0.1045 C   0  0  0  0  0  0  0  0  0  0  0  0
   -1.4488    0.5643    0.1964 N   0  0  0  0  0  0  0  0  0  0  0  0
   -1.3731   -0.7903    0.0830 C   0  0  0  0  0  0  0  0  0  0  0  0
   -2.4608   -1.5697    0.1286 N   0  0  0  0  0  0  0  0  0  0  0  0
   -3.7010   -1.1309    0.7244 C   0  0  0  0  0  0  0  0  0  0  0  0
   -4.4188   -2.3363    1.2982 C   0  0  0  0  0  0  0  0  0  0  0  0
   -3.8045   -3.1409    2.2638 C   0  0  0  0  0  0  0  0  0  0  0  0
   -4.4945   -4.2305    2.7666 C   0  0  0  0  0  0  0  0  0  0  0  0
   -5.7428   -4.5685    2.3803 N   0  0  0  0  0  0  0  0  0  0  0  0
   -6.3253   -3.7744    1.4576 C   0  0  0  0  0  0  0  0  0  0  0  0
   -5.7162   -2.6646    0.8922 C   0  0  0  0  0  0  0  0  0  0  0  0
   -0.0693   -1.2248   -0.0392 C   0  0  0  0  0  0  0  0  0  0  0  0
    0.4554   -2.5461   -0.0864 C   0  0  0  0  0  0  0  0  0  0  0  0
    1.7423   -2.8366   -0.0426 N   0  0  0  0  0  0  0  0  0  0  0  0
    1.8392   -4.2026   -0.0064 N   0  0  0  0  0  0  0  0  0  0  0  0
    0.6115   -4.6769   -0.0230 C   0  0  0  0  0  0  0  0  0  0  0  0
    0.1204   -5.9258    0.0611 N   0  0  0  0  0  0  0  0  0  0  0  0
    0.7513   -7.0309    0.6666 C   0  0  0  0  0  0  0  0  0  0  0  0
    2.0053   -6.9619    1.2837 C   0  0  0  0  0  0  0  0  0  0  0  0
    2.6076   -8.0980    1.8283 C   0  0  0  0  0  0  0  0  0  0  0  0
    1.9647   -9.3325    1.7620 C   0  0  0  0  0  0  0  0  0  0  0  0
    0.7046   -9.4258    1.1800 C   0  0  0  0  0  0  0  0  0  0  0  0
   -0.0398  -10.5615    1.0705 O   0  0  0  0  0  0  0  0  0  0  0  0
    0.0545  -11.5504    2.0881 C   0  0  0  0  0  0  0  0  0  0  0  0
    0.7224  -11.1539    3.1896 F   0  0  0  0  0  0  0  0  0  0  0  0
   -1.1987  -11.8882    2.4697 F   0  0  0  0  0  0  0  0  0  0  0  0
    0.6519  -12.6528    1.5867 F   0  0  0  0  0  0  0  0  0  0  0  0
    0.1294   -8.2870    0.5972 C   0  0  0  0  0  0  0  0  0  0  0  0
   -0.3200   -3.6821   -0.1171 O   0  0  0  0  0  0  0  0  0  0  0  0
    2.3851    1.1165   -0.0220 H   0  0  0  0  0  0  0  0  0  0  0  0
    2.4920   -0.4147   -0.9320 H   0  0  0  0  0  0  0  0  0  0  0  0
    2.5121   -0.4210    0.8703 H   0  0  0  0  0  0  0  0  0  0  0  0
    0.1151    2.0133    0.1272 H   0  0  0  0  0  0  0  0  0  0  0  0
   -2.4997   -2.4446   -0.3817 H   0  0  0  0  0  0  0  0  0  0  0  0
   -4.3173   -0.6334   -0.0327 H   0  0  0  0  0  0  0  0  0  0  0  0
   -3.5347   -0.4175    1.5429 H   0  0  0  0  0  0  0  0  0  0  0  0
   -2.7992   -2.9218    2.6160 H   0  0  0  0  0  0  0  0  0  0  0  0
   -4.0491   -4.8806    3.5169 H   0  0  0  0  0  0  0  0  0  0  0  0
   -7.3341   -4.0623    1.1709 H   0  0  0  0  0  0  0  0  0  0  0  0
   -6.2461   -2.0724    0.1538 H   0  0  0  0  0  0  0  0  0  0  0  0
   -0.8851   -6.0194   -0.0200 H   0  0  0  0  0  0  0  0  0  0  0  0
    2.5427   -6.0217    1.3707 H   0  0  0  0  0  0  0  0  0  0  0  0
    3.5814   -8.0126    2.3028 H   0  0  0  0  0  0  0  0  0  0  0  0
    2.4787  -10.1987    2.1704 H   0  0  0  0  0  0  0  0  0  0  0  0
   -0.8293   -8.3898    0.0932 H   0  0  0  0  0  0  0  0  0  0  0  0
  1  2  1  0  0  0  0
  1 32  1  0  0  0  0
  1 33  1  0  0  0  0
  1 34  1  0  0  0  0
  2  3  1  0  0  0  0
  2 14  1  0  0  0  0
  3  4  2  0  0  0  0
  3 35  1  0  0  0  0
  4  5  1  0  0  0  0
  5  6  1  0  0  0  0
  5 14  2  0  0  0  0
  6  7  1  0  0  0  0
  6 36  1  0  0  0  0
  7  8  1  0  0  0  0
  7 37  1  0  0  0  0
  7 38  1  0  0  0  0
  8  9  1  0  0  0  0
  8 13  2  0  0  0  0
  9 10  2  0  0  0  0
  9 39  1  0  0  0  0
 10 11  1  0  0  0  0
 10 40  1  0  0  0  0
 11 12  2  0  0  0  0
 12 13  1  0  0  0  0
 12 41  1  0  0  0  0
 13 42  1  0  0  0  0
 14 15  1  0  0  0  0
 15 16  2  0  0  0  0
 15 31  1  0  0  0  0
 16 17  1  0  0  0  0
 17 18  2  0  0  0  0
 18 19  1  0  0  0  0
 18 31  1  0  0  0  0
 19 20  1  0  0  0  0
 19 43  1  0  0  0  0
 20 21  1  0  0  0  0
 20 30  2  0  0  0  0
 21 22  2  0  0  0  0
 21 44  1  0  0  0  0
 22 23  1  0  0  0  0
 22 45  1  0  0  0  0
 23 24  2  0  0  0  0
 23 46  1  0  0  0  0
 24 25  1  0  0  0  0
 24 30  1  0  0  0  0
 25 26  1  0  0  0  0
 26 27  1  0  0  0  0
 26 28  1  0  0  0  0
 26 29  1  0  0  0  0
 30 47  1  0  0  0  0
M  END
$$$$
