CHEMBL3671564
 OpenBabel04072215373D

 61 64  0  0  0  0  0  0  0  0999 V2000
    2.7258    0.4306   -2.5389 C   0  0  0  0  0  0  0  0  0  0  0  0
    3.3438    0.2871   -1.3596 C   0  0  0  0  0  0  0  0  0  0  0  0
    4.1780    1.3976   -0.8355 C   0  0  0  0  0  0  0  0  0  0  0  0
    4.3945    2.4045   -1.5004 O   0  0  0  0  0  0  0  0  0  0  0  0
    4.6022    1.1872    0.4632 N   0  0  0  0  0  0  0  0  0  0  0  0
    5.2824    2.2044    1.1658 C   0  0  0  0  0  0  0  0  0  0  0  0
    6.4138    2.7282    0.5403 C   0  0  0  0  0  0  0  0  0  0  0  0
    7.1073    3.8356    1.0604 C   0  0  0  0  0  0  0  0  0  0  0  0
    8.2525    4.3892    0.4658 C   0  0  0  0  0  0  0  0  0  0  0  0
    8.7399    3.8338   -0.7385 N   0  0  0  0  0  0  0  0  0  0  0  0
   10.0573    3.8009   -1.2353 C   0  0  0  0  0  0  0  0  0  0  0  0
   11.1653    3.7696   -0.3744 C   0  0  0  0  0  0  0  0  0  0  0  0
   12.4540    3.5651   -0.8774 C   0  0  0  0  0  0  0  0  0  0  0  0
   12.6467    3.4000   -2.2481 C   0  0  0  0  0  0  0  0  0  0  0  0
   14.3770    3.0270   -2.9109 Br  0  0  0  0  0  0  0  0  0  0  0  0
   11.5701    3.4721   -3.1249 C   0  0  0  0  0  0  0  0  0  0  0  0
   10.2913    3.6621   -2.6073 C   0  0  0  0  0  0  0  0  0  0  0  0
    9.2515    3.6954   -3.4566 F   0  0  0  0  0  0  0  0  0  0  0  0
    8.8972    5.4335    1.0156 N   0  0  0  0  0  0  0  0  0  0  0  0
    8.3592    5.9414    2.1275 C   0  0  0  0  0  0  0  0  0  0  0  0
    7.2757    5.4923    2.7726 N   0  0  0  0  0  0  0  0  0  0  0  0
    6.6589    4.4286    2.2405 C   0  0  0  0  0  0  0  0  0  0  0  0
    5.5517    3.8741    2.8845 C   0  0  0  0  0  0  0  0  0  0  0  0
    4.8733    2.7422    2.3953 C   0  0  0  0  0  0  0  0  0  0  0  0
    3.7977    2.3718    3.1708 O   0  0  0  0  0  0  0  0  0  0  0  0
    3.4722    0.9850    3.1534 C   0  0  0  0  0  0  0  0  0  0  0  0
    2.9444    0.4930    4.5060 C   0  0  0  0  0  0  0  0  0  0  0  0
    2.7218   -0.9543    4.5282 N   0  0  0  0  0  0  0  0  0  0  0  0
    3.7741   -1.8115    4.3202 C   0  0  0  0  0  0  0  0  0  0  0  0
    4.9115   -1.3966    4.1108 O   0  0  0  0  0  0  0  0  0  0  0  0
    3.4735   -3.1525    4.2910 N   0  0  0  0  0  0  0  0  0  0  0  0
    2.1539   -3.7761    4.4322 C   0  0  0  0  0  0  0  0  0  0  0  0
    2.2336   -5.0346    5.3214 C   0  0  0  0  0  0  0  0  0  0  0  0
    3.2636   -6.0011    4.8935 N   0  0  0  0  0  0  0  0  0  0  0  0
    4.5693   -5.3188    4.7953 C   0  0  0  0  0  0  0  0  0  0  0  0
    4.5283   -4.0856    3.8810 C   0  0  0  0  0  0  0  0  0  0  0  0
    2.1104   -0.3591   -2.9531 H   0  0  0  0  0  0  0  0  0  0  0  0
    2.8207    1.3473   -3.1179 H   0  0  0  0  0  0  0  0  0  0  0  0
    3.2461   -0.6233   -0.7828 H   0  0  0  0  0  0  0  0  0  0  0  0
    4.2226    0.4027    0.9674 H   0  0  0  0  0  0  0  0  0  0  0  0
    6.7774    2.2463   -0.3677 H   0  0  0  0  0  0  0  0  0  0  0  0
    8.0360    3.8611   -1.4742 H   0  0  0  0  0  0  0  0  0  0  0  0
   11.0287    3.8640    0.7003 H   0  0  0  0  0  0  0  0  0  0  0  0
   13.2911    3.5121   -0.1860 H   0  0  0  0  0  0  0  0  0  0  0  0
   11.7010    3.3596   -4.1958 H   0  0  0  0  0  0  0  0  0  0  0  0
    8.8566    6.8115    2.5494 H   0  0  0  0  0  0  0  0  0  0  0  0
    5.1990    4.3469    3.7991 H   0  0  0  0  0  0  0  0  0  0  0  0
    4.3619    0.4068    2.9082 H   0  0  0  0  0  0  0  0  0  0  0  0
    2.7021    0.8131    2.3920 H   0  0  0  0  0  0  0  0  0  0  0  0
    1.9888    0.9779    4.7348 H   0  0  0  0  0  0  0  0  0  0  0  0
    3.6405    0.7530    5.3105 H   0  0  0  0  0  0  0  0  0  0  0  0
    2.0606   -1.2707    5.2198 H   0  0  0  0  0  0  0  0  0  0  0  0
    1.8176   -4.0499    3.4243 H   0  0  0  0  0  0  0  0  0  0  0  0
    1.4163   -3.0854    4.8455 H   0  0  0  0  0  0  0  0  0  0  0  0
    1.2614   -5.5385    5.3278 H   0  0  0  0  0  0  0  0  0  0  0  0
    2.4417   -4.7351    6.3559 H   0  0  0  0  0  0  0  0  0  0  0  0
    3.0171   -6.3551    3.9701 H   0  0  0  0  0  0  0  0  0  0  0  0
    5.3125   -6.0282    4.4156 H   0  0  0  0  0  0  0  0  0  0  0  0
    4.8964   -5.0212    5.7992 H   0  0  0  0  0  0  0  0  0  0  0  0
    4.3058   -4.3869    2.8489 H   0  0  0  0  0  0  0  0  0  0  0  0
    5.5125   -3.6068    3.8704 H   0  0  0  0  0  0  0  0  0  0  0  0
  1  2  2  0  0  0  0
  1 37  1  0  0  0  0
  1 38  1  0  0  0  0
  2  3  1  0  0  0  0
  2 39  1  0  0  0  0
  3  4  2  0  0  0  0
  3  5  1  0  0  0  0
  5  6  1  0  0  0  0
  5 40  1  0  0  0  0
  6  7  1  0  0  0  0
  6 24  2  0  0  0  0
  7  8  2  0  0  0  0
  7 41  1  0  0  0  0
  8  9  1  0  0  0  0
  8 22  1  0  0  0  0
  9 10  1  0  0  0  0
  9 19  2  0  0  0  0
 10 11  1  0  0  0  0
 10 42  1  0  0  0  0
 11 12  1  0  0  0  0
 11 17  2  0  0  0  0
 12 13  2  0  0  0  0
 12 43  1  0  0  0  0
 13 14  1  0  0  0  0
 13 44  1  0  0  0  0
 14 15  1  0  0  0  0
 14 16  2  0  0  0  0
 16 17  1  0  0  0  0
 16 45  1  0  0  0  0
 17 18  1  0  0  0  0
 19 20  1  0  0  0  0
 20 21  2  0  0  0  0
 20 46  1  0  0  0  0
 21 22  1  0  0  0  0
 22 23  2  0  0  0  0
 23 24  1  0  0  0  0
 23 47  1  0  0  0  0
 24 25  1  0  0  0  0
 25 26  1  0  0  0  0
 26 27  1  0  0  0  0
 26 48  1  0  0  0  0
 26 49  1  0  0  0  0
 27 28  1  0  0  0  0
 27 50  1  0  0  0  0
 27 51  1  0  0  0  0
 28 29  1  0  0  0  0
 28 52  1  0  0  0  0
 29 30  2  0  0  0  0
 29 31  1  0  0  0  0
 31 32  1  0  0  0  0
 31 36  1  0  0  0  0
 32 33  1  0  0  0  0
 32 53  1  0  0  0  0
 32 54  1  0  0  0  0
 33 34  1  0  0  0  0
 33 55  1  0  0  0  0
 33 56  1  0  0  0  0
 34 35  1  0  0  0  0
 34 57  1  0  0  0  0
 35 36  1  0  0  0  0
 35 58  1  0  0  0  0
 35 59  1  0  0  0  0
 36 60  1  0  0  0  0
 36 61  1  0  0  0  0
M  END
$$$$
