CHEMBL3633301
 OpenBabel04072215373D

 43 46  0  0  0  0  0  0  0  0999 V2000
   -0.5781    2.3397    3.3598 N   0  0  0  0  0  0  0  0  0  0  0  0
   -0.8572    1.1545    2.7923 C   0  0  0  0  0  0  0  0  0  0  0  0
   -1.0487    0.0852    3.5568 N   0  0  0  0  0  0  0  0  0  0  0  0
   -1.2684   -0.9000    2.6763 N   0  0  0  0  0  0  0  0  0  0  0  0
   -1.2403   -0.5015    1.3696 C   0  0  0  0  0  0  0  0  0  0  0  0
   -1.4207   -1.2536    0.2041 C   0  0  0  0  0  0  0  0  0  0  0  0
   -1.3555   -0.5756   -1.0067 C   0  0  0  0  0  0  0  0  0  0  0  0
   -1.1042    0.7929   -1.0339 C   0  0  0  0  0  0  0  0  0  0  0  0
   -0.8832    1.5612    0.1426 C   0  0  0  0  0  0  0  0  0  0  0  0
   -0.5214    2.9893    0.0234 C   0  0  0  0  0  0  0  0  0  0  0  0
    0.3938    3.3943   -0.9703 C   0  0  0  0  0  0  0  0  0  0  0  0
    0.7629    4.7274   -1.1277 C   0  0  0  0  0  0  0  0  0  0  0  0
    0.2362    5.6912   -0.2776 C   0  0  0  0  0  0  0  0  0  0  0  0
   -0.6994    5.3398    0.6992 C   0  0  0  0  0  0  0  0  0  0  0  0
   -1.2649    6.2981    1.5733 N   0  0  0  0  0  0  0  0  0  0  0  0
   -1.4053    7.6308    1.2514 C   0  0  0  0  0  0  0  0  0  0  0  0
   -1.1813    8.1088    0.1412 O   0  0  0  0  0  0  0  0  0  0  0  0
   -1.8259    8.3920    2.3330 N   0  0  0  0  0  0  0  0  0  0  0  0
   -2.0583    9.7829    2.1557 C   0  0  0  0  0  0  0  0  0  0  0  0
   -2.8125   10.2357    1.0641 C   0  0  0  0  0  0  0  0  0  0  0  0
   -2.9515   11.6015    0.8182 C   0  0  0  0  0  0  0  0  0  0  0  0
   -2.3376   12.5190    1.6666 C   0  0  0  0  0  0  0  0  0  0  0  0
   -2.4564   14.2005    1.3256 Cl  0  0  0  0  0  0  0  0  0  0  0  0
   -1.6190   12.0858    2.7804 C   0  0  0  0  0  0  0  0  0  0  0  0
   -1.4974   10.7181    3.0352 C   0  0  0  0  0  0  0  0  0  0  0  0
   -0.5641   10.2094    4.3986 Cl  0  0  0  0  0  0  0  0  0  0  0  0
   -1.0768    3.9958    0.8351 C   0  0  0  0  0  0  0  0  0  0  0  0
   -0.9748    0.8715    1.3893 C   0  0  0  0  0  0  0  0  0  0  0  0
   -0.3627    2.2808    4.3506 H   0  0  0  0  0  0  0  0  0  0  0  0
    0.0405    2.9742    2.8688 H   0  0  0  0  0  0  0  0  0  0  0  0
   -1.4237   -1.8336    3.0342 H   0  0  0  0  0  0  0  0  0  0  0  0
   -1.6085   -2.3222    0.2346 H   0  0  0  0  0  0  0  0  0  0  0  0
   -1.4943   -1.1169   -1.9398 H   0  0  0  0  0  0  0  0  0  0  0  0
   -1.0699    1.2807   -2.0082 H   0  0  0  0  0  0  0  0  0  0  0  0
    0.8367    2.6637   -1.6448 H   0  0  0  0  0  0  0  0  0  0  0  0
    1.4619    5.0161   -1.9082 H   0  0  0  0  0  0  0  0  0  0  0  0
    0.5767    6.7161   -0.3980 H   0  0  0  0  0  0  0  0  0  0  0  0
   -1.8704    5.9568    2.3073 H   0  0  0  0  0  0  0  0  0  0  0  0
   -1.3824    8.1333    3.2057 H   0  0  0  0  0  0  0  0  0  0  0  0
   -3.2752    9.5272    0.3792 H   0  0  0  0  0  0  0  0  0  0  0  0
   -3.5162   11.9348   -0.0497 H   0  0  0  0  0  0  0  0  0  0  0  0
   -1.1345   12.8105    3.4291 H   0  0  0  0  0  0  0  0  0  0  0  0
   -1.8354    3.7275    1.5674 H   0  0  0  0  0  0  0  0  0  0  0  0
  1  2  1  0  0  0  0
  1 29  1  0  0  0  0
  1 30  1  0  0  0  0
  2  3  2  0  0  0  0
  2 28  1  0  0  0  0
  3  4  1  0  0  0  0
  4  5  1  0  0  0  0
  4 31  1  0  0  0  0
  5  6  1  0  0  0  0
  5 28  2  0  0  0  0
  6  7  2  0  0  0  0
  6 32  1  0  0  0  0
  7  8  1  0  0  0  0
  7 33  1  0  0  0  0
  8  9  2  0  0  0  0
  8 34  1  0  0  0  0
  9 10  1  0  0  0  0
  9 28  1  0  0  0  0
 10 11  1  0  0  0  0
 10 27  2  0  0  0  0
 11 12  2  0  0  0  0
 11 35  1  0  0  0  0
 12 13  1  0  0  0  0
 12 36  1  0  0  0  0
 13 14  2  0  0  0  0
 13 37  1  0  0  0  0
 14 15  1  0  0  0  0
 14 27  1  0  0  0  0
 15 16  1  0  0  0  0
 15 38  1  0  0  0  0
 16 17  2  0  0  0  0
 16 18  1  0  0  0  0
 18 19  1  0  0  0  0
 18 39  1  0  0  0  0
 19 20  1  0  0  0  0
 19 25  2  0  0  0  0
 20 21  2  0  0  0  0
 20 40  1  0  0  0  0
 21 22  1  0  0  0  0
 21 41  1  0  0  0  0
 22 23  1  0  0  0  0
 22 24  2  0  0  0  0
 24 25  1  0  0  0  0
 24 42  1  0  0  0  0
 25 26  1  0  0  0  0
 27 43  1  0  0  0  0
M  END
$$$$
