CHEMBL381207
 OpenBabel04072215373D

 47 50  0  0  0  0  0  0  0  0999 V2000
    5.4015    1.5181   -1.5836 C   0  0  0  0  0  0  0  0  0  0  0  0
    4.4166    0.7041   -0.7979 C   0  0  0  0  0  0  0  0  0  0  0  0
    4.7330   -0.9746   -0.6823 S   0  0  0  0  0  0  0  0  0  0  0  0
    3.3938   -1.2418    0.3141 C   0  0  0  0  0  0  0  0  0  0  0  0
    3.1684   -2.4800    0.7747 N   0  0  0  0  0  0  0  0  0  0  0  0
    2.0853   -2.5537    1.5418 C   0  0  0  0  0  0  0  0  0  0  0  0
    1.2471   -1.5578    1.8434 N   0  0  0  0  0  0  0  0  0  0  0  0
    1.4921   -0.3280    1.3509 C   0  0  0  0  0  0  0  0  0  0  0  0
    0.5346    0.6136    1.7002 N   0  0  0  0  0  0  0  0  0  0  0  0
    2.6398   -0.0996    0.5503 C   0  0  0  0  0  0  0  0  0  0  0  0
    3.2595    1.0701   -0.1059 C   0  0  0  0  0  0  0  0  0  0  0  0
    2.8138    2.4773   -0.0308 C   0  0  0  0  0  0  0  0  0  0  0  0
    2.2923    2.9731    1.1631 C   0  0  0  0  0  0  0  0  0  0  0  0
    1.7525    4.2591    1.2405 C   0  0  0  0  0  0  0  0  0  0  0  0
    1.8241    5.1438    0.1652 C   0  0  0  0  0  0  0  0  0  0  0  0
    1.2986    6.4560    0.1989 N   0  0  0  0  0  0  0  0  0  0  0  0
    0.6506    7.0229    1.2787 C   0  0  0  0  0  0  0  0  0  0  0  0
    0.4942    6.4879    2.3695 O   0  0  0  0  0  0  0  0  0  0  0  0
    0.1274    8.2781    0.9888 N   0  0  0  0  0  0  0  0  0  0  0  0
   -0.6068    8.9408    2.0069 C   0  0  0  0  0  0  0  0  0  0  0  0
   -0.1135    9.0245    3.3161 C   0  0  0  0  0  0  0  0  0  0  0  0
   -0.9221    9.4932    4.3603 C   0  0  0  0  0  0  0  0  0  0  0  0
   -0.4093    9.5186    5.7819 C   0  0  0  0  0  0  0  0  0  0  0  0
    0.8884    9.1247    5.9082 F   0  0  0  0  0  0  0  0  0  0  0  0
   -0.4712   10.7659    6.3249 F   0  0  0  0  0  0  0  0  0  0  0  0
   -1.1297    8.7147    6.6109 F   0  0  0  0  0  0  0  0  0  0  0  0
   -2.2354    9.8973    4.0658 C   0  0  0  0  0  0  0  0  0  0  0  0
   -2.7108    9.8689    2.7496 C   0  0  0  0  0  0  0  0  0  0  0  0
   -1.8878    9.4104    1.7268 C   0  0  0  0  0  0  0  0  0  0  0  0
   -2.3694    9.3325    0.4760 F   0  0  0  0  0  0  0  0  0  0  0  0
    2.4264    4.6969   -1.0090 C   0  0  0  0  0  0  0  0  0  0  0  0
    2.8764    3.3664   -1.1145 C   0  0  0  0  0  0  0  0  0  0  0  0
    6.3158    0.9585   -1.8095 H   0  0  0  0  0  0  0  0  0  0  0  0
    5.6967    2.4138   -1.0332 H   0  0  0  0  0  0  0  0  0  0  0  0
    4.9707    1.8088   -2.5471 H   0  0  0  0  0  0  0  0  0  0  0  0
    1.8539   -3.5244    1.9672 H   0  0  0  0  0  0  0  0  0  0  0  0
   -0.2735    0.1610    2.1145 H   0  0  0  0  0  0  0  0  0  0  0  0
    0.3355    1.3081    0.9942 H   0  0  0  0  0  0  0  0  0  0  0  0
    2.2599    2.3633    2.0633 H   0  0  0  0  0  0  0  0  0  0  0  0
    1.2834    4.5187    2.1842 H   0  0  0  0  0  0  0  0  0  0  0  0
    1.4660    7.0494   -0.6014 H   0  0  0  0  0  0  0  0  0  0  0  0
   -0.2716    8.3543    0.0614 H   0  0  0  0  0  0  0  0  0  0  0  0
    0.8948    8.6716    3.5384 H   0  0  0  0  0  0  0  0  0  0  0  0
   -2.8962   10.2247    4.8671 H   0  0  0  0  0  0  0  0  0  0  0  0
   -3.7314   10.1641    2.5252 H   0  0  0  0  0  0  0  0  0  0  0  0
    2.5330    5.3533   -1.8679 H   0  0  0  0  0  0  0  0  0  0  0  0
    3.2708    3.0523   -2.0746 H   0  0  0  0  0  0  0  0  0  0  0  0
  1  2  1  0  0  0  0
  1 33  1  0  0  0  0
  1 34  1  0  0  0  0
  1 35  1  0  0  0  0
  2  3  1  0  0  0  0
  2 11  2  0  0  0  0
  3  4  1  0  0  0  0
  4  5  1  0  0  0  0
  4 10  2  0  0  0  0
  5  6  2  0  0  0  0
  6  7  1  0  0  0  0
  6 36  1  0  0  0  0
  7  8  2  0  0  0  0
  8  9  1  0  0  0  0
  8 10  1  0  0  0  0
  9 37  1  0  0  0  0
  9 38  1  0  0  0  0
 10 11  1  0  0  0  0
 11 12  1  0  0  0  0
 12 13  1  0  0  0  0
 12 32  2  0  0  0  0
 13 14  2  0  0  0  0
 13 39  1  0  0  0  0
 14 15  1  0  0  0  0
 14 40  1  0  0  0  0
 15 16  1  0  0  0  0
 15 31  2  0  0  0  0
 16 17  1  0  0  0  0
 16 41  1  0  0  0  0
 17 18  2  0  0  0  0
 17 19  1  0  0  0  0
 19 20  1  0  0  0  0
 19 42  1  0  0  0  0
 20 21  1  0  0  0  0
 20 29  2  0  0  0  0
 21 22  2  0  0  0  0
 21 43  1  0  0  0  0
 22 23  1  0  0  0  0
 22 27  1  0  0  0  0
 23 24  1  0  0  0  0
 23 25  1  0  0  0  0
 23 26  1  0  0  0  0
 27 28  2  0  0  0  0
 27 44  1  0  0  0  0
 28 29  1  0  0  0  0
 28 45  1  0  0  0  0
 29 30  1  0  0  0  0
 31 32  1  0  0  0  0
 31 46  1  0  0  0  0
 32 47  1  0  0  0  0
M  END
$$$$
