CHEMBL3287320
 OpenBabel04072215363D

 71 75  0  0  0  0  0  0  0  0999 V2000
   13.1473   -3.1834    2.7821 C   0  0  0  0  0  0  0  0  0  0  0  0
   13.9583   -4.7353    2.4888 S   0  0  0  0  0  0  0  0  0  0  0  0
   15.3894   -4.5152    2.5235 O   0  0  0  0  0  0  0  0  0  0  0  0
   13.3508   -5.6993    3.3937 O   0  0  0  0  0  0  0  0  0  0  0  0
   13.4729   -5.2095    0.8296 C   0  0  0  0  0  0  0  0  0  0  0  0
   13.9239   -4.2035   -0.1927 C   0  0  0  0  0  0  0  0  0  0  0  0
   15.1918   -4.2776   -0.7773 C   0  0  0  0  0  0  0  0  0  0  0  0
   15.5705   -3.3575   -1.7565 C   0  0  0  0  0  0  0  0  0  0  0  0
   14.6853   -2.3557   -2.1649 C   0  0  0  0  0  0  0  0  0  0  0  0
   13.4213   -2.2470   -1.5813 C   0  0  0  0  0  0  0  0  0  0  0  0
   12.5242   -1.2535   -2.0218 N   0  0  0  0  0  0  0  0  0  0  0  0
   11.4888   -0.7150   -1.2534 C   0  0  0  0  0  0  0  0  0  0  0  0
   10.3427   -0.3826   -1.8589 N   0  0  0  0  0  0  0  0  0  0  0  0
    9.3864    0.1741   -1.0828 C   0  0  0  0  0  0  0  0  0  0  0  0
    9.5524    0.4700    0.2499 C   0  0  0  0  0  0  0  0  0  0  0  0
   10.7789    0.1378    0.7573 C   0  0  0  0  0  0  0  0  0  0  0  0
   11.1059    0.5493    2.0461 O   0  0  0  0  0  0  0  0  0  0  0  0
   12.4516    0.7646    2.2859 C   0  0  0  0  0  0  0  0  0  0  0  0
   13.2919    1.3839    1.3568 C   0  0  0  0  0  0  0  0  0  0  0  0
   14.6667    1.4605    1.5812 C   0  0  0  0  0  0  0  0  0  0  0  0
   15.2209    0.9821    2.7673 C   0  0  0  0  0  0  0  0  0  0  0  0
   16.6065    0.9903    3.0231 N   0  0  0  0  0  0  0  0  0  0  0  0
   17.6082    1.3933    2.1597 C   0  0  0  0  0  0  0  0  0  0  0  0
   17.4976    1.8499    1.0309 O   0  0  0  0  0  0  0  0  0  0  0  0
   18.9904    1.2122    2.7128 C   0  0  0  0  0  0  0  0  0  0  0  0
   19.5536   -0.1586    2.5016 C   0  0  0  0  0  0  0  0  0  0  0  0
   19.1914   -1.0408    3.2667 O   0  0  0  0  0  0  0  0  0  0  0  0
   20.4465   -0.3280    1.4559 N   0  0  0  0  0  0  0  0  0  0  0  0
   20.9611   -1.6000    1.1246 C   0  0  0  0  0  0  0  0  0  0  0  0
   22.3187   -1.7348    0.8557 C   0  0  0  0  0  0  0  0  0  0  0  0
   22.8549   -3.0049    0.6096 C   0  0  0  0  0  0  0  0  0  0  0  0
   22.0379   -4.1501    0.5695 C   0  0  0  0  0  0  0  0  0  0  0  0
   22.6717   -5.4084    0.2983 C   0  0  0  0  0  0  0  0  0  0  0  0
   23.2286   -6.4020    0.0611 N   0  0  0  0  0  0  0  0  0  0  0  0
   20.6546   -4.0173    0.7865 C   0  0  0  0  0  0  0  0  0  0  0  0
   19.6854   -5.1769    0.7449 C   0  0  0  0  0  0  0  0  0  0  0  0
   20.2514   -6.3878    0.5011 F   0  0  0  0  0  0  0  0  0  0  0  0
   19.0050   -5.3210    1.9127 F   0  0  0  0  0  0  0  0  0  0  0  0
   18.7415   -5.0182   -0.2264 F   0  0  0  0  0  0  0  0  0  0  0  0
   20.1360   -2.7328    1.0700 C   0  0  0  0  0  0  0  0  0  0  0  0
   19.3141    1.8591    4.0667 C   0  0  0  0  0  0  0  0  0  0  0  0
   19.8630    2.4586    2.8130 C   0  0  0  0  0  0  0  0  0  0  0  0
   14.3683    0.4518    3.7429 C   0  0  0  0  0  0  0  0  0  0  0  0
   12.9953    0.3439    3.4970 C   0  0  0  0  0  0  0  0  0  0  0  0
   12.2122   -0.2163    4.4297 F   0  0  0  0  0  0  0  0  0  0  0  0
   11.7097   -0.5172    0.0483 N   0  0  0  0  0  0  0  0  0  0  0  0
   13.0545   -3.1845   -0.6039 C   0  0  0  0  0  0  0  0  0  0  0  0
   13.3427   -2.8981    3.8186 H   0  0  0  0  0  0  0  0  0  0  0  0
   12.0733   -3.3092    2.6319 H   0  0  0  0  0  0  0  0  0  0  0  0
   13.5541   -2.4263    2.1122 H   0  0  0  0  0  0  0  0  0  0  0  0
   12.3838   -5.3228    0.8225 H   0  0  0  0  0  0  0  0  0  0  0  0
   13.9091   -6.1927    0.6264 H   0  0  0  0  0  0  0  0  0  0  0  0
   15.8954   -5.0535   -0.4778 H   0  0  0  0  0  0  0  0  0  0  0  0
   16.5603   -3.4229   -2.2021 H   0  0  0  0  0  0  0  0  0  0  0  0
   15.0023   -1.6409   -2.9202 H   0  0  0  0  0  0  0  0  0  0  0  0
   12.1932   -1.3936   -2.9670 H   0  0  0  0  0  0  0  0  0  0  0  0
    8.4566    0.4046   -1.5960 H   0  0  0  0  0  0  0  0  0  0  0  0
    8.7906    0.9606    0.8369 H   0  0  0  0  0  0  0  0  0  0  0  0
   12.9067    1.7514    0.4092 H   0  0  0  0  0  0  0  0  0  0  0  0
   15.2754    1.8762    0.7849 H   0  0  0  0  0  0  0  0  0  0  0  0
   16.9096    0.5755    3.8986 H   0  0  0  0  0  0  0  0  0  0  0  0
   20.9239    0.4945    1.1108 H   0  0  0  0  0  0  0  0  0  0  0  0
   22.9882   -0.8812    0.9126 H   0  0  0  0  0  0  0  0  0  0  0  0
   23.9315   -3.1028    0.4662 H   0  0  0  0  0  0  0  0  0  0  0  0
   19.0609   -2.6264    1.2318 H   0  0  0  0  0  0  0  0  0  0  0  0
   20.0093    1.3522    4.7294 H   0  0  0  0  0  0  0  0  0  0  0  0
   18.5270    2.3902    4.5906 H   0  0  0  0  0  0  0  0  0  0  0  0
   20.9310    2.3926    2.6509 H   0  0  0  0  0  0  0  0  0  0  0  0
   19.4340    3.4058    2.4948 H   0  0  0  0  0  0  0  0  0  0  0  0
   14.7512    0.0875    4.6922 H   0  0  0  0  0  0  0  0  0  0  0  0
   12.0649   -3.1218   -0.1553 H   0  0  0  0  0  0  0  0  0  0  0  0
  1  2  1  0  0  0  0
  1 48  1  0  0  0  0
  1 49  1  0  0  0  0
  1 50  1  0  0  0  0
  2  3  2  0  0  0  0
  2  4  2  0  0  0  0
  2  5  1  0  0  0  0
  5  6  1  0  0  0  0
  5 51  1  0  0  0  0
  5 52  1  0  0  0  0
  6  7  1  0  0  0  0
  6 47  2  0  0  0  0
  7  8  2  0  0  0  0
  7 53  1  0  0  0  0
  8  9  1  0  0  0  0
  8 54  1  0  0  0  0
  9 10  2  0  0  0  0
  9 55  1  0  0  0  0
 10 11  1  0  0  0  0
 10 47  1  0  0  0  0
 11 12  1  0  0  0  0
 11 56  1  0  0  0  0
 12 13  1  0  0  0  0
 12 46  2  0  0  0  0
 13 14  2  0  0  0  0
 14 15  1  0  0  0  0
 14 57  1  0  0  0  0
 15 16  2  0  0  0  0
 15 58  1  0  0  0  0
 16 17  1  0  0  0  0
 16 46  1  0  0  0  0
 17 18  1  0  0  0  0
 18 19  1  0  0  0  0
 18 44  2  0  0  0  0
 19 20  2  0  0  0  0
 19 59  1  0  0  0  0
 20 21  1  0  0  0  0
 20 60  1  0  0  0  0
 21 22  1  0  0  0  0
 21 43  2  0  0  0  0
 22 23  1  0  0  0  0
 22 61  1  0  0  0  0
 23 24  2  0  0  0  0
 23 25  1  0  0  0  0
 25 26  1  0  0  0  0
 25 41  1  0  0  0  0
 25 42  1  0  0  0  0
 26 27  2  0  0  0  0
 26 28  1  0  0  0  0
 28 29  1  0  0  0  0
 28 62  1  0  0  0  0
 29 30  1  0  0  0  0
 29 40  2  0  0  0  0
 30 31  2  0  0  0  0
 30 63  1  0  0  0  0
 31 32  1  0  0  0  0
 31 64  1  0  0  0  0
 32 33  1  0  0  0  0
 32 35  2  0  0  0  0
 33 34  3  0  0  0  0
 35 36  1  0  0  0  0
 35 40  1  0  0  0  0
 36 37  1  0  0  0  0
 36 38  1  0  0  0  0
 36 39  1  0  0  0  0
 40 65  1  0  0  0  0
 41 42  1  0  0  0  0
 41 66  1  0  0  0  0
 41 67  1  0  0  0  0
 42 68  1  0  0  0  0
 42 69  1  0  0  0  0
 43 44  1  0  0  0  0
 43 70  1  0  0  0  0
 44 45  1  0  0  0  0
 47 71  1  0  0  0  0
M  END
$$$$
