CHEMBL3895625
 OpenBabel04072215373D

 66 69  0  0  1  0  0  0  0  0999 V2000
   -0.4880   -0.1459   -1.2482 C   0  0  0  0  0  0  0  0  0  0  0  0
   -0.1103   -0.8321    0.0760 C   0  0  2  0  0  0  0  0  0  0  0  0
   -1.3859   -1.3864    0.7364 C   0  0  0  0  0  0  0  0  0  0  0  0
   -1.3223   -1.7173    2.0597 N   0  0  0  0  0  0  0  0  0  0  0  0
   -2.4234   -1.6268    0.1153 O   0  0  0  0  0  0  0  0  0  0  0  0
    0.6980    0.0551    1.0284 C   0  0  0  0  0  0  0  0  0  0  0  0
    0.3669    1.4204    1.1453 C   0  0  0  0  0  0  0  0  0  0  0  0
    0.9612    2.2350    2.1085 C   0  0  0  0  0  0  0  0  0  0  0  0
    1.8894    1.7016    2.9901 C   0  0  0  0  0  0  0  0  0  0  0  0
    2.2544    0.3634    2.8806 C   0  0  0  0  0  0  0  0  0  0  0  0
    1.6849   -0.4718    1.8995 C   0  0  0  0  0  0  0  0  0  0  0  0
    2.1834   -1.9044    1.8517 C   0  0  0  0  0  0  0  0  0  0  0  0
    3.4989   -2.0201    1.0602 C   0  0  0  0  0  0  0  0  0  0  0  0
    4.0952   -3.4088    1.0861 C   0  0  0  0  0  0  0  0  0  0  0  0
    3.1940   -4.4101    1.2393 N   0  0  0  0  0  0  0  0  0  0  0  0
    3.6114   -5.6817    1.1808 C   0  0  0  0  0  0  0  0  0  0  0  0
    2.6072   -6.6476    1.2245 N   0  0  0  0  0  0  0  0  0  0  0  0
    2.6731   -7.9239    0.8048 C   0  0  0  0  0  0  0  0  0  0  0  0
    3.7950   -8.7461    0.5985 C   0  0  0  0  0  0  0  0  0  0  0  0
    3.4570   -9.9464    0.1268 N   0  0  0  0  0  0  0  0  0  0  0  0
    2.1180   -9.8765   -0.0181 N   0  0  0  0  0  0  0  0  0  0  0  0
    1.3674  -11.0082   -0.5623 C   0  0  0  0  0  0  0  0  0  0  0  0
    2.2422  -12.2052   -0.9599 C   0  0  0  0  0  0  0  0  0  0  0  0
    3.0682  -11.9143   -2.2151 C   0  0  0  0  0  0  0  0  0  0  0  0
    2.2509  -11.4549   -3.3496 N   0  0  0  0  0  0  0  0  0  0  0  0
    3.1438  -11.0346   -4.4381 C   0  0  0  0  0  0  0  0  0  0  0  0
    1.3572  -10.3415   -3.0045 C   0  0  0  0  0  0  0  0  0  0  0  0
    0.5040  -10.6253   -1.7700 C   0  0  0  0  0  0  0  0  0  0  0  0
    1.5962   -8.6956    0.4442 C   0  0  0  0  0  0  0  0  0  0  0  0
    4.8938   -6.0149    1.0056 N   0  0  0  0  0  0  0  0  0  0  0  0
    5.7737   -5.0134    0.8570 C   0  0  0  0  0  0  0  0  0  0  0  0
    5.4380   -3.6751    0.8736 C   0  0  0  0  0  0  0  0  0  0  0  0
    6.5371   -2.6945    0.6567 C   0  0  0  0  0  0  0  0  0  0  0  0
    6.1708   -1.3875    0.6645 F   0  0  0  0  0  0  0  0  0  0  0  0
    7.5120   -2.8078    1.6033 F   0  0  0  0  0  0  0  0  0  0  0  0
    7.1652   -2.8883   -0.5369 F   0  0  0  0  0  0  0  0  0  0  0  0
    0.3880    0.2928   -1.7375 H   0  0  0  0  0  0  0  0  0  0  0  0
   -1.2341    0.6434   -1.1050 H   0  0  0  0  0  0  0  0  0  0  0  0
   -0.9353   -0.8665   -1.9429 H   0  0  0  0  0  0  0  0  0  0  0  0
    0.4978   -1.6963   -0.2141 H   0  0  0  0  0  0  0  0  0  0  0  0
   -2.1978   -1.9952    2.4856 H   0  0  0  0  0  0  0  0  0  0  0  0
   -0.6496   -1.2710    2.6683 H   0  0  0  0  0  0  0  0  0  0  0  0
   -0.3826    1.8731    0.5001 H   0  0  0  0  0  0  0  0  0  0  0  0
    0.6806    3.2826    2.1797 H   0  0  0  0  0  0  0  0  0  0  0  0
    2.3304    2.3256    3.7625 H   0  0  0  0  0  0  0  0  0  0  0  0
    2.9869   -0.0353    3.5806 H   0  0  0  0  0  0  0  0  0  0  0  0
    1.4166   -2.5755    1.4529 H   0  0  0  0  0  0  0  0  0  0  0  0
    2.3446   -2.2522    2.8820 H   0  0  0  0  0  0  0  0  0  0  0  0
    4.2053   -1.3069    1.4921 H   0  0  0  0  0  0  0  0  0  0  0  0
    3.3323   -1.7365    0.0131 H   0  0  0  0  0  0  0  0  0  0  0  0
    1.7199   -6.1651    1.2921 H   0  0  0  0  0  0  0  0  0  0  0  0
    4.8413   -8.5300    0.7684 H   0  0  0  0  0  0  0  0  0  0  0  0
    0.7099  -11.3160    0.2611 H   0  0  0  0  0  0  0  0  0  0  0  0
    1.5945  -13.0710   -1.1498 H   0  0  0  0  0  0  0  0  0  0  0  0
    2.9076  -12.4946   -0.1373 H   0  0  0  0  0  0  0  0  0  0  0  0
    3.5767  -12.8440   -2.5010 H   0  0  0  0  0  0  0  0  0  0  0  0
    3.8601  -11.1905   -1.9932 H   0  0  0  0  0  0  0  0  0  0  0  0
    3.8015  -11.8554   -4.7428 H   0  0  0  0  0  0  0  0  0  0  0  0
    3.7770  -10.1846   -4.1483 H   0  0  0  0  0  0  0  0  0  0  0  0
    2.5674  -10.7409   -5.3215 H   0  0  0  0  0  0  0  0  0  0  0  0
    0.6753  -10.1697   -3.8476 H   0  0  0  0  0  0  0  0  0  0  0  0
    1.9182   -9.4112   -2.8534 H   0  0  0  0  0  0  0  0  0  0  0  0
   -0.1855  -11.4517   -1.9903 H   0  0  0  0  0  0  0  0  0  0  0  0
   -0.1234   -9.7532   -1.5537 H   0  0  0  0  0  0  0  0  0  0  0  0
    0.5347   -8.4973    0.4299 H   0  0  0  0  0  0  0  0  0  0  0  0
    6.8010   -5.3403    0.6972 H   0  0  0  0  0  0  0  0  0  0  0  0
  1 37  1  0  0  0  0
  1 38  1  0  0  0  0
  1 39  1  0  0  0  0
  2  6  1  0  0  0  0
  2  3  1  0  0  0  0
  2  1  1  0  0  0  0
  2 40  1  6  0  0  0
  3  4  1  0  0  0  0
  3  5  2  0  0  0  0
  4 41  1  0  0  0  0
  4 42  1  0  0  0  0
  6  7  1  0  0  0  0
  6 11  2  0  0  0  0
  7  8  2  0  0  0  0
  7 43  1  0  0  0  0
  8  9  1  0  0  0  0
  8 44  1  0  0  0  0
  9 10  2  0  0  0  0
  9 45  1  0  0  0  0
 10 11  1  0  0  0  0
 10 46  1  0  0  0  0
 11 12  1  0  0  0  0
 12 13  1  0  0  0  0
 12 47  1  0  0  0  0
 12 48  1  0  0  0  0
 13 14  1  0  0  0  0
 13 49  1  0  0  0  0
 13 50  1  0  0  0  0
 14 15  1  0  0  0  0
 14 32  2  0  0  0  0
 15 16  2  0  0  0  0
 16 17  1  0  0  0  0
 16 30  1  0  0  0  0
 17 18  1  0  0  0  0
 17 51  1  0  0  0  0
 18 19  1  0  0  0  0
 18 29  2  0  0  0  0
 19 20  2  0  0  0  0
 19 52  1  0  0  0  0
 20 21  1  0  0  0  0
 21 22  1  0  0  0  0
 21 29  1  0  0  0  0
 22 23  1  0  0  0  0
 22 28  1  0  0  0  0
 22 53  1  0  0  0  0
 23 24  1  0  0  0  0
 23 54  1  0  0  0  0
 23 55  1  0  0  0  0
 24 25  1  0  0  0  0
 24 56  1  0  0  0  0
 24 57  1  0  0  0  0
 25 26  1  0  0  0  0
 25 27  1  0  0  0  0
 26 58  1  0  0  0  0
 26 59  1  0  0  0  0
 26 60  1  0  0  0  0
 27 28  1  0  0  0  0
 27 61  1  0  0  0  0
 27 62  1  0  0  0  0
 28 63  1  0  0  0  0
 28 64  1  0  0  0  0
 29 65  1  0  0  0  0
 30 31  2  0  0  0  0
 31 32  1  0  0  0  0
 31 66  1  0  0  0  0
 32 33  1  0  0  0  0
 33 34  1  0  0  0  0
 33 35  1  0  0  0  0
 33 36  1  0  0  0  0
M  END
$$$$
