CHEMBL2002105
 OpenBabel04072215363D

 16 17  0  0  0  0  0  0  0  0999 V2000
    1.0783    0.0671   -0.0408 N   0  0  0  0  0  0  0  0  0  0  0  0
    2.4135    0.0215   -0.0392 C   0  0  0  0  0  0  0  0  0  0  0  0
    3.1782    1.1118   -0.0366 N   0  0  0  0  0  0  0  0  0  0  0  0
    4.4329    0.6187   -0.0351 N   0  0  0  0  0  0  0  0  0  0  0  0
    4.4909   -0.7442   -0.0361 C   0  0  0  0  0  0  0  0  0  0  0  0
    5.6068   -1.5001   -0.0345 N   0  0  0  0  0  0  0  0  0  0  0  0
    5.3286   -2.8294   -0.0360 C   0  0  0  0  0  0  0  0  0  0  0  0
    4.0549   -3.3914   -0.0393 C   0  0  0  0  0  0  0  0  0  0  0  0
    3.8358   -5.2664   -0.0430 Br  0  0  0  0  0  0  0  0  0  0  0  0
    2.9351   -2.5602   -0.0404 C   0  0  0  0  0  0  0  0  0  0  0  0
    3.1729   -1.1760   -0.0388 C   0  0  0  0  0  0  0  0  0  0  0  0
    0.6124    0.9671   -0.0367 H   0  0  0  0  0  0  0  0  0  0  0  0
    0.4812   -0.7477   -0.0372 H   0  0  0  0  0  0  0  0  0  0  0  0
    5.2166    1.2590   -0.0322 H   0  0  0  0  0  0  0  0  0  0  0  0
    6.2117   -3.4647   -0.0355 H   0  0  0  0  0  0  0  0  0  0  0  0
    1.9262   -2.9552   -0.0426 H   0  0  0  0  0  0  0  0  0  0  0  0
  1  2  1  0  0  0  0
  1 12  1  0  0  0  0
  1 13  1  0  0  0  0
  2  3  2  0  0  0  0
  2 11  1  0  0  0  0
  3  4  1  0  0  0  0
  4  5  1  0  0  0  0
  4 14  1  0  0  0  0
  5  6  1  0  0  0  0
  5 11  2  0  0  0  0
  6  7  2  0  0  0  0
  7  8  1  0  0  0  0
  7 15  1  0  0  0  0
  8  9  1  0  0  0  0
  8 10  2  0  0  0  0
 10 11  1  0  0  0  0
 10 16  1  0  0  0  0
M  END
$$$$
