CHEMBL3968124
 OpenBabel04072215373D

 61 64  0  0  1  0  0  0  0  0999 V2000
    2.4462    0.7947   -1.5699 C   0  0  0  0  0  0  0  0  0  0  0  0
    2.4254   -0.5840   -2.0474 N   0  0  0  0  0  0  0  0  0  0  0  0
    3.1150   -0.7334   -3.3294 C   0  0  0  0  0  0  0  0  0  0  0  0
    4.6486   -0.4908   -3.3839 C   0  0  2  0  0  0  0  0  0  0  0  0
    5.0401   -0.6892   -4.7530 O   0  0  0  0  0  0  0  0  0  0  0  0
    5.4747   -1.3382   -2.3726 C   0  0  0  0  0  0  0  0  0  0  0  0
    6.9659   -1.4393   -2.7419 N   0  0  0  0  0  0  0  0  0  0  0  0
    7.7670   -0.8377   -1.7232 C   0  0  0  0  0  0  0  0  0  0  0  0
    8.8291   -1.5085   -1.0879 C   0  0  0  0  0  0  0  0  0  0  0  0
    9.6333   -0.8493   -0.1420 C   0  0  0  0  0  0  0  0  0  0  0  0
   10.7357   -1.3579    0.4890 O   0  0  0  0  0  0  0  0  0  0  0  0
   10.7858   -2.7624    0.6776 C   0  0  0  0  0  0  0  0  0  0  0  0
    9.4014    0.4926    0.1541 C   0  0  0  0  0  0  0  0  0  0  0  0
    8.3508    1.1642   -0.4545 C   0  0  0  0  0  0  0  0  0  0  0  0
    8.1419    2.5093   -0.2938 O   0  0  0  0  0  0  0  0  0  0  0  0
    9.3487    3.2427   -0.5313 C   0  0  0  0  0  0  0  0  0  0  0  0
    7.4964    0.4858   -1.3187 C   0  0  0  0  0  0  0  0  0  0  0  0
    7.3387   -2.4143   -3.7292 C   0  0  0  0  0  0  0  0  0  0  0  0
    6.4164   -3.4105   -3.9492 C   0  0  0  0  0  0  0  0  0  0  0  0
    6.7198   -4.4899   -4.7347 C   0  0  0  0  0  0  0  0  0  0  0  0
    7.8558   -4.6201   -5.4077 C   0  0  0  0  0  0  0  0  0  0  0  0
    7.8861   -5.8688   -5.7699 N   0  0  0  0  0  0  0  0  0  0  0  0
    8.6598   -6.1798   -6.7839 C   0  0  0  0  0  0  0  0  0  0  0  0
    9.3717   -5.2417   -7.5165 C   0  0  0  0  0  0  0  0  0  0  0  0
    9.4665   -5.7712   -8.9440 C   0  0  0  0  0  0  0  0  0  0  0  0
    8.4849   -6.6993   -9.4749 C   0  0  0  0  0  0  0  0  0  0  0  0
    8.8442   -7.3424  -10.5728 N   0  0  0  0  0  0  0  0  0  0  0  0
   10.0241   -6.7962  -10.8777 N   0  0  0  0  0  0  0  0  0  0  0  0
   10.6151   -7.2727  -12.1110 C   0  0  0  0  0  0  0  0  0  0  0  0
   10.4672   -5.8830   -9.9149 C   0  0  0  0  0  0  0  0  0  0  0  0
    9.5263   -3.9629   -6.9387 N   0  0  0  0  0  0  0  0  0  0  0  0
    8.7479   -3.5960   -5.7002 C   0  0  0  0  0  0  0  0  0  0  0  0
    8.5002   -2.4889   -4.6099 C   0  0  0  0  0  0  0  0  0  0  0  0
    1.9181    0.8485   -0.6120 H   0  0  0  0  0  0  0  0  0  0  0  0
    1.9427    1.4717   -2.2676 H   0  0  0  0  0  0  0  0  0  0  0  0
    3.4675    1.1440   -1.3979 H   0  0  0  0  0  0  0  0  0  0  0  0
    1.4469   -0.8456   -2.1829 H   0  0  0  0  0  0  0  0  0  0  0  0
    2.6377   -0.0892   -4.0815 H   0  0  0  0  0  0  0  0  0  0  0  0
    2.9171   -1.7535   -3.6852 H   0  0  0  0  0  0  0  0  0  0  0  0
    4.8541    0.5627   -3.1748 H   0  0  0  0  0  0  0  0  0  0  0  0
    4.6828   -1.5394   -5.0588 H   0  0  0  0  0  0  0  0  0  0  0  0
    5.0161   -2.3220   -2.2165 H   0  0  0  0  0  0  0  0  0  0  0  0
    5.3257   -0.9191   -1.3648 H   0  0  0  0  0  0  0  0  0  0  0  0
    9.0104   -2.5456   -1.3410 H   0  0  0  0  0  0  0  0  0  0  0  0
   11.7698   -2.9994    1.0958 H   0  0  0  0  0  0  0  0  0  0  0  0
   10.6937   -3.3134   -0.2605 H   0  0  0  0  0  0  0  0  0  0  0  0
   10.0276   -3.0755    1.4017 H   0  0  0  0  0  0  0  0  0  0  0  0
   10.0600    1.0068    0.8480 H   0  0  0  0  0  0  0  0  0  0  0  0
    9.0846    4.2749   -0.7761 H   0  0  0  0  0  0  0  0  0  0  0  0
    9.9165    2.8352   -1.3783 H   0  0  0  0  0  0  0  0  0  0  0  0
    9.9678    3.2545    0.3712 H   0  0  0  0  0  0  0  0  0  0  0  0
    6.6554    1.0323   -1.7346 H   0  0  0  0  0  0  0  0  0  0  0  0
    5.4316   -3.4723   -3.5346 H   0  0  0  0  0  0  0  0  0  0  0  0
    5.9484   -5.2534   -4.8287 H   0  0  0  0  0  0  0  0  0  0  0  0
    8.4566   -7.1825   -7.1081 H   0  0  0  0  0  0  0  0  0  0  0  0
    7.5421   -7.0072   -9.0394 H   0  0  0  0  0  0  0  0  0  0  0  0
   10.0216   -8.0998  -12.4944 H   0  0  0  0  0  0  0  0  0  0  0  0
   11.6282   -7.6393  -11.9404 H   0  0  0  0  0  0  0  0  0  0  0  0
   10.5792   -6.4649  -12.8445 H   0  0  0  0  0  0  0  0  0  0  0  0
   11.4531   -5.4536  -10.0191 H   0  0  0  0  0  0  0  0  0  0  0  0
    9.2431   -1.6833   -4.5347 H   0  0  0  0  0  0  0  0  0  0  0  0
  1  2  1  0  0  0  0
  1 34  1  0  0  0  0
  1 35  1  0  0  0  0
  1 36  1  0  0  0  0
  2  3  1  0  0  0  0
  2 37  1  0  0  0  0
  3 38  1  0  0  0  0
  3 39  1  0  0  0  0
  4  6  1  0  0  0  0
  4  5  1  0  0  0  0
  4  3  1  0  0  0  0
  4 40  1  1  0  0  0
  5 41  1  0  0  0  0
  6  7  1  0  0  0  0
  6 42  1  0  0  0  0
  6 43  1  0  0  0  0
  7  8  1  0  0  0  0
  7 18  1  0  0  0  0
  8  9  1  0  0  0  0
  8 17  2  0  0  0  0
  9 10  2  0  0  0  0
  9 44  1  0  0  0  0
 10 11  1  0  0  0  0
 10 13  1  0  0  0  0
 11 12  1  0  0  0  0
 12 45  1  0  0  0  0
 12 46  1  0  0  0  0
 12 47  1  0  0  0  0
 13 14  2  0  0  0  0
 13 48  1  0  0  0  0
 14 15  1  0  0  0  0
 14 17  1  0  0  0  0
 15 16  1  0  0  0  0
 16 49  1  0  0  0  0
 16 50  1  0  0  0  0
 16 51  1  0  0  0  0
 17 52  1  0  0  0  0
 18 19  1  0  0  0  0
 18 33  2  0  0  0  0
 19 20  2  0  0  0  0
 19 53  1  0  0  0  0
 20 21  1  0  0  0  0
 20 54  1  0  0  0  0
 21 22  1  0  0  0  0
 21 32  2  0  0  0  0
 22 23  2  0  0  0  0
 23 24  1  0  0  0  0
 23 55  1  0  0  0  0
 24 25  1  0  0  0  0
 24 31  2  0  0  0  0
 25 26  1  0  0  0  0
 25 30  2  0  0  0  0
 26 27  2  0  0  0  0
 26 56  1  0  0  0  0
 27 28  1  0  0  0  0
 28 29  1  0  0  0  0
 28 30  1  0  0  0  0
 29 57  1  0  0  0  0
 29 58  1  0  0  0  0
 29 59  1  0  0  0  0
 30 60  1  0  0  0  0
 31 32  1  0  0  0  0
 32 33  1  0  0  0  0
 33 61  1  0  0  0  0
M  END
$$$$
