CHEMBL2023484
 OpenBabel04072215363D

 56 59  0  0  0  0  0  0  0  0999 V2000
    9.5140   -2.9073    0.3219 C   0  0  0  0  0  0  0  0  0  0  0  0
    9.8792   -1.4975   -0.0930 C   0  0  0  0  0  0  0  0  0  0  0  0
    9.7941   -1.2810   -1.5701 C   0  0  0  0  0  0  0  0  0  0  0  0
   10.8964   -0.9149   -2.3257 C   0  0  0  0  0  0  0  0  0  0  0  0
   10.4723   -0.8433   -3.6083 N   0  0  0  0  0  0  0  0  0  0  0  0
    9.1826   -1.1165   -3.7594 N   0  0  0  0  0  0  0  0  0  0  0  0
    8.7154   -1.4065   -2.5323 C   0  0  0  0  0  0  0  0  0  0  0  0
    7.3802   -1.7660   -2.3226 N   0  0  0  0  0  0  0  0  0  0  0  0
    6.4465   -1.9733   -3.3522 C   0  0  0  0  0  0  0  0  0  0  0  0
    6.6504   -1.8511   -4.5603 O   0  0  0  0  0  0  0  0  0  0  0  0
    5.0149   -2.3037   -2.8658 C   0  0  0  0  0  0  0  0  0  0  0  0
    4.8337   -3.6730   -2.1918 C   0  0  0  0  0  0  0  0  0  0  0  0
    4.6320   -4.7752   -3.0455 C   0  0  0  0  0  0  0  0  0  0  0  0
    4.5931   -6.0991   -2.5565 C   0  0  0  0  0  0  0  0  0  0  0  0
    4.7907   -6.4102   -1.1990 C   0  0  0  0  0  0  0  0  0  0  0  0
    5.1502   -7.7466   -1.0000 O   0  0  0  0  0  0  0  0  0  0  0  0
    5.0031   -8.6147    0.0829 C   0  0  0  0  0  0  0  0  0  0  0  0
    3.9016   -8.6479    0.9759 C   0  0  0  0  0  0  0  0  0  0  0  0
    3.8221   -9.6865    1.9033 C   0  0  0  0  0  0  0  0  0  0  0  0
    4.7833  -10.5576    2.0952 N   0  0  0  0  0  0  0  0  0  0  0  0
    5.6306  -10.7123    1.1585 C   0  0  0  0  0  0  0  0  0  0  0  0
    6.1430  -11.9492    1.2511 C   0  0  0  0  0  0  0  0  0  0  0  0
    7.0463  -12.4252    0.3514 C   0  0  0  0  0  0  0  0  0  0  0  0
    7.4014  -13.7187    0.6261 O   0  0  0  0  0  0  0  0  0  0  0  0
    8.3382  -14.2850   -0.2561 C   0  0  0  0  0  0  0  0  0  0  0  0
    7.4845  -11.5843   -0.6560 C   0  0  0  0  0  0  0  0  0  0  0  0
    6.9195  -10.2813   -0.8089 C   0  0  0  0  0  0  0  0  0  0  0  0
    5.8700   -9.7912    0.0579 C   0  0  0  0  0  0  0  0  0  0  0  0
    4.8962   -5.3155   -0.3252 C   0  0  0  0  0  0  0  0  0  0  0  0
    4.8967   -3.9477   -0.7972 C   0  0  0  0  0  0  0  0  0  0  0  0
    5.0024   -2.8575    0.0552 O   0  0  0  0  0  0  0  0  0  0  0  0
    5.0649   -3.1196    1.4692 C   0  0  0  0  0  0  0  0  0  0  0  0
    9.7716   -3.0714    1.3737 H   0  0  0  0  0  0  0  0  0  0  0  0
   10.0595   -3.6434   -0.2787 H   0  0  0  0  0  0  0  0  0  0  0  0
    8.4427   -3.0793    0.1967 H   0  0  0  0  0  0  0  0  0  0  0  0
   10.9176   -1.3347    0.2416 H   0  0  0  0  0  0  0  0  0  0  0  0
    9.2770   -0.7562    0.4419 H   0  0  0  0  0  0  0  0  0  0  0  0
   11.9274   -0.7170   -2.0613 H   0  0  0  0  0  0  0  0  0  0  0  0
   11.0113   -0.6084   -4.4326 H   0  0  0  0  0  0  0  0  0  0  0  0
    7.0782   -1.9191   -1.3685 H   0  0  0  0  0  0  0  0  0  0  0  0
    4.3894   -2.2882   -3.7822 H   0  0  0  0  0  0  0  0  0  0  0  0
    4.6218   -1.4708   -2.2749 H   0  0  0  0  0  0  0  0  0  0  0  0
    4.5544   -4.6228   -4.1253 H   0  0  0  0  0  0  0  0  0  0  0  0
    4.4820   -6.9043   -3.2821 H   0  0  0  0  0  0  0  0  0  0  0  0
    3.0573   -7.9754    0.9204 H   0  0  0  0  0  0  0  0  0  0  0  0
    2.9368  -10.0343    2.4541 H   0  0  0  0  0  0  0  0  0  0  0  0
    5.7326  -12.5775    2.0281 H   0  0  0  0  0  0  0  0  0  0  0  0
    8.6354  -15.2664    0.1431 H   0  0  0  0  0  0  0  0  0  0  0  0
    9.2431  -13.6700   -0.3026 H   0  0  0  0  0  0  0  0  0  0  0  0
    7.8924  -14.4318   -1.2356 H   0  0  0  0  0  0  0  0  0  0  0  0
    8.2510  -11.9309   -1.3427 H   0  0  0  0  0  0  0  0  0  0  0  0
    7.2725   -9.6920   -1.6539 H   0  0  0  0  0  0  0  0  0  0  0  0
    5.0493   -5.5096    0.7266 H   0  0  0  0  0  0  0  0  0  0  0  0
    5.2201   -2.1794    2.0161 H   0  0  0  0  0  0  0  0  0  0  0  0
    5.9226   -3.7557    1.7096 H   0  0  0  0  0  0  0  0  0  0  0  0
    4.1344   -3.5592    1.8513 H   0  0  0  0  0  0  0  0  0  0  0  0
  1  2  1  0  0  0  0
  1 33  1  0  0  0  0
  1 34  1  0  0  0  0
  1 35  1  0  0  0  0
  2  3  1  0  0  0  0
  2 36  1  0  0  0  0
  2 37  1  0  0  0  0
  3  4  2  0  0  0  0
  3  7  1  0  0  0  0
  4  5  1  0  0  0  0
  4 38  1  0  0  0  0
  5  6  1  0  0  0  0
  5 39  1  0  0  0  0
  6  7  2  0  0  0  0
  7  8  1  0  0  0  0
  8  9  1  0  0  0  0
  8 40  1  0  0  0  0
  9 10  2  0  0  0  0
  9 11  1  0  0  0  0
 11 12  1  0  0  0  0
 11 41  1  0  0  0  0
 11 42  1  0  0  0  0
 12 13  1  0  0  0  0
 12 30  2  0  0  0  0
 13 14  2  0  0  0  0
 13 43  1  0  0  0  0
 14 15  1  0  0  0  0
 14 44  1  0  0  0  0
 15 16  1  0  0  0  0
 15 29  2  0  0  0  0
 16 17  1  0  0  0  0
 17 18  1  0  0  0  0
 17 28  2  0  0  0  0
 18 19  2  0  0  0  0
 18 45  1  0  0  0  0
 19 20  1  0  0  0  0
 19 46  1  0  0  0  0
 20 21  2  0  0  0  0
 21 22  1  0  0  0  0
 21 28  1  0  0  0  0
 22 23  2  0  0  0  0
 22 47  1  0  0  0  0
 23 24  1  0  0  0  0
 23 26  1  0  0  0  0
 24 25  1  0  0  0  0
 25 48  1  0  0  0  0
 25 49  1  0  0  0  0
 25 50  1  0  0  0  0
 26 27  2  0  0  0  0
 26 51  1  0  0  0  0
 27 28  1  0  0  0  0
 27 52  1  0  0  0  0
 29 30  1  0  0  0  0
 29 53  1  0  0  0  0
 30 31  1  0  0  0  0
 31 32  1  0  0  0  0
 32 54  1  0  0  0  0
 32 55  1  0  0  0  0
 32 56  1  0  0  0  0
M  END
$$$$
