CHEMBL410903
 OpenBabel04072215383D

 59 63  0  0  0  0  0  0  0  0999 V2000
    4.9051   -2.0053   -0.1483 C   0  0  0  0  0  0  0  0  0  0  0  0
    3.7715   -1.2834    0.3408 O   0  0  0  0  0  0  0  0  0  0  0  0
    4.0555   -0.1902    1.1147 C   0  0  0  0  0  0  0  0  0  0  0  0
    5.2610    0.5271    0.9824 C   0  0  0  0  0  0  0  0  0  0  0  0
    5.6589    1.4990    1.8849 C   0  0  0  0  0  0  0  0  0  0  0  0
    6.9048    2.0004    1.7733 N   0  0  0  0  0  0  0  0  0  0  0  0
    7.3422    2.8437    2.7197 C   0  0  0  0  0  0  0  0  0  0  0  0
    6.5999    3.2135    3.8205 C   0  0  0  0  0  0  0  0  0  0  0  0
    5.3055    2.7076    3.9419 C   0  0  0  0  0  0  0  0  0  0  0  0
    4.6902    3.0870    5.1274 O   0  0  0  0  0  0  0  0  0  0  0  0
    3.7596    2.2776    5.7351 C   0  0  0  0  0  0  0  0  0  0  0  0
    3.8021    0.8900    5.7235 C   0  0  0  0  0  0  0  0  0  0  0  0
    2.6385    0.1708    6.0236 C   0  0  0  0  0  0  0  0  0  0  0  0
    1.4652    0.7926    6.5367 C   0  0  0  0  0  0  0  0  0  0  0  0
    0.2271    0.1349    6.8282 C   0  0  0  0  0  0  0  0  0  0  0  0
   -0.0877   -1.3024    6.5402 C   0  0  0  0  0  0  0  0  0  0  0  0
   -1.2302   -1.6188    6.2193 O   0  0  0  0  0  0  0  0  0  0  0  0
    0.9188   -2.2333    6.6969 N   0  0  0  0  0  0  0  0  0  0  0  0
    0.6665   -3.6452    6.5044 C   0  0  0  0  0  0  0  0  0  0  0  0
    0.3028   -4.3395    7.8116 C   0  0  0  0  0  0  0  0  0  0  0  0
    0.6033   -5.8139    7.5648 C   0  0  0  0  0  0  0  0  0  0  0  0
    1.5681   -5.8643    6.3794 C   0  0  0  0  0  0  0  0  0  0  0  0
    1.9004   -4.4147    6.0477 C   0  0  0  0  0  0  0  0  0  0  0  0
   -0.8561    0.8748    7.3366 C   0  0  0  0  0  0  0  0  0  0  0  0
   -0.7488    2.2423    7.5725 C   0  0  0  0  0  0  0  0  0  0  0  0
    0.4390    2.8935    7.2575 C   0  0  0  0  0  0  0  0  0  0  0  0
    1.5311    2.1997    6.7287 C   0  0  0  0  0  0  0  0  0  0  0  0
    2.6695    2.9215    6.3203 C   0  0  0  0  0  0  0  0  0  0  0  0
    4.7800    1.8785    2.9104 C   0  0  0  0  0  0  0  0  0  0  0  0
    3.4693    1.3528    2.8508 C   0  0  0  0  0  0  0  0  0  0  0  0
    3.1307    0.2505    2.0549 C   0  0  0  0  0  0  0  0  0  0  0  0
    1.9107   -0.2491    2.4074 O   0  0  0  0  0  0  0  0  0  0  0  0
    1.4873   -1.5209    1.9556 C   0  0  0  0  0  0  0  0  0  0  0  0
    4.6365   -3.0703   -0.1870 H   0  0  0  0  0  0  0  0  0  0  0  0
    5.7850   -1.9298    0.4951 H   0  0  0  0  0  0  0  0  0  0  0  0
    5.1419   -1.6749   -1.1631 H   0  0  0  0  0  0  0  0  0  0  0  0
    5.9556    0.2883    0.1796 H   0  0  0  0  0  0  0  0  0  0  0  0
    8.3591    3.2059    2.5811 H   0  0  0  0  0  0  0  0  0  0  0  0
    7.0216    3.8620    4.5771 H   0  0  0  0  0  0  0  0  0  0  0  0
    4.6601    0.3592    5.3188 H   0  0  0  0  0  0  0  0  0  0  0  0
    2.6558   -0.8805    5.7573 H   0  0  0  0  0  0  0  0  0  0  0  0
    1.7277   -1.9656    7.2408 H   0  0  0  0  0  0  0  0  0  0  0  0
   -0.1403   -3.7834    5.7727 H   0  0  0  0  0  0  0  0  0  0  0  0
   -0.7399   -4.1686    8.0976 H   0  0  0  0  0  0  0  0  0  0  0  0
    0.9314   -3.9681    8.6314 H   0  0  0  0  0  0  0  0  0  0  0  0
   -0.3152   -6.3608    7.3245 H   0  0  0  0  0  0  0  0  0  0  0  0
    1.0368   -6.2776    8.4568 H   0  0  0  0  0  0  0  0  0  0  0  0
    1.0770   -6.3460    5.5256 H   0  0  0  0  0  0  0  0  0  0  0  0
    2.4683   -6.4431    6.6084 H   0  0  0  0  0  0  0  0  0  0  0  0
    2.1095   -4.2733    4.9815 H   0  0  0  0  0  0  0  0  0  0  0  0
    2.7917   -4.0968    6.6036 H   0  0  0  0  0  0  0  0  0  0  0  0
   -1.8054    0.3802    7.5468 H   0  0  0  0  0  0  0  0  0  0  0  0
   -1.5939    2.7974    7.9634 H   0  0  0  0  0  0  0  0  0  0  0  0
    0.4903    3.9731    7.4110 H   0  0  0  0  0  0  0  0  0  0  0  0
    2.6767    4.0059    6.3803 H   0  0  0  0  0  0  0  0  0  0  0  0
    2.6957    1.7284    3.5145 H   0  0  0  0  0  0  0  0  0  0  0  0
    0.6853   -1.8511    2.6270 H   0  0  0  0  0  0  0  0  0  0  0  0
    2.2705   -2.2869    2.0074 H   0  0  0  0  0  0  0  0  0  0  0  0
    1.0648   -1.4360    0.9518 H   0  0  0  0  0  0  0  0  0  0  0  0
  1  2  1  0  0  0  0
  1 34  1  0  0  0  0
  1 35  1  0  0  0  0
  1 36  1  0  0  0  0
  2  3  1  0  0  0  0
  3  4  1  0  0  0  0
  3 31  2  0  0  0  0
  4  5  2  0  0  0  0
  4 37  1  0  0  0  0
  5  6  1  0  0  0  0
  5 29  1  0  0  0  0
  6  7  2  0  0  0  0
  7  8  1  0  0  0  0
  7 38  1  0  0  0  0
  8  9  2  0  0  0  0
  8 39  1  0  0  0  0
  9 10  1  0  0  0  0
  9 29  1  0  0  0  0
 10 11  1  0  0  0  0
 11 12  1  0  0  0  0
 11 28  2  0  0  0  0
 12 13  2  0  0  0  0
 12 40  1  0  0  0  0
 13 14  1  0  0  0  0
 13 41  1  0  0  0  0
 14 15  1  0  0  0  0
 14 27  2  0  0  0  0
 15 16  1  0  0  0  0
 15 24  2  0  0  0  0
 16 17  2  0  0  0  0
 16 18  1  0  0  0  0
 18 19  1  0  0  0  0
 18 42  1  0  0  0  0
 19 20  1  0  0  0  0
 19 23  1  0  0  0  0
 19 43  1  0  0  0  0
 20 21  1  0  0  0  0
 20 44  1  0  0  0  0
 20 45  1  0  0  0  0
 21 22  1  0  0  0  0
 21 46  1  0  0  0  0
 21 47  1  0  0  0  0
 22 23  1  0  0  0  0
 22 48  1  0  0  0  0
 22 49  1  0  0  0  0
 23 50  1  0  0  0  0
 23 51  1  0  0  0  0
 24 25  1  0  0  0  0
 24 52  1  0  0  0  0
 25 26  2  0  0  0  0
 25 53  1  0  0  0  0
 26 27  1  0  0  0  0
 26 54  1  0  0  0  0
 27 28  1  0  0  0  0
 28 55  1  0  0  0  0
 29 30  2  0  0  0  0
 30 31  1  0  0  0  0
 30 56  1  0  0  0  0
 31 32  1  0  0  0  0
 32 33  1  0  0  0  0
 33 57  1  0  0  0  0
 33 58  1  0  0  0  0
 33 59  1  0  0  0  0
M  END
$$$$
