CHEMBL3903022
 OpenBabel04072215373D

 56 60  0  0  0  0  0  0  0  0999 V2000
    0.9532   -0.3957   -0.2936 C   0  0  0  0  0  0  0  0  0  0  0  0
    2.3439   -0.2435    0.0335 O   0  0  0  0  0  0  0  0  0  0  0  0
    2.9725    0.7110   -0.7189 C   0  0  0  0  0  0  0  0  0  0  0  0
    4.0829    0.2874   -1.4477 C   0  0  0  0  0  0  0  0  0  0  0  0
    4.7010    1.1370   -2.4025 C   0  0  0  0  0  0  0  0  0  0  0  0
    5.7771    0.7726   -3.2430 C   0  0  0  0  0  0  0  0  0  0  0  0
    6.3745   -0.5106   -3.0909 N   0  0  0  0  0  0  0  0  0  0  0  0
    7.5378   -1.0192   -3.7139 C   0  0  0  0  0  0  0  0  0  0  0  0
    8.5823   -0.2009   -4.1607 C   0  0  0  0  0  0  0  0  0  0  0  0
    9.7224   -0.7401   -4.7648 C   0  0  0  0  0  0  0  0  0  0  0  0
    9.8609   -2.1200   -4.8917 C   0  0  0  0  0  0  0  0  0  0  0  0
   11.2793   -2.7192   -5.6736 Cl  0  0  0  0  0  0  0  0  0  0  0  0
    8.8619   -2.9581   -4.3894 C   0  0  0  0  0  0  0  0  0  0  0  0
    8.9731   -4.6810   -4.4764 Cl  0  0  0  0  0  0  0  0  0  0  0  0
    7.7177   -2.4090   -3.7952 C   0  0  0  0  0  0  0  0  0  0  0  0
    6.2549    1.6153   -4.1756 N   0  0  0  0  0  0  0  0  0  0  0  0
    5.6822    2.8175   -4.2650 C   0  0  0  0  0  0  0  0  0  0  0  0
    4.6912    3.2764   -3.4950 N   0  0  0  0  0  0  0  0  0  0  0  0
    4.2106    2.4393   -2.5706 C   0  0  0  0  0  0  0  0  0  0  0  0
    3.1834    2.8766   -1.7431 C   0  0  0  0  0  0  0  0  0  0  0  0
    2.5871    2.0435   -0.7858 C   0  0  0  0  0  0  0  0  0  0  0  0
    1.6035    2.6183   -0.0330 O   0  0  0  0  0  0  0  0  0  0  0  0
    1.6075    2.2997    1.3670 C   0  0  0  0  0  0  0  0  0  0  0  0
    0.4058    2.9555    1.9308 C   0  0  0  0  0  0  0  0  0  0  0  0
   -0.0478    4.1729    1.7412 N   0  0  0  0  0  0  0  0  0  0  0  0
   -1.2324    4.1554    2.4266 C   0  0  0  0  0  0  0  0  0  0  0  0
   -2.1053    5.3387    2.4504 C   0  0  0  0  0  0  0  0  0  0  0  0
   -3.7282    5.0023    1.8245 S   0  0  0  0  0  0  0  0  0  0  0  0
   -4.4649    6.2543    1.7594 O   0  0  0  0  0  0  0  0  0  0  0  0
   -3.6224    4.1742    0.6302 O   0  0  0  0  0  0  0  0  0  0  0  0
   -4.4691    4.0192    3.1082 C   0  0  0  0  0  0  0  0  0  0  0  0
   -4.9876    2.7636    2.8400 C   0  0  0  0  0  0  0  0  0  0  0  0
   -5.4800    2.0399    3.9192 C   0  0  0  0  0  0  0  0  0  0  0  0
   -5.4375    2.5976    5.1967 C   0  0  0  0  0  0  0  0  0  0  0  0
   -4.8952    3.8649    5.3547 C   0  0  0  0  0  0  0  0  0  0  0  0
   -4.3961    4.5946    4.3379 N   0  0  0  0  0  0  0  0  0  0  0  0
   -1.4777    3.0155    3.0883 N   0  0  0  0  0  0  0  0  0  0  0  0
   -0.3987    2.2009    2.7371 O   0  0  0  0  0  0  0  0  0  0  0  0
    0.4802   -0.9195    0.5433 H   0  0  0  0  0  0  0  0  0  0  0  0
    0.8365   -0.9970   -1.1985 H   0  0  0  0  0  0  0  0  0  0  0  0
    0.4163    0.5496   -0.4197 H   0  0  0  0  0  0  0  0  0  0  0  0
    4.4379   -0.7272   -1.2935 H   0  0  0  0  0  0  0  0  0  0  0  0
    5.6484   -1.2163   -3.0321 H   0  0  0  0  0  0  0  0  0  0  0  0
    8.5285    0.8793   -4.0539 H   0  0  0  0  0  0  0  0  0  0  0  0
   10.4949   -0.0687   -5.1312 H   0  0  0  0  0  0  0  0  0  0  0  0
    6.9562   -3.0795   -3.4025 H   0  0  0  0  0  0  0  0  0  0  0  0
    6.0613    3.4829   -5.0334 H   0  0  0  0  0  0  0  0  0  0  0  0
    2.8253    3.8988   -1.8515 H   0  0  0  0  0  0  0  0  0  0  0  0
    2.5123    2.6837    1.8472 H   0  0  0  0  0  0  0  0  0  0  0  0
    1.5286    1.2314    1.5693 H   0  0  0  0  0  0  0  0  0  0  0  0
   -1.6884    6.1150    1.7988 H   0  0  0  0  0  0  0  0  0  0  0  0
   -2.1838    5.7623    3.4544 H   0  0  0  0  0  0  0  0  0  0  0  0
   -4.9912    2.3517    1.8366 H   0  0  0  0  0  0  0  0  0  0  0  0
   -5.8877    1.0440    3.7698 H   0  0  0  0  0  0  0  0  0  0  0  0
   -5.8161    2.0522    6.0545 H   0  0  0  0  0  0  0  0  0  0  0  0
   -4.8439    4.3342    6.3336 H   0  0  0  0  0  0  0  0  0  0  0  0
  1  2  1  0  0  0  0
  1 39  1  0  0  0  0
  1 40  1  0  0  0  0
  1 41  1  0  0  0  0
  2  3  1  0  0  0  0
  3  4  1  0  0  0  0
  3 21  2  0  0  0  0
  4  5  2  0  0  0  0
  4 42  1  0  0  0  0
  5  6  1  0  0  0  0
  5 19  1  0  0  0  0
  6  7  1  0  0  0  0
  6 16  2  0  0  0  0
  7  8  1  0  0  0  0
  7 43  1  0  0  0  0
  8  9  1  0  0  0  0
  8 15  2  0  0  0  0
  9 10  2  0  0  0  0
  9 44  1  0  0  0  0
 10 11  1  0  0  0  0
 10 45  1  0  0  0  0
 11 12  1  0  0  0  0
 11 13  2  0  0  0  0
 13 14  1  0  0  0  0
 13 15  1  0  0  0  0
 15 46  1  0  0  0  0
 16 17  1  0  0  0  0
 17 18  2  0  0  0  0
 17 47  1  0  0  0  0
 18 19  1  0  0  0  0
 19 20  2  0  0  0  0
 20 21  1  0  0  0  0
 20 48  1  0  0  0  0
 21 22  1  0  0  0  0
 22 23  1  0  0  0  0
 23 24  1  0  0  0  0
 23 49  1  0  0  0  0
 23 50  1  0  0  0  0
 24 25  2  0  0  0  0
 24 38  1  0  0  0  0
 25 26  1  0  0  0  0
 26 27  1  0  0  0  0
 26 37  2  0  0  0  0
 27 28  1  0  0  0  0
 27 51  1  0  0  0  0
 27 52  1  0  0  0  0
 28 29  2  0  0  0  0
 28 30  2  0  0  0  0
 28 31  1  0  0  0  0
 31 32  1  0  0  0  0
 31 36  2  0  0  0  0
 32 33  2  0  0  0  0
 32 53  1  0  0  0  0
 33 34  1  0  0  0  0
 33 54  1  0  0  0  0
 34 35  2  0  0  0  0
 34 55  1  0  0  0  0
 35 36  1  0  0  0  0
 35 56  1  0  0  0  0
 37 38  1  0  0  0  0
M  END
$$$$
