CHEMBL4532350
 OpenBabel04072215383D

 73 79  0  0  1  0  0  0  0  0999 V2000
    3.7822   -0.8801    1.2506 C   0  0  0  0  0  0  0  0  0  0  0  0
    3.1311    0.3426    0.7927 N   0  0  0  0  0  0  0  0  0  0  0  0
    1.6975    0.4620    1.0469 C   0  0  0  0  0  0  0  0  0  0  0  0
    3.7205    1.1545   -0.1755 C   0  0  0  0  0  0  0  0  0  0  0  0
    4.8991    0.8075   -0.8554 C   0  0  0  0  0  0  0  0  0  0  0  0
    5.5035    1.6546   -1.8077 C   0  0  0  0  0  0  0  0  0  0  0  0
    4.9552    2.9076   -2.1145 C   0  0  0  0  0  0  0  0  0  0  0  0
    5.7119    3.8752   -3.0383 C   0  0  3  0  0  0  0  0  0  0  0  0
    4.9068    4.4200   -4.2236 C   0  0  0  0  0  0  0  0  0  0  0  0
    4.3795    5.6748   -3.5860 C   0  0  0  0  0  0  0  0  0  0  0  0
    3.1196    6.3341   -4.0613 C   0  0  0  0  0  0  0  0  0  0  0  0
    3.0126    7.6241   -3.6800 C   0  0  0  0  0  0  0  0  0  0  0  0
    3.9179    8.6012   -4.0509 O   0  0  0  0  0  0  0  0  0  0  0  0
    2.5785    7.6933   -2.2672 C   0  0  0  0  0  0  0  0  0  0  0  0
    3.3368    8.3576   -1.2980 C   0  0  0  0  0  0  0  0  0  0  0  0
    3.2165    7.9906    0.0443 C   0  0  0  0  0  0  0  0  0  0  0  0
    2.2774    7.0334    0.4364 C   0  0  0  0  0  0  0  0  0  0  0  0
    1.4497    6.4362   -0.5102 C   0  0  0  0  0  0  0  0  0  0  0  0
    1.6452    6.7390   -1.8529 C   0  0  0  0  0  0  0  0  0  0  0  0
    1.0616    5.8840   -2.8043 O   0  0  0  0  0  0  0  0  0  0  0  0
    1.8692    5.5461   -3.8835 C   0  0  0  0  0  0  0  0  0  0  0  0
    1.5809    4.6501   -4.6714 O   0  0  0  0  0  0  0  0  0  0  0  0
    5.0852    6.0787   -2.5699 N   0  0  0  0  0  0  0  0  0  0  0  0
    6.0352    5.1260   -2.3421 N   0  0  0  0  0  0  0  0  0  0  0  0
    6.8819    5.0636   -1.2812 C   0  0  0  0  0  0  0  0  0  0  0  0
    8.0429    4.4574   -1.3498 N   0  0  0  0  0  0  0  0  0  0  0  0
    8.6671    4.4411   -0.1136 C   0  0  0  0  0  0  0  0  0  0  0  0
   10.0088    3.8669   -0.0190 C   0  0  0  0  0  0  0  0  0  0  0  0
   10.9024    4.2000    1.0056 C   0  0  0  0  0  0  0  0  0  0  0  0
   12.1831    3.6385    1.0432 C   0  0  0  0  0  0  0  0  0  0  0  0
   12.5917    2.7543    0.0483 C   0  0  0  0  0  0  0  0  0  0  0  0
   11.7297    2.4395   -0.9987 C   0  0  0  0  0  0  0  0  0  0  0  0
   10.4497    2.9974   -1.0328 C   0  0  0  0  0  0  0  0  0  0  0  0
    7.8993    4.9235    0.9414 C   0  0  0  0  0  0  0  0  0  0  0  0
    8.1222    4.9231    2.2886 N   0  0  0  0  0  0  0  0  0  0  0  0
    7.1382    4.5613    2.9684 N   0  0  0  0  0  0  0  0  0  0  0  0
    7.3622    4.5739    4.3584 C   0  0  0  0  0  0  0  0  0  0  0  0
    8.3324    5.3597    5.0000 C   0  0  0  0  0  0  0  0  0  0  0  0
    8.4585    5.3469    6.3948 C   0  0  0  0  0  0  0  0  0  0  0  0
    7.6021    4.5598    7.1609 C   0  0  0  0  0  0  0  0  0  0  0  0
    7.7461    4.5551    8.8739 Cl  0  0  0  0  0  0  0  0  0  0  0  0
    6.6255    3.7818    6.5458 C   0  0  0  0  0  0  0  0  0  0  0  0
    6.5122    3.7901    5.1520 C   0  0  0  0  0  0  0  0  0  0  0  0
    6.5051    5.7086    0.2638 S   0  0  0  0  0  0  0  0  0  0  0  0
    3.7797    3.2596   -1.4372 C   0  0  0  0  0  0  0  0  0  0  0  0
    3.1817    2.4052   -0.5035 C   0  0  0  0  0  0  0  0  0  0  0  0
    3.1931   -1.3834    2.0280 H   0  0  0  0  0  0  0  0  0  0  0  0
    4.7554   -0.6564    1.7022 H   0  0  0  0  0  0  0  0  0  0  0  0
    3.9117   -1.5943    0.4317 H   0  0  0  0  0  0  0  0  0  0  0  0
    1.3370   -0.3157    1.7308 H   0  0  0  0  0  0  0  0  0  0  0  0
    1.1279    0.3636    0.1169 H   0  0  0  0  0  0  0  0  0  0  0  0
    1.4579    1.4192    1.5226 H   0  0  0  0  0  0  0  0  0  0  0  0
    5.3889   -0.1403   -0.6566 H   0  0  0  0  0  0  0  0  0  0  0  0
    6.4258    1.3287   -2.2762 H   0  0  0  0  0  0  0  0  0  0  0  0
    6.6237    3.3933   -3.4118 H   0  0  0  0  0  0  0  0  0  0  0  0
    4.1500    3.7521   -4.6283 H   0  0  0  0  0  0  0  0  0  0  0  0
    5.5885    4.7502   -5.0193 H   0  0  0  0  0  0  0  0  0  0  0  0
    4.3344    8.3409   -4.8914 H   0  0  0  0  0  0  0  0  0  0  0  0
    4.1436    9.0253   -1.5939 H   0  0  0  0  0  0  0  0  0  0  0  0
    3.9189    8.3927    0.7710 H   0  0  0  0  0  0  0  0  0  0  0  0
    2.2415    6.7077    1.4727 H   0  0  0  0  0  0  0  0  0  0  0  0
    0.7577    5.6589   -0.2174 H   0  0  0  0  0  0  0  0  0  0  0  0
   10.6325    4.9156    1.7775 H   0  0  0  0  0  0  0  0  0  0  0  0
   12.8621    3.9012    1.8498 H   0  0  0  0  0  0  0  0  0  0  0  0
   13.5879    2.3210    0.0827 H   0  0  0  0  0  0  0  0  0  0  0  0
   12.0517    1.7706   -1.7906 H   0  0  0  0  0  0  0  0  0  0  0  0
    9.7952    2.7542   -1.8694 H   0  0  0  0  0  0  0  0  0  0  0  0
    8.9928    5.9985    4.4197 H   0  0  0  0  0  0  0  0  0  0  0  0
    9.2207    5.9567    6.8720 H   0  0  0  0  0  0  0  0  0  0  0  0
    5.9474    3.1727    7.1381 H   0  0  0  0  0  0  0  0  0  0  0  0
    5.7458    3.1821    4.6739 H   0  0  0  0  0  0  0  0  0  0  0  0
    3.3344    4.2407   -1.5673 H   0  0  0  0  0  0  0  0  0  0  0  0
    2.3007    2.7779    0.0109 H   0  0  0  0  0  0  0  0  0  0  0  0
  1  2  1  0  0  0  0
  1 47  1  0  0  0  0
  1 48  1  0  0  0  0
  1 49  1  0  0  0  0
  2  3  1  0  0  0  0
  2  4  1  0  0  0  0
  3 50  1  0  0  0  0
  3 51  1  0  0  0  0
  3 52  1  0  0  0  0
  4  5  1  0  0  0  0
  4 46  2  0  0  0  0
  5  6  2  0  0  0  0
  5 53  1  0  0  0  0
  6  7  1  0  0  0  0
  6 54  1  0  0  0  0
  7  8  1  0  0  0  0
  7 45  2  0  0  0  0
  8  9  1  0  0  0  0
  8 24  1  0  0  0  0
  8 55  1  0  0  0  0
  9 10  1  0  0  0  0
  9 56  1  0  0  0  0
  9 57  1  0  0  0  0
 10 11  1  0  0  0  0
 10 23  2  0  0  0  0
 11 12  2  0  0  0  0
 11 21  1  0  0  0  0
 12 13  1  0  0  0  0
 12 14  1  0  0  0  0
 13 58  1  0  0  0  0
 14 15  1  0  0  0  0
 14 19  2  0  0  0  0
 15 16  2  0  0  0  0
 15 59  1  0  0  0  0
 16 17  1  0  0  0  0
 16 60  1  0  0  0  0
 17 18  2  0  0  0  0
 17 61  1  0  0  0  0
 18 19  1  0  0  0  0
 18 62  1  0  0  0  0
 19 20  1  0  0  0  0
 20 21  1  0  0  0  0
 21 22  2  0  0  0  0
 23 24  1  0  0  0  0
 24 25  1  0  0  0  0
 25 26  2  0  0  0  0
 25 44  1  0  0  0  0
 26 27  1  0  0  0  0
 27 28  1  0  0  0  0
 27 34  2  0  0  0  0
 28 29  1  0  0  0  0
 28 33  2  0  0  0  0
 29 30  2  0  0  0  0
 29 63  1  0  0  0  0
 30 31  1  0  0  0  0
 30 64  1  0  0  0  0
 31 32  2  0  0  0  0
 31 65  1  0  0  0  0
 32 33  1  0  0  0  0
 32 66  1  0  0  0  0
 33 67  1  0  0  0  0
 34 35  1  0  0  0  0
 34 44  1  0  0  0  0
 35 36  2  0  0  0  0
 36 37  1  0  0  0  0
 37 38  1  0  0  0  0
 37 43  2  0  0  0  0
 38 39  2  0  0  0  0
 38 68  1  0  0  0  0
 39 40  1  0  0  0  0
 39 69  1  0  0  0  0
 40 41  1  0  0  0  0
 40 42  2  0  0  0  0
 42 43  1  0  0  0  0
 42 70  1  0  0  0  0
 43 71  1  0  0  0  0
 45 46  1  0  0  0  0
 45 72  1  0  0  0  0
 46 73  1  0  0  0  0
M  END
$$$$
