CHEMBL460472
 OpenBabel04072215383D

 69 73  0  0  0  0  0  0  0  0999 V2000
    4.5941   -0.4833  -11.6502 C   0  0  0  0  0  0  0  0  0  0  0  0
    5.0627   -1.1376  -10.4730 O   0  0  0  0  0  0  0  0  0  0  0  0
    5.5917   -0.3023   -9.5258 C   0  0  0  0  0  0  0  0  0  0  0  0
    5.2571    1.0358   -9.3902 C   0  0  0  0  0  0  0  0  0  0  0  0
    5.8770    1.8034   -8.4125 C   0  0  0  0  0  0  0  0  0  0  0  0
    6.7716    1.2324   -7.4777 C   0  0  0  0  0  0  0  0  0  0  0  0
    7.3420    1.9253   -6.3807 C   0  0  0  0  0  0  0  0  0  0  0  0
    7.1089    3.2539   -6.0638 O   0  0  0  0  0  0  0  0  0  0  0  0
    5.8199    3.7232   -5.9829 C   0  0  0  0  0  0  0  0  0  0  0  0
    5.6235    5.0855   -6.1955 C   0  0  0  0  0  0  0  0  0  0  0  0
    4.3288    5.6085   -6.2528 C   0  0  0  0  0  0  0  0  0  0  0  0
    3.2458    4.7450   -6.0897 C   0  0  0  0  0  0  0  0  0  0  0  0
    1.9453    5.2577   -6.2077 N   0  0  0  0  0  0  0  0  0  0  0  0
    0.8055    4.4748   -6.1868 C   0  0  0  0  0  0  0  0  0  0  0  0
    0.7696    3.2496   -6.1936 O   0  0  0  0  0  0  0  0  0  0  0  0
   -0.4656    5.2363   -6.1647 C   0  0  0  0  0  0  0  0  0  0  0  0
   -1.7019    4.7842   -5.8576 C   0  0  0  0  0  0  0  0  0  0  0  0
   -2.0537    3.3772   -5.4712 C   0  0  0  0  0  0  0  0  0  0  0  0
   -2.6537    5.8140   -5.8875 N   0  0  0  0  0  0  0  0  0  0  0  0
   -4.1168    5.6772   -6.0157 C   0  0  0  0  0  0  0  0  0  0  0  0
   -4.7167    5.7597   -7.4529 C   0  0  0  0  0  0  0  0  0  0  0  0
   -4.2921    4.5753   -8.3181 C   0  0  0  0  0  0  0  0  0  0  0  0
   -6.2432    5.8758   -7.3338 C   0  0  0  0  0  0  0  0  0  0  0  0
   -4.3403    6.9289   -8.1804 O   0  0  0  0  0  0  0  0  0  0  0  0
   -1.9958    6.9609   -6.3642 N   0  0  0  0  0  0  0  0  0  0  0  0
   -2.5247    8.2654   -6.2858 C   0  0  0  0  0  0  0  0  0  0  0  0
   -2.4242    9.0762   -7.4256 C   0  0  0  0  0  0  0  0  0  0  0  0
   -3.1249   10.2794   -7.4982 C   0  0  0  0  0  0  0  0  0  0  0  0
   -3.8465   10.7281   -6.3954 C   0  0  0  0  0  0  0  0  0  0  0  0
   -3.8851    9.9650   -5.2281 C   0  0  0  0  0  0  0  0  0  0  0  0
   -3.2467    8.7220   -5.1823 C   0  0  0  0  0  0  0  0  0  0  0  0
   -0.6383    6.6719   -6.4918 C   0  0  0  0  0  0  0  0  0  0  0  0
    0.2985    7.4131   -6.7772 O   0  0  0  0  0  0  0  0  0  0  0  0
    3.4304    3.4428   -5.8118 N   0  0  0  0  0  0  0  0  0  0  0  0
    4.6906    2.9585   -5.7477 C   0  0  0  0  0  0  0  0  0  0  0  0
    8.2695    1.2896   -5.5608 C   0  0  0  0  0  0  0  0  0  0  0  0
    8.5637   -0.0315   -5.8215 C   0  0  0  0  0  0  0  0  0  0  0  0
    7.9909   -0.7462   -6.8179 N   0  0  0  0  0  0  0  0  0  0  0  0
    7.1134   -0.1290   -7.6270 C   0  0  0  0  0  0  0  0  0  0  0  0
    6.5149   -0.8640   -8.6436 C   0  0  0  0  0  0  0  0  0  0  0  0
    4.3286   -1.2527  -12.3831 H   0  0  0  0  0  0  0  0  0  0  0  0
    5.3805    0.1421  -12.0879 H   0  0  0  0  0  0  0  0  0  0  0  0
    3.6924    0.1035  -11.4506 H   0  0  0  0  0  0  0  0  0  0  0  0
    4.5053    1.5130  -10.0105 H   0  0  0  0  0  0  0  0  0  0  0  0
    5.6152    2.8563   -8.3725 H   0  0  0  0  0  0  0  0  0  0  0  0
    6.4826    5.7394   -6.3508 H   0  0  0  0  0  0  0  0  0  0  0  0
    4.1822    6.6650   -6.4443 H   0  0  0  0  0  0  0  0  0  0  0  0
    1.8412    6.2590   -6.3380 H   0  0  0  0  0  0  0  0  0  0  0  0
   -1.2120    2.8387   -5.0272 H   0  0  0  0  0  0  0  0  0  0  0  0
   -2.3875    2.8168   -6.3500 H   0  0  0  0  0  0  0  0  0  0  0  0
   -2.8456    3.3498   -4.7175 H   0  0  0  0  0  0  0  0  0  0  0  0
   -4.5870    6.4370   -5.3832 H   0  0  0  0  0  0  0  0  0  0  0  0
   -4.4294    4.7233   -5.5709 H   0  0  0  0  0  0  0  0  0  0  0  0
   -4.3683    3.6243   -7.7875 H   0  0  0  0  0  0  0  0  0  0  0  0
   -3.2593    4.7040   -8.6654 H   0  0  0  0  0  0  0  0  0  0  0  0
   -4.9044    4.5191   -9.2257 H   0  0  0  0  0  0  0  0  0  0  0  0
   -6.6597    5.1883   -6.5927 H   0  0  0  0  0  0  0  0  0  0  0  0
   -6.7340    5.6921   -8.2958 H   0  0  0  0  0  0  0  0  0  0  0  0
   -6.5238    6.8993   -7.0468 H   0  0  0  0  0  0  0  0  0  0  0  0
   -3.3758    6.8855   -8.2920 H   0  0  0  0  0  0  0  0  0  0  0  0
   -1.8993    8.7192   -8.3084 H   0  0  0  0  0  0  0  0  0  0  0  0
   -3.1326   10.8439   -8.4263 H   0  0  0  0  0  0  0  0  0  0  0  0
   -4.3867   11.6698   -6.4512 H   0  0  0  0  0  0  0  0  0  0  0  0
   -4.4327   10.3301   -4.3634 H   0  0  0  0  0  0  0  0  0  0  0  0
   -3.3105    8.1231   -4.2760 H   0  0  0  0  0  0  0  0  0  0  0  0
    4.7395    1.8926   -5.5471 H   0  0  0  0  0  0  0  0  0  0  0  0
    8.7535    1.8094   -4.7404 H   0  0  0  0  0  0  0  0  0  0  0  0
    9.2836   -0.5782   -5.2208 H   0  0  0  0  0  0  0  0  0  0  0  0
    6.7799   -1.9175   -8.7543 H   0  0  0  0  0  0  0  0  0  0  0  0
  1  2  1  0  0  0  0
  1 41  1  0  0  0  0
  1 42  1  0  0  0  0
  1 43  1  0  0  0  0
  2  3  1  0  0  0  0
  3  4  1  0  0  0  0
  3 40  2  0  0  0  0
  4  5  2  0  0  0  0
  4 44  1  0  0  0  0
  5  6  1  0  0  0  0
  5 45  1  0  0  0  0
  6  7  1  0  0  0  0
  6 39  2  0  0  0  0
  7  8  1  0  0  0  0
  7 36  2  0  0  0  0
  8  9  1  0  0  0  0
  9 10  1  0  0  0  0
  9 35  2  0  0  0  0
 10 11  2  0  0  0  0
 10 46  1  0  0  0  0
 11 12  1  0  0  0  0
 11 47  1  0  0  0  0
 12 13  1  0  0  0  0
 12 34  2  0  0  0  0
 13 14  1  0  0  0  0
 13 48  1  0  0  0  0
 14 15  2  0  0  0  0
 14 16  1  0  0  0  0
 16 17  2  0  0  0  0
 16 32  1  0  0  0  0
 17 18  1  0  0  0  0
 17 19  1  0  0  0  0
 18 49  1  0  0  0  0
 18 50  1  0  0  0  0
 18 51  1  0  0  0  0
 19 20  1  0  0  0  0
 19 25  1  0  0  0  0
 20 21  1  0  0  0  0
 20 52  1  0  0  0  0
 20 53  1  0  0  0  0
 21 22  1  0  0  0  0
 21 23  1  0  0  0  0
 21 24  1  0  0  0  0
 22 54  1  0  0  0  0
 22 55  1  0  0  0  0
 22 56  1  0  0  0  0
 23 57  1  0  0  0  0
 23 58  1  0  0  0  0
 23 59  1  0  0  0  0
 24 60  1  0  0  0  0
 25 26  1  0  0  0  0
 25 32  1  0  0  0  0
 26 27  1  0  0  0  0
 26 31  2  0  0  0  0
 27 28  2  0  0  0  0
 27 61  1  0  0  0  0
 28 29  1  0  0  0  0
 28 62  1  0  0  0  0
 29 30  2  0  0  0  0
 29 63  1  0  0  0  0
 30 31  1  0  0  0  0
 30 64  1  0  0  0  0
 31 65  1  0  0  0  0
 32 33  2  0  0  0  0
 34 35  1  0  0  0  0
 35 66  1  0  0  0  0
 36 37  1  0  0  0  0
 36 67  1  0  0  0  0
 37 38  2  0  0  0  0
 37 68  1  0  0  0  0
 38 39  1  0  0  0  0
 39 40  1  0  0  0  0
 40 69  1  0  0  0  0
M  END
$$$$
