CHEMBL1683648
 OpenBabel04072215363D

 65 67  0  0  1  0  0  0  0  0999 V2000
    5.7235   -2.9488    2.8499 C   0  0  0  0  0  0  0  0  0  0  0  0
    5.7348   -3.5936    1.4842 C   0  0  0  0  0  0  0  0  0  0  0  0
    6.1670   -2.8959    0.4068 C   0  0  0  0  0  0  0  0  0  0  0  0
    5.1486   -1.9310   -0.2116 C   0  0  0  0  0  0  0  0  0  0  0  0
    3.7246   -2.3052    0.2396 C   0  0  2  0  0  0  0  0  0  0  0  0
    3.5561   -3.8543    0.2487 C   0  0  1  0  0  0  0  0  0  0  0  0
    4.5399   -4.5059    1.2529 C   0  0  0  0  0  0  0  0  0  0  0  0
    2.1049   -4.2345    0.4244 C   0  0  0  0  0  0  0  0  0  0  0  0
    1.6751   -5.5614    0.3840 C   0  0  0  0  0  0  0  0  0  0  0  0
    2.5839   -6.5739    0.4871 O   0  0  0  0  0  0  0  0  0  0  0  0
    0.3464   -5.8743    0.0743 C   0  0  0  0  0  0  0  0  0  0  0  0
   -0.5819   -4.8384   -0.1275 C   0  0  0  0  0  0  0  0  0  0  0  0
   -1.7384   -4.9388   -1.1415 C   0  0  0  0  0  0  0  0  0  0  0  0
   -2.2920   -6.3665   -1.2854 C   0  0  0  0  0  0  0  0  0  0  0  0
   -2.9529   -4.0730   -0.7291 C   0  0  0  0  0  0  0  0  0  0  0  0
   -1.1776   -4.3290   -2.4877 C   0  0  0  0  0  0  0  0  0  0  0  0
    0.0610   -4.9652   -3.1552 C   0  0  0  0  0  0  0  0  0  0  0  0
   -0.1534   -6.3099   -3.8463 C   0  0  0  0  0  0  0  0  0  0  0  0
   -1.3336   -6.3183   -4.8178 C   0  0  0  0  0  0  0  0  0  0  0  0
   -1.0451   -5.4432   -6.0360 C   0  0  0  0  0  0  0  0  0  0  0  0
   -2.2555   -5.3259   -6.9405 C   0  0  0  0  0  0  0  0  0  0  0  0
   -1.7760   -4.2953   -8.5221 Br  0  0  0  0  0  0  0  0  0  0  0  0
   -0.2143   -3.5481    0.2731 C   0  0  0  0  0  0  0  0  0  0  0  0
    1.1297   -3.2430    0.4016 C   0  0  0  0  0  0  0  0  0  0  0  0
    1.3848   -1.9007    0.2893 O   0  0  0  0  0  0  0  0  0  0  0  0
    2.5617   -1.6169   -0.4972 C   0  0  0  0  0  0  0  0  0  0  0  0
    2.3245   -2.0263   -1.9664 C   0  0  0  0  0  0  0  0  0  0  0  0
    2.6972   -0.0886   -0.4693 C   0  0  0  0  0  0  0  0  0  0  0  0
    6.0651   -3.6662    3.6008 H   0  0  0  0  0  0  0  0  0  0  0  0
    4.7146   -2.6230    3.1316 H   0  0  0  0  0  0  0  0  0  0  0  0
    6.3784   -2.0733    2.8882 H   0  0  0  0  0  0  0  0  0  0  0  0
    6.4953   -3.5277   -0.4296 H   0  0  0  0  0  0  0  0  0  0  0  0
    5.3970   -0.9082    0.0931 H   0  0  0  0  0  0  0  0  0  0  0  0
    5.2266   -1.9751   -1.3047 H   0  0  0  0  0  0  0  0  0  0  0  0
    3.6228   -1.9747    1.2830 H   0  0  0  0  0  0  0  0  0  0  0  0
    3.8394   -4.2099   -0.7585 H   0  0  0  0  0  0  0  0  0  0  0  0
    4.0305   -4.7194    2.1964 H   0  0  0  0  0  0  0  0  0  0  0  0
    4.8992   -5.4747    0.8695 H   0  0  0  0  0  0  0  0  0  0  0  0
    2.2169   -7.2021    1.1333 H   0  0  0  0  0  0  0  0  0  0  0  0
    0.1148   -6.9012   -0.1949 H   0  0  0  0  0  0  0  0  0  0  0  0
   -1.5562   -7.1072   -1.5946 H   0  0  0  0  0  0  0  0  0  0  0  0
   -2.6913   -6.7211   -0.3248 H   0  0  0  0  0  0  0  0  0  0  0  0
   -3.1090   -6.3993   -2.0141 H   0  0  0  0  0  0  0  0  0  0  0  0
   -3.3077   -4.3371    0.2677 H   0  0  0  0  0  0  0  0  0  0  0  0
   -2.7319   -2.9989   -0.7378 H   0  0  0  0  0  0  0  0  0  0  0  0
   -3.7789   -4.2089   -1.4382 H   0  0  0  0  0  0  0  0  0  0  0  0
   -1.9882   -4.2310   -3.2144 H   0  0  0  0  0  0  0  0  0  0  0  0
   -0.8861   -3.2842   -2.2903 H   0  0  0  0  0  0  0  0  0  0  0  0
    0.8921   -5.0607   -2.4517 H   0  0  0  0  0  0  0  0  0  0  0  0
    0.4336   -4.2514   -3.9022 H   0  0  0  0  0  0  0  0  0  0  0  0
   -0.2738   -7.0998   -3.1036 H   0  0  0  0  0  0  0  0  0  0  0  0
    0.7632   -6.5760   -4.3884 H   0  0  0  0  0  0  0  0  0  0  0  0
   -1.5188   -7.3484   -5.1412 H   0  0  0  0  0  0  0  0  0  0  0  0
   -2.2535   -5.9943   -4.3201 H   0  0  0  0  0  0  0  0  0  0  0  0
   -0.1955   -5.8706   -6.5824 H   0  0  0  0  0  0  0  0  0  0  0  0
   -0.7422   -4.4368   -5.7251 H   0  0  0  0  0  0  0  0  0  0  0  0
   -3.0736   -4.7889   -6.4528 H   0  0  0  0  0  0  0  0  0  0  0  0
   -2.6065   -6.2999   -7.2898 H   0  0  0  0  0  0  0  0  0  0  0  0
   -0.8972   -2.7085    0.1782 H   0  0  0  0  0  0  0  0  0  0  0  0
    1.3610   -1.6312   -2.3176 H   0  0  0  0  0  0  0  0  0  0  0  0
    3.1110   -1.6546   -2.6274 H   0  0  0  0  0  0  0  0  0  0  0  0
    2.2640   -3.1090   -2.1055 H   0  0  0  0  0  0  0  0  0  0  0  0
    1.7575    0.3865   -0.7778 H   0  0  0  0  0  0  0  0  0  0  0  0
    3.4918    0.2616   -1.1353 H   0  0  0  0  0  0  0  0  0  0  0  0
    2.9035    0.2707    0.5444 H   0  0  0  0  0  0  0  0  0  0  0  0
  1  2  1  0  0  0  0
  1 29  1  0  0  0  0
  1 30  1  0  0  0  0
  1 31  1  0  0  0  0
  2  3  2  3  0  0  0
  2  7  1  0  0  0  0
  3  4  1  0  0  0  0
  3 32  1  0  0  0  0
  4  5  1  0  0  0  0
  4 33  1  0  0  0  0
  4 34  1  0  0  0  0
  5  6  1  0  0  0  0
  5 26  1  0  0  0  0
  5 35  1  1  0  0  0
  6  7  1  0  0  0  0
  6  8  1  0  0  0  0
  6 36  1  6  0  0  0
  7 37  1  0  0  0  0
  7 38  1  0  0  0  0
  8  9  1  0  0  0  0
  8 24  2  0  0  0  0
  9 10  1  0  0  0  0
  9 11  2  0  0  0  0
 10 39  1  0  0  0  0
 11 12  1  0  0  0  0
 11 40  1  0  0  0  0
 12 13  1  0  0  0  0
 12 23  2  0  0  0  0
 13 14  1  0  0  0  0
 13 15  1  0  0  0  0
 13 16  1  0  0  0  0
 14 41  1  0  0  0  0
 14 42  1  0  0  0  0
 14 43  1  0  0  0  0
 15 44  1  0  0  0  0
 15 45  1  0  0  0  0
 15 46  1  0  0  0  0
 16 17  1  0  0  0  0
 16 47  1  0  0  0  0
 16 48  1  0  0  0  0
 17 18  1  0  0  0  0
 17 49  1  0  0  0  0
 17 50  1  0  0  0  0
 18 19  1  0  0  0  0
 18 51  1  0  0  0  0
 18 52  1  0  0  0  0
 19 20  1  0  0  0  0
 19 53  1  0  0  0  0
 19 54  1  0  0  0  0
 20 21  1  0  0  0  0
 20 55  1  0  0  0  0
 20 56  1  0  0  0  0
 21 22  1  0  0  0  0
 21 57  1  0  0  0  0
 21 58  1  0  0  0  0
 23 24  1  0  0  0  0
 23 59  1  0  0  0  0
 24 25  1  0  0  0  0
 25 26  1  0  0  0  0
 26 27  1  0  0  0  0
 26 28  1  0  0  0  0
 27 60  1  0  0  0  0
 27 61  1  0  0  0  0
 27 62  1  0  0  0  0
 28 63  1  0  0  0  0
 28 64  1  0  0  0  0
 28 65  1  0  0  0  0
M  END
$$$$
