CHEMBL2113065
 OpenBabel04072215363D

 54 61  0  0  1  0  0  0  0  0999 V2000
    1.0031    0.0377   -0.5424 C   0  0  0  0  0  0  0  0  0  0  0  0
    2.5296    0.1010   -0.3863 C   0  0  2  0  0  0  0  0  0  0  0  0
    2.8898   -1.2663   -0.0307 O   0  0  0  0  0  0  0  0  0  0  0  0
    4.1863   -1.2093    0.5734 C   0  0  2  0  0  0  0  0  0  0  0  0
    4.3485    0.2105    1.1803 C   0  0  0  0  0  0  0  0  0  0  0  0
    3.0111    0.8906    0.8662 C   0  0  2  0  0  0  0  0  0  0  0  0
    2.1388    0.6703    2.0015 O   0  0  0  0  0  0  0  0  0  0  0  0
    3.1118    2.4261    0.7257 C   0  0  0  0  0  0  0  0  0  0  0  0
    1.9626    3.1090    0.4278 N   0  0  0  0  0  0  0  0  0  0  0  0
    4.1390    3.0643    0.9481 O   0  0  0  0  0  0  0  0  0  0  0  0
    5.1055   -1.5148   -0.4988 N   0  0  0  0  0  0  0  0  0  0  0  0
    6.2515   -2.3261   -0.5089 C   0  0  0  0  0  0  0  0  0  0  0  0
    6.4772   -3.5505    0.1436 C   0  0  0  0  0  0  0  0  0  0  0  0
    7.7181   -4.1793   -0.0088 C   0  0  0  0  0  0  0  0  0  0  0  0
    8.7371   -3.5935   -0.7495 C   0  0  0  0  0  0  0  0  0  0  0  0
    8.5422   -2.3701   -1.3965 C   0  0  0  0  0  0  0  0  0  0  0  0
    7.2903   -1.7210   -1.3286 C   0  0  0  0  0  0  0  0  0  0  0  0
    6.7556   -0.5350   -1.8876 C   0  0  0  0  0  0  0  0  0  0  0  0
    7.4215    0.5204   -2.5548 C   0  0  0  0  0  0  0  0  0  0  0  0
    6.5911    1.6504   -2.7790 C   0  0  0  0  0  0  0  0  0  0  0  0
    5.2569    1.4673   -2.4196 C   0  0  0  0  0  0  0  0  0  0  0  0
    4.2322    2.4171   -2.4510 C   0  0  0  0  0  0  0  0  0  0  0  0
    4.1302    3.8155   -2.5098 C   0  0  0  0  0  0  0  0  0  0  0  0
    2.8938    4.3848   -2.8076 C   0  0  0  0  0  0  0  0  0  0  0  0
    1.8252    3.5734   -3.1819 C   0  0  0  0  0  0  0  0  0  0  0  0
    1.8558    2.1900   -2.9702 C   0  0  0  0  0  0  0  0  0  0  0  0
    3.0078    1.6608   -2.3745 C   0  0  0  0  0  0  0  0  0  0  0  0
    3.2370    0.4670   -1.6325 N   0  0  0  0  0  0  0  0  0  0  0  0
    4.5879    0.3918   -1.8499 C   0  0  0  0  0  0  0  0  0  0  0  0
    5.4382   -0.6126   -1.4397 C   0  0  0  0  0  0  0  0  0  0  0  0
    7.3143    2.7325   -3.4301 C   0  0  0  0  0  0  0  0  0  0  0  0
    8.6324    2.1203   -3.5007 N   0  0  0  0  0  0  0  0  0  0  0  0
    8.7391    0.8174   -2.9987 C   0  0  0  0  0  0  0  0  0  0  0  0
    9.7885    0.2095   -3.0246 O   0  0  0  0  0  0  0  0  0  0  0  0
    0.5186   -0.2085    0.4109 H   0  0  0  0  0  0  0  0  0  0  0  0
    0.7168   -0.7665   -1.2292 H   0  0  0  0  0  0  0  0  0  0  0  0
    0.5560    0.9638   -0.9032 H   0  0  0  0  0  0  0  0  0  0  0  0
    4.2709   -1.9820    1.3425 H   0  0  0  0  0  0  0  0  0  0  0  0
    5.2056    0.7538    0.7609 H   0  0  0  0  0  0  0  0  0  0  0  0
    4.5420    0.1536    2.2562 H   0  0  0  0  0  0  0  0  0  0  0  0
    2.2365   -0.2527    2.2913 H   0  0  0  0  0  0  0  0  0  0  0  0
    2.0581    4.1082    0.2990 H   0  0  0  0  0  0  0  0  0  0  0  0
    1.1701    2.6815   -0.0244 H   0  0  0  0  0  0  0  0  0  0  0  0
    5.6939   -4.0335    0.7215 H   0  0  0  0  0  0  0  0  0  0  0  0
    7.8888   -5.1465    0.4591 H   0  0  0  0  0  0  0  0  0  0  0  0
    9.6958   -4.0984   -0.8493 H   0  0  0  0  0  0  0  0  0  0  0  0
    9.3486   -1.9523   -1.9854 H   0  0  0  0  0  0  0  0  0  0  0  0
    4.9867    4.4400   -2.2738 H   0  0  0  0  0  0  0  0  0  0  0  0
    2.7890    5.4664   -2.8050 H   0  0  0  0  0  0  0  0  0  0  0  0
    0.9352    4.0306   -3.6071 H   0  0  0  0  0  0  0  0  0  0  0  0
    1.0178    1.5605   -3.2520 H   0  0  0  0  0  0  0  0  0  0  0  0
    7.3616    3.6319   -2.8154 H   0  0  0  0  0  0  0  0  0  0  0  0
    6.9500    2.9311   -4.4355 H   0  0  0  0  0  0  0  0  0  0  0  0
    9.4439    2.5683   -3.8842 H   0  0  0  0  0  0  0  0  0  0  0  0
  1 35  1  0  0  0  0
  1 36  1  0  0  0  0
  1 37  1  0  0  0  0
  2  1  1  6  0  0  0
  2  3  1  0  0  0  0
  2  6  1  0  0  0  0
  2 28  1  0  0  0  0
  3  4  1  0  0  0  0
  4  5  1  0  0  0  0
  4 11  1  0  0  0  0
  4 38  1  1  0  0  0
  5  6  1  0  0  0  0
  5 39  1  0  0  0  0
  5 40  1  0  0  0  0
  6  8  1  6  0  0  0
  6  7  1  0  0  0  0
  7 41  1  0  0  0  0
  8  9  1  0  0  0  0
  8 10  2  0  0  0  0
  9 42  1  0  0  0  0
  9 43  1  0  0  0  0
 11 12  1  0  0  0  0
 11 30  1  0  0  0  0
 12 13  1  0  0  0  0
 12 17  2  0  0  0  0
 13 14  2  0  0  0  0
 13 44  1  0  0  0  0
 14 15  1  0  0  0  0
 14 45  1  0  0  0  0
 15 16  2  0  0  0  0
 15 46  1  0  0  0  0
 16 17  1  0  0  0  0
 16 47  1  0  0  0  0
 17 18  1  0  0  0  0
 18 19  1  0  0  0  0
 18 30  2  0  0  0  0
 19 20  2  0  0  0  0
 19 33  1  0  0  0  0
 20 21  1  0  0  0  0
 20 31  1  0  0  0  0
 21 22  1  0  0  0  0
 21 29  2  0  0  0  0
 22 23  1  0  0  0  0
 22 27  2  0  0  0  0
 23 24  2  0  0  0  0
 23 48  1  0  0  0  0
 24 25  1  0  0  0  0
 24 49  1  0  0  0  0
 25 26  2  0  0  0  0
 25 50  1  0  0  0  0
 26 27  1  0  0  0  0
 26 51  1  0  0  0  0
 27 28  1  0  0  0  0
 28 29  1  0  0  0  0
 29 30  1  0  0  0  0
 31 32  1  0  0  0  0
 31 52  1  0  0  0  0
 31 53  1  0  0  0  0
 32 33  1  0  0  0  0
 32 54  1  0  0  0  0
 33 34  2  0  0  0  0
M  END
$$$$
