CHEMBL3956164
 OpenBabel04072215373D

 61 65  0  0  0  0  0  0  0  0999 V2000
    0.9945   -0.0663    0.0415 C   0  0  0  0  0  0  0  0  0  0  0  0
    2.1602    0.6703   -0.3100 O   0  0  0  0  0  0  0  0  0  0  0  0
    2.9148    1.1193    0.7405 C   0  0  0  0  0  0  0  0  0  0  0  0
    2.6309    0.9488    2.0596 C   0  0  0  0  0  0  0  0  0  0  0  0
    3.5540    1.3265    3.0237 C   0  0  0  0  0  0  0  0  0  0  0  0
    3.3533    1.0876    4.3589 O   0  0  0  0  0  0  0  0  0  0  0  0
    2.1244    0.4190    4.6480 C   0  0  0  0  0  0  0  0  0  0  0  0
    4.7685    1.9224    2.6579 C   0  0  0  0  0  0  0  0  0  0  0  0
    5.1632    2.0882    1.3227 C   0  0  0  0  0  0  0  0  0  0  0  0
    6.4681    2.5682    1.0640 N   0  0  0  0  0  0  0  0  0  0  0  0
    7.1905    2.1886   -0.2769 C   0  0  0  0  0  0  0  0  0  0  0  0
    6.7885    3.0549   -1.4405 C   0  0  0  0  0  0  0  0  0  0  0  0
    7.3474    2.8608   -2.8757 C   0  0  0  0  0  0  0  0  0  0  0  0
    7.5196    4.1757   -2.1728 C   0  0  0  0  0  0  0  0  0  0  0  0
    7.5200    2.9276    2.0605 C   0  0  0  0  0  0  0  0  0  0  0  0
    8.3487    3.9549    1.7037 C   0  0  0  0  0  0  0  0  0  0  0  0
    9.3327    4.2719    2.5846 C   0  0  0  0  0  0  0  0  0  0  0  0
    9.6802    3.5812    3.6711 C   0  0  0  0  0  0  0  0  0  0  0  0
   10.9345    3.4974    3.6027 N   0  0  0  0  0  0  0  0  0  0  0  0
   11.4674    4.4826    4.2593 C   0  0  0  0  0  0  0  0  0  0  0  0
   11.5148    4.2474    5.5316 C   0  0  0  0  0  0  0  0  0  0  0  0
   12.9633    5.1516    6.1028 C   0  0  0  0  0  0  0  0  0  0  0  0
   13.6136    5.1795    7.3130 C   0  0  0  0  0  0  0  0  0  0  0  0
   14.5075    6.1522    7.6309 N   0  0  0  0  0  0  0  0  0  0  0  0
   14.5774    6.9439    6.5475 N   0  0  0  0  0  0  0  0  0  0  0  0
   15.5286    8.1290    6.5629 C   0  0  0  0  0  0  0  0  0  0  0  0
   16.9348    7.7399    6.0384 C   0  0  0  0  0  0  0  0  0  0  0  0
   17.9388    8.8240    5.9954 N   0  0  0  0  0  0  0  0  0  0  0  0
   13.5937    6.4491    5.5712 C   0  0  0  0  0  0  0  0  0  0  0  0
   10.2569    3.1911    5.8101 N   0  0  0  0  0  0  0  0  0  0  0  0
    9.1166    2.9062    4.5855 C   0  0  0  0  0  0  0  0  0  0  0  0
    7.8055    2.3293    3.4874 C   0  0  0  0  0  0  0  0  0  0  0  0
    4.1272    1.7580    0.3925 C   0  0  0  0  0  0  0  0  0  0  0  0
    0.5810   -0.5104   -0.8614 H   0  0  0  0  0  0  0  0  0  0  0  0
    0.2624    0.6202    0.4743 H   0  0  0  0  0  0  0  0  0  0  0  0
    1.2118   -0.8932    0.7347 H   0  0  0  0  0  0  0  0  0  0  0  0
    1.6870    0.5016    2.3171 H   0  0  0  0  0  0  0  0  0  0  0  0
    2.0678    0.2543    5.7214 H   0  0  0  0  0  0  0  0  0  0  0  0
    2.0703   -0.5624    4.1537 H   0  0  0  0  0  0  0  0  0  0  0  0
    1.2720    1.0446    4.3535 H   0  0  0  0  0  0  0  0  0  0  0  0
    5.4111    2.2592    3.4606 H   0  0  0  0  0  0  0  0  0  0  0  0
    6.9980    1.1150   -0.5301 H   0  0  0  0  0  0  0  0  0  0  0  0
    8.2437    2.3143   -0.1290 H   0  0  0  0  0  0  0  0  0  0  0  0
    5.8865    3.4924   -1.1203 H   0  0  0  0  0  0  0  0  0  0  0  0
    6.6826    2.8504   -3.7422 H   0  0  0  0  0  0  0  0  0  0  0  0
    8.2127    2.2263   -3.0935 H   0  0  0  0  0  0  0  0  0  0  0  0
    6.8536    4.9716   -2.5199 H   0  0  0  0  0  0  0  0  0  0  0  0
    8.4199    4.5684   -1.7302 H   0  0  0  0  0  0  0  0  0  0  0  0
    8.4089    4.4406    0.7488 H   0  0  0  0  0  0  0  0  0  0  0  0
   10.0854    5.0004    2.2530 H   0  0  0  0  0  0  0  0  0  0  0  0
   11.9322    5.2254    3.6947 H   0  0  0  0  0  0  0  0  0  0  0  0
   13.3833    4.5467    8.1468 H   0  0  0  0  0  0  0  0  0  0  0  0
   15.6520    8.5148    7.5960 H   0  0  0  0  0  0  0  0  0  0  0  0
   15.1542    8.9713    5.9826 H   0  0  0  0  0  0  0  0  0  0  0  0
   16.8205    7.3521    5.0256 H   0  0  0  0  0  0  0  0  0  0  0  0
   17.3342    6.9542    6.6803 H   0  0  0  0  0  0  0  0  0  0  0  0
   17.6568    9.5603    5.3538 H   0  0  0  0  0  0  0  0  0  0  0  0
   18.8113    8.4463    5.6133 H   0  0  0  0  0  0  0  0  0  0  0  0
   13.4540    7.1881    4.7897 H   0  0  0  0  0  0  0  0  0  0  0  0
    7.2032    1.4339    3.5840 H   0  0  0  0  0  0  0  0  0  0  0  0
    4.0713    1.9824   -0.6572 H   0  0  0  0  0  0  0  0  0  0  0  0
  1  2  1  0  0  0  0
  1 34  1  0  0  0  0
  1 35  1  0  0  0  0
  1 36  1  0  0  0  0
  2  3  1  0  0  0  0
  3  4  1  0  0  0  0
  3 33  2  0  0  0  0
  4  5  2  0  0  0  0
  4 37  1  0  0  0  0
  5  6  1  0  0  0  0
  5  8  1  0  0  0  0
  6  7  1  0  0  0  0
  7 38  1  0  0  0  0
  7 39  1  0  0  0  0
  7 40  1  0  0  0  0
  8  9  2  0  0  0  0
  8 41  1  0  0  0  0
  9 10  1  0  0  0  0
  9 33  1  0  0  0  0
 10 11  1  0  0  0  0
 10 15  1  0  0  0  0
 11 12  1  0  0  0  0
 11 42  1  0  0  0  0
 11 43  1  0  0  0  0
 12 13  1  0  0  0  0
 12 14  1  0  0  0  0
 12 44  1  0  0  0  0
 13 14  1  0  0  0  0
 13 45  1  0  0  0  0
 13 46  1  0  0  0  0
 14 47  1  0  0  0  0
 14 48  1  0  0  0  0
 15 16  1  0  0  0  0
 15 32  2  0  0  0  0
 16 17  2  0  0  0  0
 16 49  1  0  0  0  0
 17 18  1  0  0  0  0
 17 50  1  0  0  0  0
 18 19  1  0  0  0  0
 18 31  2  0  0  0  0
 19 20  2  0  0  0  0
 20 21  1  0  0  0  0
 20 51  1  0  0  0  0
 21 22  1  0  0  0  0
 21 30  2  0  0  0  0
 22 23  1  0  0  0  0
 22 29  2  0  0  0  0
 23 24  2  0  0  0  0
 23 52  1  0  0  0  0
 24 25  1  0  0  0  0
 25 26  1  0  0  0  0
 25 29  1  0  0  0  0
 26 27  1  0  0  0  0
 26 53  1  0  0  0  0
 26 54  1  0  0  0  0
 27 28  1  0  0  0  0
 27 55  1  0  0  0  0
 27 56  1  0  0  0  0
 28 57  1  0  0  0  0
 28 58  1  0  0  0  0
 29 59  1  0  0  0  0
 30 31  1  0  0  0  0
 31 32  1  0  0  0  0
 32 60  1  0  0  0  0
 33 61  1  0  0  0  0
M  END
$$$$
