CHEMBL442273
 OpenBabel04072215383D

 38 41  0  0  0  0  0  0  0  0999 V2000
    2.5964   -1.2898    3.0324 C   0  0  0  0  0  0  0  0  0  0  0  0
    2.4348   -2.0014    1.8060 O   0  0  0  0  0  0  0  0  0  0  0  0
    2.9069   -1.2468    0.6964 C   0  0  0  0  0  0  0  0  0  0  0  0
    4.4166   -1.0027    0.7173 C   0  0  0  0  0  0  0  0  0  0  0  0
    4.8637    0.1417    0.7051 O   0  0  0  0  0  0  0  0  0  0  0  0
    5.1538   -2.1805    0.7338 N   0  0  0  0  0  0  0  0  0  0  0  0
    6.5564   -2.2704    0.8550 C   0  0  0  0  0  0  0  0  0  0  0  0
    7.3422   -1.2072    1.3309 C   0  0  0  0  0  0  0  0  0  0  0  0
    8.7466   -1.2931    1.4175 C   0  0  0  0  0  0  0  0  0  0  0  0
    9.4126   -2.4476    1.0288 C   0  0  0  0  0  0  0  0  0  0  0  0
    8.6359   -3.4973    0.5914 C   0  0  0  0  0  0  0  0  0  0  0  0
    7.2145   -3.4455    0.5080 C   0  0  0  0  0  0  0  0  0  0  0  0
    6.6095   -4.7528   -0.0343 C   0  0  0  0  0  0  0  0  0  0  0  0
    7.8782   -5.5020   -0.2531 C   0  0  0  0  0  0  0  0  0  0  0  0
    9.0199   -4.7792    0.1141 C   0  0  0  0  0  0  0  0  0  0  0  0
   10.1598   -5.4237   -0.0772 N   0  0  0  0  0  0  0  0  0  0  0  0
    9.7271   -6.6092   -0.5791 N   0  0  0  0  0  0  0  0  0  0  0  0
    8.3545   -6.7058   -0.7054 C   0  0  0  0  0  0  0  0  0  0  0  0
    7.5970   -7.8755   -1.2226 C   0  0  0  0  0  0  0  0  0  0  0  0
    6.1819   -7.9330   -1.3909 C   0  0  0  0  0  0  0  0  0  0  0  0
    5.7612   -9.1497   -1.8827 C   0  0  0  0  0  0  0  0  0  0  0  0
    7.0657  -10.2222   -2.1426 S   0  0  0  0  0  0  0  0  0  0  0  0
    8.2001   -9.0565   -1.6019 C   0  0  0  0  0  0  0  0  0  0  0  0
    2.1190   -1.8658    3.8292 H   0  0  0  0  0  0  0  0  0  0  0  0
    2.1223   -0.3043    2.9800 H   0  0  0  0  0  0  0  0  0  0  0  0
    3.6576   -1.1830    3.2768 H   0  0  0  0  0  0  0  0  0  0  0  0
    2.3830   -0.2847    0.6425 H   0  0  0  0  0  0  0  0  0  0  0  0
    2.6634   -1.7983   -0.2185 H   0  0  0  0  0  0  0  0  0  0  0  0
    4.6363   -3.0368    0.5864 H   0  0  0  0  0  0  0  0  0  0  0  0
    6.8847   -0.2817    1.6705 H   0  0  0  0  0  0  0  0  0  0  0  0
    9.3092   -0.4395    1.7871 H   0  0  0  0  0  0  0  0  0  0  0  0
   10.4948   -2.5244    1.0654 H   0  0  0  0  0  0  0  0  0  0  0  0
    6.0727   -4.5783   -0.9697 H   0  0  0  0  0  0  0  0  0  0  0  0
    5.9796   -5.2329    0.7195 H   0  0  0  0  0  0  0  0  0  0  0  0
   10.4231   -7.3039   -0.8216 H   0  0  0  0  0  0  0  0  0  0  0  0
    5.4922   -7.1299   -1.1701 H   0  0  0  0  0  0  0  0  0  0  0  0
    4.7488   -9.4600   -2.1019 H   0  0  0  0  0  0  0  0  0  0  0  0
    9.2477   -9.3204   -1.5908 H   0  0  0  0  0  0  0  0  0  0  0  0
  1  2  1  0  0  0  0
  1 24  1  0  0  0  0
  1 25  1  0  0  0  0
  1 26  1  0  0  0  0
  2  3  1  0  0  0  0
  3  4  1  0  0  0  0
  3 27  1  0  0  0  0
  3 28  1  0  0  0  0
  4  5  2  0  0  0  0
  4  6  1  0  0  0  0
  6  7  1  0  0  0  0
  6 29  1  0  0  0  0
  7  8  1  0  0  0  0
  7 12  2  0  0  0  0
  8  9  2  0  0  0  0
  8 30  1  0  0  0  0
  9 10  1  0  0  0  0
  9 31  1  0  0  0  0
 10 11  2  0  0  0  0
 10 32  1  0  0  0  0
 11 12  1  0  0  0  0
 11 15  1  0  0  0  0
 12 13  1  0  0  0  0
 13 14  1  0  0  0  0
 13 33  1  0  0  0  0
 13 34  1  0  0  0  0
 14 15  1  0  0  0  0
 14 18  2  0  0  0  0
 15 16  2  0  0  0  0
 16 17  1  0  0  0  0
 17 18  1  0  0  0  0
 17 35  1  0  0  0  0
 18 19  1  0  0  0  0
 19 20  1  0  0  0  0
 19 23  2  0  0  0  0
 20 21  2  0  0  0  0
 20 36  1  0  0  0  0
 21 22  1  0  0  0  0
 21 37  1  0  0  0  0
 22 23  1  0  0  0  0
 23 38  1  0  0  0  0
M  END
$$$$
