CHEMBL3905501
 OpenBabel04072215373D

 57 61  0  0  1  0  0  0  0  0999 V2000
    0.8426    2.9448   -4.8014 C   0  0  0  0  0  0  0  0  0  0  0  0
    1.1306    4.2940   -5.1414 O   0  0  0  0  0  0  0  0  0  0  0  0
    0.0956    5.1856   -5.0687 C   0  0  0  0  0  0  0  0  0  0  0  0
    0.1608    6.1846   -6.0483 C   0  0  0  0  0  0  0  0  0  0  0  0
   -0.8187    7.2033   -6.1266 C   0  0  0  0  0  0  0  0  0  0  0  0
   -0.8712    8.2247   -7.0910 C   0  0  0  0  0  0  0  0  0  0  0  0
    0.0638    8.2231   -8.1458 N   0  0  0  0  0  0  0  0  0  0  0  0
    0.6011    9.3437   -8.8183 C   0  0  0  0  0  0  0  0  0  0  0  0
    0.7726   10.5566   -8.1377 C   0  0  0  0  0  0  0  0  0  0  0  0
    1.5106   11.5957   -8.6986 C   0  0  0  0  0  0  0  0  0  0  0  0
    2.0816   11.4432   -9.9630 C   0  0  0  0  0  0  0  0  0  0  0  0
    3.1865   12.8656  -10.5747 Br  0  0  0  0  0  0  0  0  0  0  0  0
    1.8696   10.2683  -10.6999 C   0  0  0  0  0  0  0  0  0  0  0  0
    2.5358   10.0963  -12.2951 Cl  0  0  0  0  0  0  0  0  0  0  0  0
    1.1305    9.2204  -10.1205 C   0  0  0  0  0  0  0  0  0  0  0  0
    0.8459    7.7310  -10.9807 Cl  0  0  0  0  0  0  0  0  0  0  0  0
   -1.7974    9.1990   -7.0585 N   0  0  0  0  0  0  0  0  0  0  0  0
   -2.6987    9.1394   -6.0735 C   0  0  0  0  0  0  0  0  0  0  0  0
   -2.7567    8.2109   -5.1196 N   0  0  0  0  0  0  0  0  0  0  0  0
   -1.8130    7.2630   -5.1518 C   0  0  0  0  0  0  0  0  0  0  0  0
   -1.8466    6.2931   -4.1713 C   0  0  0  0  0  0  0  0  0  0  0  0
   -0.9434    5.2162   -4.1353 C   0  0  0  0  0  0  0  0  0  0  0  0
   -1.0389    4.2315   -3.1776 O   0  0  0  0  0  0  0  0  0  0  0  0
   -2.3528    4.0880   -2.6219 C   0  0  0  0  0  0  0  0  0  0  0  0
   -2.5664    2.7342   -1.9513 C   0  0  2  0  0  0  0  0  0  0  0  0
   -2.2149    1.5802   -2.9090 C   0  0  0  0  0  0  0  0  0  0  0  0
   -2.5658    0.2830   -2.3034 N   0  0  3  0  0  0  0  0  0  0  0  0
   -2.2150   -0.8384   -3.1883 C   0  0  0  0  0  0  0  0  0  0  0  0
   -2.8628   -2.1783   -2.7855 C   0  0  0  0  0  0  0  0  0  0  0  0
   -4.2591   -2.0609   -2.4818 O   0  0  0  0  0  0  0  0  0  0  0  0
   -4.4644   -1.0652   -1.4696 C   0  0  0  0  0  0  0  0  0  0  0  0
   -4.0217    0.2973   -2.0057 C   0  0  1  0  0  0  0  0  0  0  0  0
   -4.3147    1.4236   -1.0032 C   0  0  0  0  0  0  0  0  0  0  0  0
   -3.9566    2.6980   -1.5545 O   0  0  0  0  0  0  0  0  0  0  0  0
    1.5238    2.3076   -5.3759 H   0  0  0  0  0  0  0  0  0  0  0  0
   -0.1763    2.6533   -5.0751 H   0  0  0  0  0  0  0  0  0  0  0  0
    1.0412    2.7687   -3.7406 H   0  0  0  0  0  0  0  0  0  0  0  0
    0.9862    6.1653   -6.7564 H   0  0  0  0  0  0  0  0  0  0  0  0
   -0.0816    7.4206   -8.7518 H   0  0  0  0  0  0  0  0  0  0  0  0
    0.3694   10.6880   -7.1354 H   0  0  0  0  0  0  0  0  0  0  0  0
    1.6556   12.5078   -8.1239 H   0  0  0  0  0  0  0  0  0  0  0  0
   -3.4601    9.9127   -6.0561 H   0  0  0  0  0  0  0  0  0  0  0  0
   -2.6253    6.4040   -3.4224 H   0  0  0  0  0  0  0  0  0  0  0  0
   -3.1189    4.1876   -3.4039 H   0  0  0  0  0  0  0  0  0  0  0  0
   -2.5213    4.8736   -1.8733 H   0  0  0  0  0  0  0  0  0  0  0  0
   -1.9404    2.6693   -1.0502 H   0  0  0  0  0  0  0  0  0  0  0  0
   -1.1451    1.5998   -3.1336 H   0  0  0  0  0  0  0  0  0  0  0  0
   -2.7605    1.7132   -3.8549 H   0  0  0  0  0  0  0  0  0  0  0  0
   -1.1254   -0.9685   -3.1723 H   0  0  0  0  0  0  0  0  0  0  0  0
   -2.5010   -0.6112   -4.2220 H   0  0  0  0  0  0  0  0  0  0  0  0
   -2.3534   -2.6198   -1.9219 H   0  0  0  0  0  0  0  0  0  0  0  0
   -2.7714   -2.8825   -3.6193 H   0  0  0  0  0  0  0  0  0  0  0  0
   -3.9191   -1.3457   -0.5596 H   0  0  0  0  0  0  0  0  0  0  0  0
   -5.5322   -1.0537   -1.2282 H   0  0  0  0  0  0  0  0  0  0  0  0
   -4.5668    0.4981   -2.9403 H   0  0  0  0  0  0  0  0  0  0  0  0
   -3.7787    1.2824   -0.0570 H   0  0  0  0  0  0  0  0  0  0  0  0
   -5.3854    1.4623   -0.7760 H   0  0  0  0  0  0  0  0  0  0  0  0
  1  2  1  0  0  0  0
  1 35  1  0  0  0  0
  1 36  1  0  0  0  0
  1 37  1  0  0  0  0
  2  3  1  0  0  0  0
  3  4  1  0  0  0  0
  3 22  2  0  0  0  0
  4  5  2  0  0  0  0
  4 38  1  0  0  0  0
  5  6  1  0  0  0  0
  5 20  1  0  0  0  0
  6  7  1  0  0  0  0
  6 17  2  0  0  0  0
  7  8  1  0  0  0  0
  7 39  1  0  0  0  0
  8  9  1  0  0  0  0
  8 15  2  0  0  0  0
  9 10  2  0  0  0  0
  9 40  1  0  0  0  0
 10 11  1  0  0  0  0
 10 41  1  0  0  0  0
 11 12  1  0  0  0  0
 11 13  2  0  0  0  0
 13 14  1  0  0  0  0
 13 15  1  0  0  0  0
 15 16  1  0  0  0  0
 17 18  1  0  0  0  0
 18 19  2  0  0  0  0
 18 42  1  0  0  0  0
 19 20  1  0  0  0  0
 20 21  2  0  0  0  0
 21 22  1  0  0  0  0
 21 43  1  0  0  0  0
 22 23  1  0  0  0  0
 23 24  1  0  0  0  0
 24 44  1  0  0  0  0
 24 45  1  0  0  0  0
 25 26  1  0  0  0  0
 25 34  1  0  0  0  0
 25 24  1  0  0  0  0
 25 46  1  1  0  0  0
 26 27  1  0  0  0  0
 26 47  1  0  0  0  0
 26 48  1  0  0  0  0
 27 28  1  0  0  0  0
 27 32  1  0  0  0  0
 28 29  1  0  0  0  0
 28 49  1  0  0  0  0
 28 50  1  0  0  0  0
 29 30  1  0  0  0  0
 29 51  1  0  0  0  0
 29 52  1  0  0  0  0
 30 31  1  0  0  0  0
 31 32  1  0  0  0  0
 31 53  1  0  0  0  0
 31 54  1  0  0  0  0
 32 33  1  0  0  0  0
 32 55  1  6  0  0  0
 33 34  1  0  0  0  0
 33 56  1  0  0  0  0
 33 57  1  0  0  0  0
M  END
$$$$
