CHEMBL4453627
 OpenBabel04072215383D

 41 44  0  0  0  0  0  0  0  0999 V2000
   -1.2748    0.9908    1.7740 C   0  0  0  0  0  0  0  0  0  0  0  0
   -0.3146    0.3906    0.8801 N   0  0  0  0  0  0  0  0  0  0  0  0
    0.8569   -0.2245    1.2195 C   0  0  0  0  0  0  0  0  0  0  0  0
    1.4100   -0.6853    0.0411 C   0  0  0  0  0  0  0  0  0  0  0  0
    2.6468   -1.4397   -0.0773 C   0  0  0  0  0  0  0  0  0  0  0  0
    2.8106   -2.3527   -1.1276 C   0  0  0  0  0  0  0  0  0  0  0  0
    3.9942   -3.0863   -1.2635 C   0  0  0  0  0  0  0  0  0  0  0  0
    5.0430   -2.9216   -0.3497 C   0  0  0  0  0  0  0  0  0  0  0  0
    6.3122   -3.7251   -0.4774 C   0  0  0  0  0  0  0  0  0  0  0  0
    7.3056   -3.0700   -1.3080 N   0  0  0  0  0  0  0  0  0  0  0  0
    7.4749   -3.1948   -2.6568 C   0  0  0  0  0  0  0  0  0  0  0  0
    8.6719   -2.5574   -2.9013 C   0  0  0  0  0  0  0  0  0  0  0  0
    9.3436   -2.4515   -4.1826 C   0  0  0  0  0  0  0  0  0  0  0  0
    8.6212   -2.4271   -5.3841 C   0  0  0  0  0  0  0  0  0  0  0  0
    9.2843   -2.3337   -6.6105 C   0  0  0  0  0  0  0  0  0  0  0  0
   10.6753   -2.2673   -6.6488 C   0  0  0  0  0  0  0  0  0  0  0  0
   11.4050   -2.2896   -5.4620 C   0  0  0  0  0  0  0  0  0  0  0  0
   10.7423   -2.3765   -4.2341 C   0  0  0  0  0  0  0  0  0  0  0  0
    9.1757   -2.0796   -1.7196 N   0  0  0  0  0  0  0  0  0  0  0  0
    8.3272   -2.3948   -0.7478 N   0  0  0  0  0  0  0  0  0  0  0  0
    4.8860   -2.0003    0.6944 C   0  0  0  0  0  0  0  0  0  0  0  0
    3.6979   -1.2723    0.8325 C   0  0  0  0  0  0  0  0  0  0  0  0
    0.4853   -0.2738   -0.9483 C   0  0  0  0  0  0  0  0  0  0  0  0
   -0.5630    0.3795   -0.4410 N   0  0  0  0  0  0  0  0  0  0  0  0
   -0.8835    0.9746    2.7939 H   0  0  0  0  0  0  0  0  0  0  0  0
   -2.2005    0.4118    1.7190 H   0  0  0  0  0  0  0  0  0  0  0  0
   -1.4481    2.0220    1.4567 H   0  0  0  0  0  0  0  0  0  0  0  0
    1.1761   -0.2976    2.2495 H   0  0  0  0  0  0  0  0  0  0  0  0
    2.0114   -2.5177   -1.8471 H   0  0  0  0  0  0  0  0  0  0  0  0
    4.0801   -3.7929   -2.0865 H   0  0  0  0  0  0  0  0  0  0  0  0
    6.1046   -4.7054   -0.9230 H   0  0  0  0  0  0  0  0  0  0  0  0
    6.7582   -3.9131    0.5064 H   0  0  0  0  0  0  0  0  0  0  0  0
    6.7828   -3.7339   -3.2853 H   0  0  0  0  0  0  0  0  0  0  0  0
    7.5349   -2.4646   -5.3797 H   0  0  0  0  0  0  0  0  0  0  0  0
    8.7138   -2.3085   -7.5353 H   0  0  0  0  0  0  0  0  0  0  0  0
   11.1903   -2.1943   -7.6032 H   0  0  0  0  0  0  0  0  0  0  0  0
   12.4904   -2.2383   -5.4901 H   0  0  0  0  0  0  0  0  0  0  0  0
   11.3275   -2.3956   -3.3163 H   0  0  0  0  0  0  0  0  0  0  0  0
    5.6893   -1.8401    1.4123 H   0  0  0  0  0  0  0  0  0  0  0  0
    3.6149   -0.5631    1.6527 H   0  0  0  0  0  0  0  0  0  0  0  0
    0.5337   -0.4237   -2.0189 H   0  0  0  0  0  0  0  0  0  0  0  0
  1  2  1  0  0  0  0
  1 25  1  0  0  0  0
  1 26  1  0  0  0  0
  1 27  1  0  0  0  0
  2  3  1  0  0  0  0
  2 24  1  0  0  0  0
  3  4  2  0  0  0  0
  3 28  1  0  0  0  0
  4  5  1  0  0  0  0
  4 23  1  0  0  0  0
  5  6  1  0  0  0  0
  5 22  2  0  0  0  0
  6  7  2  0  0  0  0
  6 29  1  0  0  0  0
  7  8  1  0  0  0  0
  7 30  1  0  0  0  0
  8  9  1  0  0  0  0
  8 21  2  0  0  0  0
  9 10  1  0  0  0  0
  9 31  1  0  0  0  0
  9 32  1  0  0  0  0
 10 11  1  0  0  0  0
 10 20  1  0  0  0  0
 11 12  2  0  0  0  0
 11 33  1  0  0  0  0
 12 13  1  0  0  0  0
 12 19  1  0  0  0  0
 13 14  1  0  0  0  0
 13 18  2  0  0  0  0
 14 15  2  0  0  0  0
 14 34  1  0  0  0  0
 15 16  1  0  0  0  0
 15 35  1  0  0  0  0
 16 17  2  0  0  0  0
 16 36  1  0  0  0  0
 17 18  1  0  0  0  0
 17 37  1  0  0  0  0
 18 38  1  0  0  0  0
 19 20  2  0  0  0  0
 21 22  1  0  0  0  0
 21 39  1  0  0  0  0
 22 40  1  0  0  0  0
 23 24  2  0  0  0  0
 23 41  1  0  0  0  0
M  END
$$$$
