CHEMBL248713
 OpenBabel04072215363D

 47 51  0  0  0  0  0  0  0  0999 V2000
   -0.1751   -1.0286    2.7280 C   0  0  0  0  0  0  0  0  0  0  0  0
    0.9278   -1.8594    3.3656 C   0  0  0  0  0  0  0  0  0  0  0  0
    2.1906   -1.1184    3.3665 N   0  0  0  0  0  0  0  0  0  0  0  0
    3.2534   -1.9028    3.9999 C   0  0  0  0  0  0  0  0  0  0  0  0
    4.5687   -1.1694    4.0341 C   0  0  0  0  0  0  0  0  0  0  0  0
    5.6790   -1.6319    3.3429 C   0  0  0  0  0  0  0  0  0  0  0  0
    6.8939   -1.0358    3.3691 N   0  0  0  0  0  0  0  0  0  0  0  0
    7.0116    0.0874    4.1193 C   0  0  0  0  0  0  0  0  0  0  0  0
    5.9853    0.6507    4.8721 C   0  0  0  0  0  0  0  0  0  0  0  0
    6.1512    1.8759    5.6746 C   0  0  0  0  0  0  0  0  0  0  0  0
    7.3173    2.2223    6.3733 C   0  0  0  0  0  0  0  0  0  0  0  0
    7.5220    3.3300    7.1567 N   0  0  0  0  0  0  0  0  0  0  0  0
    6.4341    4.1232    7.2168 C   0  0  0  0  0  0  0  0  0  0  0  0
    6.2867    5.3063    7.8901 N   0  0  0  0  0  0  0  0  0  0  0  0
    5.0748    5.9058    7.7073 N   0  0  0  0  0  0  0  0  0  0  0  0
    4.4234    5.0194    6.9389 C   0  0  0  0  0  0  0  0  0  0  0  0
    3.0354    5.1686    6.4175 C   0  0  0  0  0  0  0  0  0  0  0  0
    2.4034    4.1838    5.8085 N   0  0  0  0  0  0  0  0  0  0  0  0
    1.2814    4.7361    5.2705 C   0  0  0  0  0  0  0  0  0  0  0  0
    0.3283    4.1338    4.4456 C   0  0  0  0  0  0  0  0  0  0  0  0
   -0.6862    4.9447    3.9522 C   0  0  0  0  0  0  0  0  0  0  0  0
   -1.5988    4.4098    3.1292 F   0  0  0  0  0  0  0  0  0  0  0  0
   -0.7685    6.2980    4.2748 C   0  0  0  0  0  0  0  0  0  0  0  0
    0.1683    6.9053    5.1260 C   0  0  0  0  0  0  0  0  0  0  0  0
    1.1889    6.0840    5.6042 C   0  0  0  0  0  0  0  0  0  0  0  0
    2.2828    6.3120    6.4129 N   0  0  0  0  0  0  0  0  0  0  0  0
    5.2267    3.9109    6.5905 C   0  0  0  0  0  0  0  0  0  0  0  0
    5.0889    2.7743    5.7861 C   0  0  0  0  0  0  0  0  0  0  0  0
    4.7450   -0.0154    4.8063 C   0  0  0  0  0  0  0  0  0  0  0  0
   -1.1110   -1.5940    2.7107 H   0  0  0  0  0  0  0  0  0  0  0  0
    0.0751   -0.7636    1.6938 H   0  0  0  0  0  0  0  0  0  0  0  0
   -0.3522   -0.1038    3.2862 H   0  0  0  0  0  0  0  0  0  0  0  0
    1.0383   -2.7922    2.8010 H   0  0  0  0  0  0  0  0  0  0  0  0
    0.6310   -2.1151    4.3897 H   0  0  0  0  0  0  0  0  0  0  0  0
    2.0654   -0.2412    3.8702 H   0  0  0  0  0  0  0  0  0  0  0  0
    3.3797   -2.8472    3.4569 H   0  0  0  0  0  0  0  0  0  0  0  0
    2.9797   -2.1599    5.0312 H   0  0  0  0  0  0  0  0  0  0  0  0
    5.6299   -2.5303    2.7334 H   0  0  0  0  0  0  0  0  0  0  0  0
    7.9978    0.5419    4.0755 H   0  0  0  0  0  0  0  0  0  0  0  0
    8.1877    1.5683    6.3357 H   0  0  0  0  0  0  0  0  0  0  0  0
    6.9820    5.7582    8.4711 H   0  0  0  0  0  0  0  0  0  0  0  0
    0.3977    3.0894    4.1749 H   0  0  0  0  0  0  0  0  0  0  0  0
   -1.5740    6.8868    3.8430 H   0  0  0  0  0  0  0  0  0  0  0  0
    0.1102    7.9587    5.3687 H   0  0  0  0  0  0  0  0  0  0  0  0
    2.5727    7.1907    6.8162 H   0  0  0  0  0  0  0  0  0  0  0  0
    4.1596    2.6177    5.2471 H   0  0  0  0  0  0  0  0  0  0  0  0
    3.8936    0.3598    5.3721 H   0  0  0  0  0  0  0  0  0  0  0  0
  1  2  1  0  0  0  0
  1 30  1  0  0  0  0
  1 31  1  0  0  0  0
  1 32  1  0  0  0  0
  2  3  1  0  0  0  0
  2 33  1  0  0  0  0
  2 34  1  0  0  0  0
  3  4  1  0  0  0  0
  3 35  1  0  0  0  0
  4  5  1  0  0  0  0
  4 36  1  0  0  0  0
  4 37  1  0  0  0  0
  5  6  1  0  0  0  0
  5 29  2  0  0  0  0
  6  7  2  0  0  0  0
  6 38  1  0  0  0  0
  7  8  1  0  0  0  0
  8  9  2  0  0  0  0
  8 39  1  0  0  0  0
  9 10  1  0  0  0  0
  9 29  1  0  0  0  0
 10 11  1  0  0  0  0
 10 28  2  0  0  0  0
 11 12  2  0  0  0  0
 11 40  1  0  0  0  0
 12 13  1  0  0  0  0
 13 14  1  0  0  0  0
 13 27  2  0  0  0  0
 14 15  1  0  0  0  0
 14 41  1  0  0  0  0
 15 16  2  0  0  0  0
 16 17  1  0  0  0  0
 16 27  1  0  0  0  0
 17 18  2  0  0  0  0
 17 26  1  0  0  0  0
 18 19  1  0  0  0  0
 19 20  1  0  0  0  0
 19 25  2  0  0  0  0
 20 21  2  0  0  0  0
 20 42  1  0  0  0  0
 21 22  1  0  0  0  0
 21 23  1  0  0  0  0
 23 24  2  0  0  0  0
 23 43  1  0  0  0  0
 24 25  1  0  0  0  0
 24 44  1  0  0  0  0
 25 26  1  0  0  0  0
 26 45  1  0  0  0  0
 27 28  1  0  0  0  0
 28 46  1  0  0  0  0
 29 47  1  0  0  0  0
M  END
$$$$
