CHEMBL3676383
 OpenBabel04072215373D

 64 66  0  0  0  0  0  0  0  0999 V2000
    2.2926   -2.2196    0.2507 C   0  0  0  0  0  0  0  0  0  0  0  0
    2.8933   -1.0612   -0.0493 C   0  0  0  0  0  0  0  0  0  0  0  0
    3.5171   -0.8510   -1.3809 C   0  0  0  0  0  0  0  0  0  0  0  0
    3.2110   -1.5216   -2.3584 O   0  0  0  0  0  0  0  0  0  0  0  0
    4.4915    0.1346   -1.3374 N   0  0  0  0  0  0  0  0  0  0  0  0
    5.2335    0.3829   -2.5108 C   0  0  0  0  0  0  0  0  0  0  0  0
    6.3591   -0.4052   -2.7419 C   0  0  0  0  0  0  0  0  0  0  0  0
    7.0576   -0.3299   -3.9726 C   0  0  0  0  0  0  0  0  0  0  0  0
    8.1738   -1.1226   -4.3011 C   0  0  0  0  0  0  0  0  0  0  0  0
    8.5998   -2.1177   -3.3922 N   0  0  0  0  0  0  0  0  0  0  0  0
    9.8972   -2.6357   -3.2071 C   0  0  0  0  0  0  0  0  0  0  0  0
   11.0426   -1.8636   -3.4314 C   0  0  0  0  0  0  0  0  0  0  0  0
   12.3020   -2.3184   -3.0281 C   0  0  0  0  0  0  0  0  0  0  0  0
   12.4257   -3.5589   -2.4042 C   0  0  0  0  0  0  0  0  0  0  0  0
   14.1091   -4.1114   -1.7457 Br  0  0  0  0  0  0  0  0  0  0  0  0
   11.3120   -4.3714   -2.2227 C   0  0  0  0  0  0  0  0  0  0  0  0
   10.0632   -3.8989   -2.6175 C   0  0  0  0  0  0  0  0  0  0  0  0
    8.9837   -4.6673   -2.3986 F   0  0  0  0  0  0  0  0  0  0  0  0
    8.8318   -0.9810   -5.4649 N   0  0  0  0  0  0  0  0  0  0  0  0
    8.3449   -0.0787   -6.3197 C   0  0  0  0  0  0  0  0  0  0  0  0
    7.2794    0.7117   -6.1147 N   0  0  0  0  0  0  0  0  0  0  0  0
    6.6464    0.5842   -4.9457 C   0  0  0  0  0  0  0  0  0  0  0  0
    5.5474    1.4010   -4.6725 C   0  0  0  0  0  0  0  0  0  0  0  0
    4.8419    1.3345   -3.4581 C   0  0  0  0  0  0  0  0  0  0  0  0
    3.8374    2.2657   -3.3344 O   0  0  0  0  0  0  0  0  0  0  0  0
    3.5921    2.7393   -2.0054 C   0  0  0  0  0  0  0  0  0  0  0  0
    3.0648    4.1794   -2.0203 C   0  0  0  0  0  0  0  0  0  0  0  0
    2.8620    4.6971   -0.6738 N   0  0  0  0  0  0  0  0  0  0  0  0
    3.9255    5.1367    0.0902 C   0  0  0  0  0  0  0  0  0  0  0  0
    5.0706    5.2371   -0.3431 O   0  0  0  0  0  0  0  0  0  0  0  0
    3.5692    5.4614    1.5467 C   0  0  0  0  0  0  0  0  0  0  0  0
    3.2015    4.2380    2.3109 N   0  0  0  0  0  0  0  0  0  0  0  0
    4.2871    3.2382    2.3240 C   0  0  0  0  0  0  0  0  0  0  0  0
    5.5839    3.6276    3.0284 C   0  0  0  0  0  0  0  0  0  0  0  0
    2.7592    4.6371    3.6632 C   0  0  0  0  0  0  0  0  0  0  0  0
    2.2905    3.4791    4.5410 C   0  0  0  0  0  0  0  0  0  0  0  0
    1.7981   -2.3598    1.2050 H   0  0  0  0  0  0  0  0  0  0  0  0
    2.2716   -3.0480   -0.4542 H   0  0  0  0  0  0  0  0  0  0  0  0
    2.8958   -0.2322    0.6475 H   0  0  0  0  0  0  0  0  0  0  0  0
    5.0314    0.0988   -0.4820 H   0  0  0  0  0  0  0  0  0  0  0  0
    6.6780   -1.1164   -1.9851 H   0  0  0  0  0  0  0  0  0  0  0  0
    7.8749   -2.8198   -3.2633 H   0  0  0  0  0  0  0  0  0  0  0  0
   10.9605   -0.8778   -3.8827 H   0  0  0  0  0  0  0  0  0  0  0  0
   13.1697   -1.6804   -3.1774 H   0  0  0  0  0  0  0  0  0  0  0  0
   11.3898   -5.3457   -1.7525 H   0  0  0  0  0  0  0  0  0  0  0  0
    8.8549    0.0226   -7.2707 H   0  0  0  0  0  0  0  0  0  0  0  0
    5.2405    2.1247   -5.4232 H   0  0  0  0  0  0  0  0  0  0  0  0
    4.5059    2.7202   -1.3989 H   0  0  0  0  0  0  0  0  0  0  0  0
    2.8316    2.1018   -1.5405 H   0  0  0  0  0  0  0  0  0  0  0  0
    2.1059    4.2315   -2.5489 H   0  0  0  0  0  0  0  0  0  0  0  0
    3.7660    4.8286   -2.5565 H   0  0  0  0  0  0  0  0  0  0  0  0
    2.0160    4.4490   -0.1740 H   0  0  0  0  0  0  0  0  0  0  0  0
    2.7198    6.1561    1.5198 H   0  0  0  0  0  0  0  0  0  0  0  0
    4.4080    5.9980    2.0043 H   0  0  0  0  0  0  0  0  0  0  0  0
    4.5255    2.9454    1.2945 H   0  0  0  0  0  0  0  0  0  0  0  0
    3.9117    2.3106    2.7725 H   0  0  0  0  0  0  0  0  0  0  0  0
    6.0333    4.5253    2.5947 H   0  0  0  0  0  0  0  0  0  0  0  0
    6.3134    2.8167    2.9267 H   0  0  0  0  0  0  0  0  0  0  0  0
    5.4314    3.7959    4.0987 H   0  0  0  0  0  0  0  0  0  0  0  0
    1.9080    5.3226    3.5615 H   0  0  0  0  0  0  0  0  0  0  0  0
    3.5446    5.1917    4.1915 H   0  0  0  0  0  0  0  0  0  0  0  0
    1.5218    2.8846    4.0367 H   0  0  0  0  0  0  0  0  0  0  0  0
    1.8593    3.8668    5.4703 H   0  0  0  0  0  0  0  0  0  0  0  0
    3.1156    2.8176    4.8212 H   0  0  0  0  0  0  0  0  0  0  0  0
  1  2  2  0  0  0  0
  1 37  1  0  0  0  0
  1 38  1  0  0  0  0
  2  3  1  0  0  0  0
  2 39  1  0  0  0  0
  3  4  2  0  0  0  0
  3  5  1  0  0  0  0
  5  6  1  0  0  0  0
  5 40  1  0  0  0  0
  6  7  1  0  0  0  0
  6 24  2  0  0  0  0
  7  8  2  0  0  0  0
  7 41  1  0  0  0  0
  8  9  1  0  0  0  0
  8 22  1  0  0  0  0
  9 10  1  0  0  0  0
  9 19  2  0  0  0  0
 10 11  1  0  0  0  0
 10 42  1  0  0  0  0
 11 12  1  0  0  0  0
 11 17  2  0  0  0  0
 12 13  2  0  0  0  0
 12 43  1  0  0  0  0
 13 14  1  0  0  0  0
 13 44  1  0  0  0  0
 14 15  1  0  0  0  0
 14 16  2  0  0  0  0
 16 17  1  0  0  0  0
 16 45  1  0  0  0  0
 17 18  1  0  0  0  0
 19 20  1  0  0  0  0
 20 21  2  0  0  0  0
 20 46  1  0  0  0  0
 21 22  1  0  0  0  0
 22 23  2  0  0  0  0
 23 24  1  0  0  0  0
 23 47  1  0  0  0  0
 24 25  1  0  0  0  0
 25 26  1  0  0  0  0
 26 27  1  0  0  0  0
 26 48  1  0  0  0  0
 26 49  1  0  0  0  0
 27 28  1  0  0  0  0
 27 50  1  0  0  0  0
 27 51  1  0  0  0  0
 28 29  1  0  0  0  0
 28 52  1  0  0  0  0
 29 30  2  0  0  0  0
 29 31  1  0  0  0  0
 31 32  1  0  0  0  0
 31 53  1  0  0  0  0
 31 54  1  0  0  0  0
 32 33  1  0  0  0  0
 32 35  1  0  0  0  0
 33 34  1  0  0  0  0
 33 55  1  0  0  0  0
 33 56  1  0  0  0  0
 34 57  1  0  0  0  0
 34 58  1  0  0  0  0
 34 59  1  0  0  0  0
 35 36  1  0  0  0  0
 35 60  1  0  0  0  0
 35 61  1  0  0  0  0
 36 62  1  0  0  0  0
 36 63  1  0  0  0  0
 36 64  1  0  0  0  0
M  END
$$$$
