CHEMBL538361
 OpenBabel04072215383D

 42 46  0  0  0  0  0  0  0  0999 V2000
    0.0507   -2.9455   -1.2235 C   0  0  0  0  0  0  0  0  0  0  0  0
    0.1580   -1.5654   -0.6245 C   0  0  0  0  0  0  0  0  0  0  0  0
   -1.0016   -0.7607   -0.7054 C   0  0  0  0  0  0  0  0  0  0  0  0
   -1.0324    0.5042   -0.1350 C   0  0  0  0  0  0  0  0  0  0  0  0
   -2.1457    1.2867   -0.1930 O   0  0  0  0  0  0  0  0  0  0  0  0
    0.0791    1.0030    0.5139 C   0  0  0  0  0  0  0  0  0  0  0  0
    1.2463    0.2365    0.5642 C   0  0  0  0  0  0  0  0  0  0  0  0
    1.3322   -1.0601   -0.0014 C   0  0  0  0  0  0  0  0  0  0  0  0
    2.6323   -1.7951    0.0954 C   0  0  0  0  0  0  0  0  0  0  0  0
    3.4462   -1.6743    1.2425 C   0  0  0  0  0  0  0  0  0  0  0  0
    4.7011   -2.2976    1.3554 C   0  0  0  0  0  0  0  0  0  0  0  0
    5.1457   -3.1203    0.3097 C   0  0  0  0  0  0  0  0  0  0  0  0
    6.2929   -3.9046    0.0262 C   0  0  0  0  0  0  0  0  0  0  0  0
    7.4876   -4.0512    0.9003 C   0  0  0  0  0  0  0  0  0  0  0  0
    7.6454   -3.4989    2.0832 N   0  0  0  0  0  0  0  0  0  0  0  0
    8.8898   -3.8907    2.5081 C   0  0  0  0  0  0  0  0  0  0  0  0
    9.5585   -3.5952    3.7044 C   0  0  0  0  0  0  0  0  0  0  0  0
   10.8387   -4.1253    3.9017 C   0  0  0  0  0  0  0  0  0  0  0  0
   11.4394   -4.9291    2.9292 C   0  0  0  0  0  0  0  0  0  0  0  0
   10.7864   -5.2334    1.7279 C   0  0  0  0  0  0  0  0  0  0  0  0
    9.5089   -4.6972    1.5584 C   0  0  0  0  0  0  0  0  0  0  0  0
    8.5870   -4.7833    0.5448 N   0  0  0  0  0  0  0  0  0  0  0  0
    6.2083   -4.5270   -1.1610 N   0  0  0  0  0  0  0  0  0  0  0  0
    5.0131   -4.1252   -1.6326 N   0  0  0  0  0  0  0  0  0  0  0  0
    4.3434   -3.2581   -0.8116 C   0  0  0  0  0  0  0  0  0  0  0  0
    3.1221   -2.5865   -0.9630 C   0  0  0  0  0  0  0  0  0  0  0  0
   -0.9934   -3.2148   -1.4203 H   0  0  0  0  0  0  0  0  0  0  0  0
    0.4452   -3.7021   -0.5392 H   0  0  0  0  0  0  0  0  0  0  0  0
    0.5634   -2.9917   -2.1877 H   0  0  0  0  0  0  0  0  0  0  0  0
   -1.8849   -1.1447   -1.2093 H   0  0  0  0  0  0  0  0  0  0  0  0
   -2.8281    0.8183   -0.7006 H   0  0  0  0  0  0  0  0  0  0  0  0
    0.0500    1.9876    0.9710 H   0  0  0  0  0  0  0  0  0  0  0  0
    2.1094    0.6837    1.0543 H   0  0  0  0  0  0  0  0  0  0  0  0
    3.1223   -1.0684    2.0880 H   0  0  0  0  0  0  0  0  0  0  0  0
    5.3144   -2.1490    2.2409 H   0  0  0  0  0  0  0  0  0  0  0  0
    9.0892   -2.9726    4.4547 H   0  0  0  0  0  0  0  0  0  0  0  0
   11.3675   -3.9118    4.8274 H   0  0  0  0  0  0  0  0  0  0  0  0
   12.4338   -5.3293    3.1085 H   0  0  0  0  0  0  0  0  0  0  0  0
   11.2532   -5.8564    0.9719 H   0  0  0  0  0  0  0  0  0  0  0  0
    8.6776   -5.2857   -0.3255 H   0  0  0  0  0  0  0  0  0  0  0  0
    4.7017   -4.4862   -2.5271 H   0  0  0  0  0  0  0  0  0  0  0  0
    2.5879   -2.6711   -1.8995 H   0  0  0  0  0  0  0  0  0  0  0  0
  1  2  1  0  0  0  0
  1 27  1  0  0  0  0
  1 28  1  0  0  0  0
  1 29  1  0  0  0  0
  2  3  1  0  0  0  0
  2  8  2  0  0  0  0
  3  4  2  0  0  0  0
  3 30  1  0  0  0  0
  4  5  1  0  0  0  0
  4  6  1  0  0  0  0
  5 31  1  0  0  0  0
  6  7  2  0  0  0  0
  6 32  1  0  0  0  0
  7  8  1  0  0  0  0
  7 33  1  0  0  0  0
  8  9  1  0  0  0  0
  9 10  1  0  0  0  0
  9 26  2  0  0  0  0
 10 11  2  0  0  0  0
 10 34  1  0  0  0  0
 11 12  1  0  0  0  0
 11 35  1  0  0  0  0
 12 13  1  0  0  0  0
 12 25  2  0  0  0  0
 13 14  1  0  0  0  0
 13 23  2  0  0  0  0
 14 15  2  0  0  0  0
 14 22  1  0  0  0  0
 15 16  1  0  0  0  0
 16 17  1  0  0  0  0
 16 21  2  0  0  0  0
 17 18  2  0  0  0  0
 17 36  1  0  0  0  0
 18 19  1  0  0  0  0
 18 37  1  0  0  0  0
 19 20  2  0  0  0  0
 19 38  1  0  0  0  0
 20 21  1  0  0  0  0
 20 39  1  0  0  0  0
 21 22  1  0  0  0  0
 22 40  1  0  0  0  0
 23 24  1  0  0  0  0
 24 25  1  0  0  0  0
 24 41  1  0  0  0  0
 25 26  1  0  0  0  0
 26 42  1  0  0  0  0
M  END
$$$$
