CHEMBL3972376
 OpenBabel04072215373D

 51 54  0  0  0  0  0  0  0  0999 V2000
    4.8389    2.3455    0.8641 O   0  0  0  0  0  0  0  0  0  0  0  0
    4.2737    1.3124    0.5282 C   0  0  0  0  0  0  0  0  0  0  0  0
    2.9812    0.9975    0.9228 N   0  0  0  0  0  0  0  0  0  0  0  0
    2.1601    1.8758    1.6805 C   0  0  0  0  0  0  0  0  0  0  0  0
    2.4095    3.2449    1.8112 C   0  0  0  0  0  0  0  0  0  0  0  0
    1.6766    4.0956    2.5663 N   0  0  0  0  0  0  0  0  0  0  0  0
    0.6531    3.5671    3.2699 C   0  0  0  0  0  0  0  0  0  0  0  0
   -0.0354    4.3970    4.1490 O   0  0  0  0  0  0  0  0  0  0  0  0
    0.7052    5.3974    4.7615 C   0  0  0  0  0  0  0  0  0  0  0  0
    2.0034    5.1837    5.2210 C   0  0  0  0  0  0  0  0  0  0  0  0
    2.6646    6.2418    5.8003 C   0  0  0  0  0  0  0  0  0  0  0  0
    2.1043    7.4472    5.9863 N   0  0  0  0  0  0  0  0  0  0  0  0
    0.8396    7.6480    5.5810 C   0  0  0  0  0  0  0  0  0  0  0  0
    0.2545    8.9098    5.7936 N   0  0  0  0  0  0  0  0  0  0  0  0
    0.9082    9.9593    6.4158 C   0  0  0  0  0  0  0  0  0  0  0  0
    2.0465    9.9734    6.8620 O   0  0  0  0  0  0  0  0  0  0  0  0
    0.0847   11.2078    6.5473 C   0  0  0  0  0  0  0  0  0  0  0  0
    0.7709   12.5570    6.4702 C   0  0  0  0  0  0  0  0  0  0  0  0
    0.2442   12.0658    7.7864 C   0  0  0  0  0  0  0  0  0  0  0  0
    0.1023    6.6420    4.9623 C   0  0  0  0  0  0  0  0  0  0  0  0
    0.2834    2.2325    3.1579 C   0  0  0  0  0  0  0  0  0  0  0  0
   -0.7590    1.7393    3.8413 F   0  0  0  0  0  0  0  0  0  0  0  0
    1.0395    1.3768    2.3482 C   0  0  0  0  0  0  0  0  0  0  0  0
    4.8510    0.3324   -0.2582 N   0  0  0  0  0  0  0  0  0  0  0  0
    6.1768    0.3549   -0.7627 C   0  0  0  0  0  0  0  0  0  0  0  0
    7.0991    1.3648   -0.4821 C   0  0  0  0  0  0  0  0  0  0  0  0
    8.3871    1.3348   -1.0204 C   0  0  0  0  0  0  0  0  0  0  0  0
    8.7899    0.2856   -1.8456 C   0  0  0  0  0  0  0  0  0  0  0  0
   10.4019    0.3640   -2.4497 Cl  0  0  0  0  0  0  0  0  0  0  0  0
    7.8995   -0.7516   -2.1367 C   0  0  0  0  0  0  0  0  0  0  0  0
    8.2414   -1.9459   -2.9877 C   0  0  0  0  0  0  0  0  0  0  0  0
    9.4618   -1.9483   -3.5805 F   0  0  0  0  0  0  0  0  0  0  0  0
    8.1803   -3.1040   -2.2684 F   0  0  0  0  0  0  0  0  0  0  0  0
    7.3446   -2.1088   -4.0041 F   0  0  0  0  0  0  0  0  0  0  0  0
    6.5907   -0.6984   -1.5864 C   0  0  0  0  0  0  0  0  0  0  0  0
    2.6975    0.0297    0.8655 H   0  0  0  0  0  0  0  0  0  0  0  0
    3.2274    3.7457    1.3042 H   0  0  0  0  0  0  0  0  0  0  0  0
    2.5144    4.2368    5.1045 H   0  0  0  0  0  0  0  0  0  0  0  0
    3.6930    6.1548    6.1378 H   0  0  0  0  0  0  0  0  0  0  0  0
   -0.6922    9.0448    5.4776 H   0  0  0  0  0  0  0  0  0  0  0  0
   -0.9151   11.1616    6.1286 H   0  0  0  0  0  0  0  0  0  0  0  0
    0.2519   13.3773    5.9907 H   0  0  0  0  0  0  0  0  0  0  0  0
    1.8489   12.5776    6.3369 H   0  0  0  0  0  0  0  0  0  0  0  0
   -0.6310   12.5531    8.1966 H   0  0  0  0  0  0  0  0  0  0  0  0
    0.9705   11.7590    8.5338 H   0  0  0  0  0  0  0  0  0  0  0  0
   -0.9166    6.8100    4.6257 H   0  0  0  0  0  0  0  0  0  0  0  0
    0.7581    0.3306    2.2898 H   0  0  0  0  0  0  0  0  0  0  0  0
    4.2570   -0.4215   -0.5708 H   0  0  0  0  0  0  0  0  0  0  0  0
    6.8639    2.2105    0.1555 H   0  0  0  0  0  0  0  0  0  0  0  0
    9.0708    2.1484   -0.7820 H   0  0  0  0  0  0  0  0  0  0  0  0
    5.9007   -1.5104   -1.8155 H   0  0  0  0  0  0  0  0  0  0  0  0
  1  2  2  0  0  0  0
  2  3  1  0  0  0  0
  2 24  1  0  0  0  0
  3  4  1  0  0  0  0
  3 36  1  0  0  0  0
  4  5  1  0  0  0  0
  4 23  2  0  0  0  0
  5  6  2  0  0  0  0
  5 37  1  0  0  0  0
  6  7  1  0  0  0  0
  7  8  1  0  0  0  0
  7 21  2  0  0  0  0
  8  9  1  0  0  0  0
  9 10  1  0  0  0  0
  9 20  2  0  0  0  0
 10 11  2  0  0  0  0
 10 38  1  0  0  0  0
 11 12  1  0  0  0  0
 11 39  1  0  0  0  0
 12 13  2  0  0  0  0
 13 14  1  0  0  0  0
 13 20  1  0  0  0  0
 14 15  1  0  0  0  0
 14 40  1  0  0  0  0
 15 16  2  0  0  0  0
 15 17  1  0  0  0  0
 17 18  1  0  0  0  0
 17 19  1  0  0  0  0
 17 41  1  0  0  0  0
 18 19  1  0  0  0  0
 18 42  1  0  0  0  0
 18 43  1  0  0  0  0
 19 44  1  0  0  0  0
 19 45  1  0  0  0  0
 20 46  1  0  0  0  0
 21 22  1  0  0  0  0
 21 23  1  0  0  0  0
 23 47  1  0  0  0  0
 24 25  1  0  0  0  0
 24 48  1  0  0  0  0
 25 26  1  0  0  0  0
 25 35  2  0  0  0  0
 26 27  2  0  0  0  0
 26 49  1  0  0  0  0
 27 28  1  0  0  0  0
 27 50  1  0  0  0  0
 28 29  1  0  0  0  0
 28 30  2  0  0  0  0
 30 31  1  0  0  0  0
 30 35  1  0  0  0  0
 31 32  1  0  0  0  0
 31 33  1  0  0  0  0
 31 34  1  0  0  0  0
 35 51  1  0  0  0  0
M  END
$$$$
