CHEMBL3287306
 OpenBabel04072215363D

 67 71  0  0  0  0  0  0  0  0999 V2000
    2.3152    2.4359    1.2502 C   0  0  0  0  0  0  0  0  0  0  0  0
    2.7432    3.2544   -0.2699 S   0  0  0  0  0  0  0  0  0  0  0  0
    3.3593    2.2809   -1.1499 O   0  0  0  0  0  0  0  0  0  0  0  0
    1.5519    3.9674   -0.7128 O   0  0  0  0  0  0  0  0  0  0  0  0
    3.9467    4.4966    0.2024 C   0  0  0  0  0  0  0  0  0  0  0  0
    5.0938    3.8944    0.9672 C   0  0  0  0  0  0  0  0  0  0  0  0
    5.3714    4.3259    2.2697 C   0  0  0  0  0  0  0  0  0  0  0  0
    6.4237    3.7643    2.9795 C   0  0  0  0  0  0  0  0  0  0  0  0
    7.2065    2.7673    2.3981 C   0  0  0  0  0  0  0  0  0  0  0  0
    6.9891    2.3412    1.0827 C   0  0  0  0  0  0  0  0  0  0  0  0
    7.7510    1.3565    0.4395 N   0  0  0  0  0  0  0  0  0  0  0  0
    9.0004    0.8344    0.7561 C   0  0  0  0  0  0  0  0  0  0  0  0
    9.6677    0.2382   -0.2428 N   0  0  0  0  0  0  0  0  0  0  0  0
   10.9091   -0.2017    0.0317 C   0  0  0  0  0  0  0  0  0  0  0  0
   11.5000   -0.0804    1.2630 C   0  0  0  0  0  0  0  0  0  0  0  0
   10.7486    0.5691    2.2131 C   0  0  0  0  0  0  0  0  0  0  0  0
   11.1667    0.8333    3.4949 O   0  0  0  0  0  0  0  0  0  0  0  0
   12.4829    1.1435    3.7181 C   0  0  0  0  0  0  0  0  0  0  0  0
   13.2842    1.8420    2.8160 C   0  0  0  0  0  0  0  0  0  0  0  0
   14.6459    1.9862    3.0669 C   0  0  0  0  0  0  0  0  0  0  0  0
   15.1978    1.4957    4.2490 C   0  0  0  0  0  0  0  0  0  0  0  0
   16.5706    1.5434    4.5285 N   0  0  0  0  0  0  0  0  0  0  0  0
   17.5384    2.2119    3.8111 C   0  0  0  0  0  0  0  0  0  0  0  0
   17.3896    2.9693    2.8607 O   0  0  0  0  0  0  0  0  0  0  0  0
   18.9253    1.9292    4.2820 C   0  0  0  0  0  0  0  0  0  0  0  0
   19.5338    0.7353    3.6248 C   0  0  0  0  0  0  0  0  0  0  0  0
   19.2119   -0.3712    4.0480 O   0  0  0  0  0  0  0  0  0  0  0  0
   20.4179    0.9779    2.5891 N   0  0  0  0  0  0  0  0  0  0  0  0
   20.9743   -0.0833    1.8503 C   0  0  0  0  0  0  0  0  0  0  0  0
   20.1707   -1.1375    1.3989 C   0  0  0  0  0  0  0  0  0  0  0  0
   20.7411   -2.2382    0.7598 C   0  0  0  0  0  0  0  0  0  0  0  0
   22.1217   -2.2911    0.5938 C   0  0  0  0  0  0  0  0  0  0  0  0
   22.9119   -3.8286   -0.1705 Br  0  0  0  0  0  0  0  0  0  0  0  0
   22.9254   -1.2267    1.0055 C   0  0  0  0  0  0  0  0  0  0  0  0
   22.3460   -0.1011    1.6020 C   0  0  0  0  0  0  0  0  0  0  0  0
   19.2468    2.1133    5.7685 C   0  0  0  0  0  0  0  0  0  0  0  0
   19.7461    3.1127    4.7760 C   0  0  0  0  0  0  0  0  0  0  0  0
   14.3675    0.8913    5.1994 C   0  0  0  0  0  0  0  0  0  0  0  0
   13.0079    0.7272    4.9390 C   0  0  0  0  0  0  0  0  0  0  0  0
    9.5039    0.9910    1.9806 N   0  0  0  0  0  0  0  0  0  0  0  0
    5.9271    2.9258    0.3827 C   0  0  0  0  0  0  0  0  0  0  0  0
    1.5521    1.6890    1.0199 H   0  0  0  0  0  0  0  0  0  0  0  0
    1.9129    3.1760    1.9444 H   0  0  0  0  0  0  0  0  0  0  0  0
    3.1938    1.9434    1.6678 H   0  0  0  0  0  0  0  0  0  0  0  0
    3.4085    5.2315    0.8105 H   0  0  0  0  0  0  0  0  0  0  0  0
    4.3006    4.9918   -0.7051 H   0  0  0  0  0  0  0  0  0  0  0  0
    4.7792    5.1051    2.7429 H   0  0  0  0  0  0  0  0  0  0  0  0
    6.6484    4.0959    3.9921 H   0  0  0  0  0  0  0  0  0  0  0  0
    8.0010    2.3478    3.0053 H   0  0  0  0  0  0  0  0  0  0  0  0
    7.5654    1.1990   -0.5403 H   0  0  0  0  0  0  0  0  0  0  0  0
   11.4384   -0.6529   -0.8025 H   0  0  0  0  0  0  0  0  0  0  0  0
   12.5012   -0.4436    1.4452 H   0  0  0  0  0  0  0  0  0  0  0  0
   12.8800    2.2476    1.8925 H   0  0  0  0  0  0  0  0  0  0  0  0
   15.2530    2.4516    2.2971 H   0  0  0  0  0  0  0  0  0  0  0  0
   16.8911    0.9850    5.3101 H   0  0  0  0  0  0  0  0  0  0  0  0
   20.8677    1.8838    2.5530 H   0  0  0  0  0  0  0  0  0  0  0  0
   19.0919   -1.1084    1.5368 H   0  0  0  0  0  0  0  0  0  0  0  0
   20.1035   -3.0510    0.4235 H   0  0  0  0  0  0  0  0  0  0  0  0
   24.0051   -1.2779    0.8926 H   0  0  0  0  0  0  0  0  0  0  0  0
   22.9869    0.7048    1.9458 H   0  0  0  0  0  0  0  0  0  0  0  0
   19.9698    1.4430    6.2219 H   0  0  0  0  0  0  0  0  0  0  0  0
   18.4482    2.4073    6.4416 H   0  0  0  0  0  0  0  0  0  0  0  0
   20.8096    3.1517    4.5897 H   0  0  0  0  0  0  0  0  0  0  0  0
   19.2668    4.0912    4.7791 H   0  0  0  0  0  0  0  0  0  0  0  0
   14.7631    0.5389    6.1484 H   0  0  0  0  0  0  0  0  0  0  0  0
   12.3634    0.2559    5.6768 H   0  0  0  0  0  0  0  0  0  0  0  0
    5.7509    2.6153   -0.6464 H   0  0  0  0  0  0  0  0  0  0  0  0
  1  2  1  0  0  0  0
  1 42  1  0  0  0  0
  1 43  1  0  0  0  0
  1 44  1  0  0  0  0
  2  3  2  0  0  0  0
  2  4  2  0  0  0  0
  2  5  1  0  0  0  0
  5  6  1  0  0  0  0
  5 45  1  0  0  0  0
  5 46  1  0  0  0  0
  6  7  1  0  0  0  0
  6 41  2  0  0  0  0
  7  8  2  0  0  0  0
  7 47  1  0  0  0  0
  8  9  1  0  0  0  0
  8 48  1  0  0  0  0
  9 10  2  0  0  0  0
  9 49  1  0  0  0  0
 10 11  1  0  0  0  0
 10 41  1  0  0  0  0
 11 12  1  0  0  0  0
 11 50  1  0  0  0  0
 12 13  1  0  0  0  0
 12 40  2  0  0  0  0
 13 14  2  0  0  0  0
 14 15  1  0  0  0  0
 14 51  1  0  0  0  0
 15 16  2  0  0  0  0
 15 52  1  0  0  0  0
 16 17  1  0  0  0  0
 16 40  1  0  0  0  0
 17 18  1  0  0  0  0
 18 19  1  0  0  0  0
 18 39  2  0  0  0  0
 19 20  2  0  0  0  0
 19 53  1  0  0  0  0
 20 21  1  0  0  0  0
 20 54  1  0  0  0  0
 21 22  1  0  0  0  0
 21 38  2  0  0  0  0
 22 23  1  0  0  0  0
 22 55  1  0  0  0  0
 23 24  2  0  0  0  0
 23 25  1  0  0  0  0
 25 26  1  0  0  0  0
 25 36  1  0  0  0  0
 25 37  1  0  0  0  0
 26 27  2  0  0  0  0
 26 28  1  0  0  0  0
 28 29  1  0  0  0  0
 28 56  1  0  0  0  0
 29 30  1  0  0  0  0
 29 35  2  0  0  0  0
 30 31  2  0  0  0  0
 30 57  1  0  0  0  0
 31 32  1  0  0  0  0
 31 58  1  0  0  0  0
 32 33  1  0  0  0  0
 32 34  2  0  0  0  0
 34 35  1  0  0  0  0
 34 59  1  0  0  0  0
 35 60  1  0  0  0  0
 36 37  1  0  0  0  0
 36 61  1  0  0  0  0
 36 62  1  0  0  0  0
 37 63  1  0  0  0  0
 37 64  1  0  0  0  0
 38 39  1  0  0  0  0
 38 65  1  0  0  0  0
 39 66  1  0  0  0  0
 41 67  1  0  0  0  0
M  END
$$$$
