CHEMBL521652
 OpenBabel04072215383D

 51 54  0  0  0  0  0  0  0  0999 V2000
    2.5535    0.2412   -0.0863 C   0  0  0  0  0  0  0  0  0  0  0  0
    1.0542    0.1330    0.0060 C   0  0  0  0  0  0  0  0  0  0  0  0
    0.3391    1.3148    0.2667 C   0  0  0  0  0  0  0  0  0  0  0  0
   -1.0546    1.3215    0.3451 C   0  0  0  0  0  0  0  0  0  0  0  0
   -1.7690    0.1435    0.1898 C   0  0  0  0  0  0  0  0  0  0  0  0
   -3.1839    0.0641    0.1951 N   0  0  0  0  0  0  0  0  0  0  0  0
   -4.0616    1.0763    0.5370 C   0  0  0  0  0  0  0  0  0  0  0  0
   -3.7484    2.1930    0.9468 O   0  0  0  0  0  0  0  0  0  0  0  0
   -5.5210    0.7926    0.3838 C   0  0  0  0  0  0  0  0  0  0  0  0
   -6.0708   -0.4927    0.4406 C   0  0  0  0  0  0  0  0  0  0  0  0
   -7.4577   -0.6700    0.3134 C   0  0  0  0  0  0  0  0  0  0  0  0
   -8.3059    0.4328    0.1317 C   0  0  0  0  0  0  0  0  0  0  0  0
   -9.7722    0.2062    0.0212 C   0  0  0  0  0  0  0  0  0  0  0  0
  -10.2996   -0.7959    0.4962 O   0  0  0  0  0  0  0  0  0  0  0  0
  -10.4921    1.1574   -0.6651 N   0  0  0  0  0  0  0  0  0  0  0  0
  -11.8638    0.8741   -0.8574 O   0  0  0  0  0  0  0  0  0  0  0  0
   -7.7611    1.7197    0.1082 C   0  0  0  0  0  0  0  0  0  0  0  0
   -6.3795    1.8944    0.2322 C   0  0  0  0  0  0  0  0  0  0  0  0
   -1.0567   -1.0427   -0.0248 C   0  0  0  0  0  0  0  0  0  0  0  0
    0.3505   -1.0831   -0.1367 C   0  0  0  0  0  0  0  0  0  0  0  0
    1.0398   -2.2791   -0.4501 N   0  0  0  0  0  0  0  0  0  0  0  0
    0.5231   -3.4050   -1.0058 C   0  0  0  0  0  0  0  0  0  0  0  0
   -0.7483   -3.7211   -1.1086 N   0  0  0  0  0  0  0  0  0  0  0  0
   -0.9099   -4.9310   -1.7293 C   0  0  0  0  0  0  0  0  0  0  0  0
    0.2454   -5.5682   -2.1341 C   0  0  0  0  0  0  0  0  0  0  0  0
    0.3933   -6.8531   -2.8187 C   0  0  0  0  0  0  0  0  0  0  0  0
   -0.6207   -7.3400   -3.6552 C   0  0  0  0  0  0  0  0  0  0  0  0
   -0.4959   -8.5903   -4.2578 C   0  0  0  0  0  0  0  0  0  0  0  0
    0.6510   -9.3232   -4.0105 C   0  0  0  0  0  0  0  0  0  0  0  0
    1.6562   -8.8947   -3.2212 N   0  0  0  0  0  0  0  0  0  0  0  0
    1.5036   -7.6771   -2.6449 C   0  0  0  0  0  0  0  0  0  0  0  0
    1.5851   -4.5825   -1.6961 S   0  0  0  0  0  0  0  0  0  0  0  0
    2.8583    1.2744   -0.2916 H   0  0  0  0  0  0  0  0  0  0  0  0
    2.9519   -0.3615   -0.9077 H   0  0  0  0  0  0  0  0  0  0  0  0
    3.0154   -0.0675    0.8565 H   0  0  0  0  0  0  0  0  0  0  0  0
    0.8651    2.2605    0.3867 H   0  0  0  0  0  0  0  0  0  0  0  0
   -1.5478    2.2747    0.5004 H   0  0  0  0  0  0  0  0  0  0  0  0
   -3.5631   -0.8168   -0.1213 H   0  0  0  0  0  0  0  0  0  0  0  0
   -5.4554   -1.3697    0.6182 H   0  0  0  0  0  0  0  0  0  0  0  0
   -7.8783   -1.6735    0.3687 H   0  0  0  0  0  0  0  0  0  0  0  0
  -10.0829    1.8445   -1.2880 H   0  0  0  0  0  0  0  0  0  0  0  0
  -11.9788    0.0432   -0.3458 H   0  0  0  0  0  0  0  0  0  0  0  0
   -8.3907    2.6028    0.0327 H   0  0  0  0  0  0  0  0  0  0  0  0
   -5.9710    2.9045    0.2252 H   0  0  0  0  0  0  0  0  0  0  0  0
   -1.6258   -1.9638   -0.0860 H   0  0  0  0  0  0  0  0  0  0  0  0
    2.0475   -2.2105   -0.4238 H   0  0  0  0  0  0  0  0  0  0  0  0
   -1.9159   -5.3175   -1.8544 H   0  0  0  0  0  0  0  0  0  0  0  0
   -1.5175   -6.7554   -3.8514 H   0  0  0  0  0  0  0  0  0  0  0  0
   -1.2759   -8.9831   -4.9010 H   0  0  0  0  0  0  0  0  0  0  0  0
    0.7956  -10.3050   -4.4507 H   0  0  0  0  0  0  0  0  0  0  0  0
    2.3318   -7.3946   -2.0004 H   0  0  0  0  0  0  0  0  0  0  0  0
  1  2  1  0  0  0  0
  1 33  1  0  0  0  0
  1 34  1  0  0  0  0
  1 35  1  0  0  0  0
  2  3  1  0  0  0  0
  2 20  2  0  0  0  0
  3  4  2  0  0  0  0
  3 36  1  0  0  0  0
  4  5  1  0  0  0  0
  4 37  1  0  0  0  0
  5  6  1  0  0  0  0
  5 19  2  0  0  0  0
  6  7  1  0  0  0  0
  6 38  1  0  0  0  0
  7  8  2  0  0  0  0
  7  9  1  0  0  0  0
  9 10  1  0  0  0  0
  9 18  2  0  0  0  0
 10 11  2  0  0  0  0
 10 39  1  0  0  0  0
 11 12  1  0  0  0  0
 11 40  1  0  0  0  0
 12 13  1  0  0  0  0
 12 17  2  0  0  0  0
 13 14  2  0  0  0  0
 13 15  1  0  0  0  0
 15 16  1  0  0  0  0
 15 41  1  0  0  0  0
 16 42  1  0  0  0  0
 17 18  1  0  0  0  0
 17 43  1  0  0  0  0
 18 44  1  0  0  0  0
 19 20  1  0  0  0  0
 19 45  1  0  0  0  0
 20 21  1  0  0  0  0
 21 22  1  0  0  0  0
 21 46  1  0  0  0  0
 22 23  2  0  0  0  0
 22 32  1  0  0  0  0
 23 24  1  0  0  0  0
 24 25  2  0  0  0  0
 24 47  1  0  0  0  0
 25 26  1  0  0  0  0
 25 32  1  0  0  0  0
 26 27  1  0  0  0  0
 26 31  2  0  0  0  0
 27 28  2  0  0  0  0
 27 48  1  0  0  0  0
 28 29  1  0  0  0  0
 28 49  1  0  0  0  0
 29 30  2  0  0  0  0
 29 50  1  0  0  0  0
 30 31  1  0  0  0  0
 31 51  1  0  0  0  0
M  END
$$$$
