CHEMBL1945502
 OpenBabel04072215363D

 58 61  0  0  0  0  0  0  0  0999 V2000
    1.2029    0.5351    0.1650 C   0  0  0  0  0  0  0  0  0  0  0  0
    2.4840   -0.0223   -0.1239 O   0  0  0  0  0  0  0  0  0  0  0  0
    3.1186    0.4890   -1.2269 C   0  0  0  0  0  0  0  0  0  0  0  0
    2.7854    1.7056   -1.8291 C   0  0  0  0  0  0  0  0  0  0  0  0
    3.4237    2.1317   -2.9953 C   0  0  0  0  0  0  0  0  0  0  0  0
    4.4218    1.3650   -3.5872 C   0  0  0  0  0  0  0  0  0  0  0  0
    4.9611    1.6382   -4.8451 N   0  0  0  0  0  0  0  0  0  0  0  0
    4.7784    2.6512   -5.7843 C   0  0  0  0  0  0  0  0  0  0  0  0
    5.6371    2.5714   -6.8176 N   0  0  0  0  0  0  0  0  0  0  0  0
    5.7841    3.6636   -7.5714 C   0  0  0  0  0  0  0  0  0  0  0  0
    5.1070    4.8280   -7.3215 C   0  0  0  0  0  0  0  0  0  0  0  0
    4.0931    4.7622   -6.3814 C   0  0  0  0  0  0  0  0  0  0  0  0
    3.9168    3.6698   -5.6095 N   0  0  0  0  0  0  0  0  0  0  0  0
    3.3326    5.9812   -6.0441 C   0  0  0  0  0  0  0  0  0  0  0  0
    1.9718    6.1076   -6.3632 C   0  0  0  0  0  0  0  0  0  0  0  0
    1.2808    7.2921   -6.0751 C   0  0  0  0  0  0  0  0  0  0  0  0
    1.9176    8.3108   -5.3693 C   0  0  0  0  0  0  0  0  0  0  0  0
    1.0652    9.7597   -5.0058 Cl  0  0  0  0  0  0  0  0  0  0  0  0
    3.2637    8.2047   -5.0305 C   0  0  0  0  0  0  0  0  0  0  0  0
    3.9886    7.0976   -5.4719 C   0  0  0  0  0  0  0  0  0  0  0  0
    5.3975    7.2058   -5.4406 N   0  0  0  0  0  0  0  0  0  0  0  0
    6.2402    6.7969   -6.4532 C   0  0  0  0  0  0  0  0  0  0  0  0
    7.8927    6.9996   -6.2840 S   0  0  0  0  0  0  0  0  0  0  0  0
    5.6397    6.1654   -7.7195 C   0  0  0  0  0  0  0  0  0  0  0  0
    4.8175    0.1928   -2.9248 C   0  0  0  0  0  0  0  0  0  0  0  0
    4.1740   -0.2643   -1.7615 C   0  0  0  0  0  0  0  0  0  0  0  0
    4.5877   -1.6079   -1.1919 C   0  0  0  0  0  0  0  0  0  0  0  0
    3.8199   -2.7927   -1.7952 C   0  0  0  0  0  0  0  0  0  0  0  0
    4.0807   -3.0624   -3.2903 C   0  0  0  0  0  0  0  0  0  0  0  0
    5.4974   -3.2539   -3.6580 N   0  0  0  0  0  0  0  0  0  0  0  0
    6.0677   -4.4526   -3.0406 C   0  0  0  0  0  0  0  0  0  0  0  0
    5.6269   -3.3372   -5.1145 C   0  0  0  0  0  0  0  0  0  0  0  0
    0.7709   -0.0330    0.9943 H   0  0  0  0  0  0  0  0  0  0  0  0
    0.5249    0.4471   -0.6919 H   0  0  0  0  0  0  0  0  0  0  0  0
    1.2922    1.5749    0.4929 H   0  0  0  0  0  0  0  0  0  0  0  0
    2.0123    2.3508   -1.4246 H   0  0  0  0  0  0  0  0  0  0  0  0
    3.1040    3.0694   -3.4373 H   0  0  0  0  0  0  0  0  0  0  0  0
    5.7798    1.1043   -5.1034 H   0  0  0  0  0  0  0  0  0  0  0  0
    6.5550    3.5994   -8.3320 H   0  0  0  0  0  0  0  0  0  0  0  0
    1.4625    5.3109   -6.9008 H   0  0  0  0  0  0  0  0  0  0  0  0
    0.2547    7.4133   -6.4103 H   0  0  0  0  0  0  0  0  0  0  0  0
    3.7603    9.0304   -4.5294 H   0  0  0  0  0  0  0  0  0  0  0  0
    5.8230    7.7936   -4.7304 H   0  0  0  0  0  0  0  0  0  0  0  0
    6.3818    6.0706   -8.5189 H   0  0  0  0  0  0  0  0  0  0  0  0
    4.8410    6.8056   -8.1151 H   0  0  0  0  0  0  0  0  0  0  0  0
    5.6227   -0.4106   -3.3478 H   0  0  0  0  0  0  0  0  0  0  0  0
    4.4299   -1.5982   -0.1070 H   0  0  0  0  0  0  0  0  0  0  0  0
    5.6696   -1.7431   -1.3176 H   0  0  0  0  0  0  0  0  0  0  0  0
    2.7418   -2.6323   -1.6626 H   0  0  0  0  0  0  0  0  0  0  0  0
    4.0598   -3.6928   -1.2157 H   0  0  0  0  0  0  0  0  0  0  0  0
    3.6742   -2.2168   -3.8585 H   0  0  0  0  0  0  0  0  0  0  0  0
    3.4905   -3.9393   -3.5919 H   0  0  0  0  0  0  0  0  0  0  0  0
    6.1155   -4.3503   -1.9522 H   0  0  0  0  0  0  0  0  0  0  0  0
    7.1012   -4.6028   -3.3740 H   0  0  0  0  0  0  0  0  0  0  0  0
    5.4959   -5.3553   -3.2836 H   0  0  0  0  0  0  0  0  0  0  0  0
    5.2477   -2.4253   -5.5899 H   0  0  0  0  0  0  0  0  0  0  0  0
    5.0843   -4.1945   -5.5298 H   0  0  0  0  0  0  0  0  0  0  0  0
    6.6825   -3.4227   -5.4028 H   0  0  0  0  0  0  0  0  0  0  0  0
  1  2  1  0  0  0  0
  1 33  1  0  0  0  0
  1 34  1  0  0  0  0
  1 35  1  0  0  0  0
  2  3  1  0  0  0  0
  3  4  1  0  0  0  0
  3 26  2  0  0  0  0
  4  5  2  0  0  0  0
  4 36  1  0  0  0  0
  5  6  1  0  0  0  0
  5 37  1  0  0  0  0
  6  7  1  0  0  0  0
  6 25  2  0  0  0  0
  7  8  1  0  0  0  0
  7 38  1  0  0  0  0
  8  9  1  0  0  0  0
  8 13  2  0  0  0  0
  9 10  2  0  0  0  0
 10 11  1  0  0  0  0
 10 39  1  0  0  0  0
 11 12  2  0  0  0  0
 11 24  1  0  0  0  0
 12 13  1  0  0  0  0
 12 14  1  0  0  0  0
 14 15  1  0  0  0  0
 14 20  2  0  0  0  0
 15 16  2  0  0  0  0
 15 40  1  0  0  0  0
 16 17  1  0  0  0  0
 16 41  1  0  0  0  0
 17 18  1  0  0  0  0
 17 19  2  0  0  0  0
 19 20  1  0  0  0  0
 19 42  1  0  0  0  0
 20 21  1  0  0  0  0
 21 22  1  0  0  0  0
 21 43  1  0  0  0  0
 22 23  2  0  0  0  0
 22 24  1  0  0  0  0
 24 44  1  0  0  0  0
 24 45  1  0  0  0  0
 25 26  1  0  0  0  0
 25 46  1  0  0  0  0
 26 27  1  0  0  0  0
 27 28  1  0  0  0  0
 27 47  1  0  0  0  0
 27 48  1  0  0  0  0
 28 29  1  0  0  0  0
 28 49  1  0  0  0  0
 28 50  1  0  0  0  0
 29 30  1  0  0  0  0
 29 51  1  0  0  0  0
 29 52  1  0  0  0  0
 30 31  1  0  0  0  0
 30 32  1  0  0  0  0
 31 53  1  0  0  0  0
 31 54  1  0  0  0  0
 31 55  1  0  0  0  0
 32 56  1  0  0  0  0
 32 57  1  0  0  0  0
 32 58  1  0  0  0  0
M  END
$$$$
