CHEMBL3943327
 OpenBabel04072215373D

 69 71  0  0  0  0  0  0  0  0999 V2000
    1.7393    8.2386    2.7841 C   0  0  0  0  0  0  0  0  0  0  0  0
    2.7852    8.0558    1.8263 O   0  0  0  0  0  0  0  0  0  0  0  0
    3.6575    7.0577    2.1440 C   0  0  0  0  0  0  0  0  0  0  0  0
    3.5890    6.3603    3.1473 O   0  0  0  0  0  0  0  0  0  0  0  0
    4.7205    6.9429    1.0728 C   0  0  0  0  0  0  0  0  0  0  0  0
    5.7246    5.8332    1.3955 C   0  0  0  0  0  0  0  0  0  0  0  0
    6.8110    5.7038    0.3250 C   0  0  0  0  0  0  0  0  0  0  0  0
    7.8117    4.6049    0.6802 C   0  0  0  0  0  0  0  0  0  0  0  0
    9.0591    4.3844   -0.5908 S   0  0  3  0  0  0  0  0  0  0  0  0
   10.0257    3.0446    0.0879 C   0  0  0  0  0  0  0  0  0  0  0  0
    8.3692    3.8714   -1.7567 O   0  0  0  0  0  0  0  0  0  0  0  0
    9.9440    5.6548   -0.6057 N   0  0  0  0  0  0  0  0  0  0  0  0
   11.0052    5.7499   -1.5295 C   0  0  0  0  0  0  0  0  0  0  0  0
   11.5673    4.7545   -1.9809 O   0  0  0  0  0  0  0  0  0  0  0  0
   11.5912    7.0577   -1.9274 C   0  0  0  0  0  0  0  0  0  0  0  0
   11.0844    8.2576   -1.4588 C   0  0  0  0  0  0  0  0  0  0  0  0
   11.6212    9.4736   -1.7549 N   0  0  0  0  0  0  0  0  0  0  0  0
   12.7098    9.5026   -2.5550 C   0  0  0  0  0  0  0  0  0  0  0  0
   13.2869   10.7584   -2.7369 N   0  0  0  0  0  0  0  0  0  0  0  0
   13.2748    8.3407   -3.0940 C   0  0  0  0  0  0  0  0  0  0  0  0
   14.4033    8.3750   -3.9772 C   0  0  0  0  0  0  0  0  0  0  0  0
   15.3124    8.4025   -4.7569 C   0  0  0  0  0  0  0  0  0  0  0  0
   16.3526    8.4534   -5.7374 C   0  0  0  0  0  0  0  0  0  0  0  0
   16.8096    9.6973   -6.1895 C   0  0  0  0  0  0  0  0  0  0  0  0
   17.8001    9.7687   -7.1652 C   0  0  0  0  0  0  0  0  0  0  0  0
   18.3298    8.5940   -7.6905 C   0  0  0  0  0  0  0  0  0  0  0  0
   17.8745    7.3426   -7.2437 C   0  0  0  0  0  0  0  0  0  0  0  0
   18.5291    6.1457   -7.8224 C   0  0  0  0  0  0  0  0  0  0  0  0
   19.7073    6.2662   -8.1429 O   0  0  0  0  0  0  0  0  0  0  0  0
   17.7331    5.0289   -8.0330 N   0  0  0  0  0  0  0  0  0  0  0  0
   18.1720    3.8617   -8.7106 C   0  0  0  0  0  0  0  0  0  0  0  0
   19.5235    3.5647   -8.9061 C   0  0  0  0  0  0  0  0  0  0  0  0
   19.9262    2.4938   -9.7161 C   0  0  0  0  0  0  0  0  0  0  0  0
   21.3840    2.2889  -10.0063 C   0  0  0  0  0  0  0  0  0  0  0  0
   18.9541    1.6761  -10.3001 C   0  0  0  0  0  0  0  0  0  0  0  0
   17.6006    1.9144  -10.0519 C   0  0  0  0  0  0  0  0  0  0  0  0
   17.2212    2.9964   -9.2579 C   0  0  0  0  0  0  0  0  0  0  0  0
   15.9135    3.2340   -9.0651 F   0  0  0  0  0  0  0  0  0  0  0  0
   16.8889    7.2688   -6.2562 C   0  0  0  0  0  0  0  0  0  0  0  0
   12.7000    7.1098   -2.7777 C   0  0  0  0  0  0  0  0  0  0  0  0
    1.0994    9.0559    2.4398 H   0  0  0  0  0  0  0  0  0  0  0  0
    2.1550    8.5127    3.7590 H   0  0  0  0  0  0  0  0  0  0  0  0
    1.1296    7.3329    2.8640 H   0  0  0  0  0  0  0  0  0  0  0  0
    5.2400    7.9049    1.0013 H   0  0  0  0  0  0  0  0  0  0  0  0
    4.2245    6.7312    0.1190 H   0  0  0  0  0  0  0  0  0  0  0  0
    5.1922    4.8787    1.4950 H   0  0  0  0  0  0  0  0  0  0  0  0
    6.1907    6.0353    2.3680 H   0  0  0  0  0  0  0  0  0  0  0  0
    7.3352    6.6598    0.2135 H   0  0  0  0  0  0  0  0  0  0  0  0
    6.3464    5.4827   -0.6433 H   0  0  0  0  0  0  0  0  0  0  0  0
    7.2979    3.6423    0.7799 H   0  0  0  0  0  0  0  0  0  0  0  0
    8.3239    4.8247    1.6228 H   0  0  0  0  0  0  0  0  0  0  0  0
    9.3845    2.1666    0.1836 H   0  0  0  0  0  0  0  0  0  0  0  0
   10.4182    3.3367    1.0649 H   0  0  0  0  0  0  0  0  0  0  0  0
   10.8470    2.8114   -0.5915 H   0  0  0  0  0  0  0  0  0  0  0  0
   10.2168    8.2945   -0.8044 H   0  0  0  0  0  0  0  0  0  0  0  0
   12.6676   11.4565   -2.3359 H   0  0  0  0  0  0  0  0  0  0  0  0
   13.5332   10.9444   -3.7010 H   0  0  0  0  0  0  0  0  0  0  0  0
   16.3992   10.6186   -5.7819 H   0  0  0  0  0  0  0  0  0  0  0  0
   18.1641   10.7311   -7.5149 H   0  0  0  0  0  0  0  0  0  0  0  0
   19.1094    8.6506   -8.4496 H   0  0  0  0  0  0  0  0  0  0  0  0
   16.7272    5.1194   -7.9255 H   0  0  0  0  0  0  0  0  0  0  0  0
   20.2973    4.1708   -8.4451 H   0  0  0  0  0  0  0  0  0  0  0  0
   22.0112    2.9310   -9.3769 H   0  0  0  0  0  0  0  0  0  0  0  0
   21.5918    2.5414  -11.0508 H   0  0  0  0  0  0  0  0  0  0  0  0
   21.6746    1.2519   -9.8153 H   0  0  0  0  0  0  0  0  0  0  0  0
   19.2486    0.8599  -10.9558 H   0  0  0  0  0  0  0  0  0  0  0  0
   16.8405    1.2822  -10.5005 H   0  0  0  0  0  0  0  0  0  0  0  0
   16.5600    6.3090   -5.8683 H   0  0  0  0  0  0  0  0  0  0  0  0
   13.1239    6.1928   -3.1821 H   0  0  0  0  0  0  0  0  0  0  0  0
  1  2  1  0  0  0  0
  1 41  1  0  0  0  0
  1 42  1  0  0  0  0
  1 43  1  0  0  0  0
  2  3  1  0  0  0  0
  3  4  2  0  0  0  0
  3  5  1  0  0  0  0
  5  6  1  0  0  0  0
  5 44  1  0  0  0  0
  5 45  1  0  0  0  0
  6  7  1  0  0  0  0
  6 46  1  0  0  0  0
  6 47  1  0  0  0  0
  7  8  1  0  0  0  0
  7 48  1  0  0  0  0
  7 49  1  0  0  0  0
  8  9  1  0  0  0  0
  8 50  1  0  0  0  0
  8 51  1  0  0  0  0
  9 10  1  0  0  0  0
  9 11  2  0  0  0  0
  9 12  2  0  0  0  0
 10 52  1  0  0  0  0
 10 53  1  0  0  0  0
 10 54  1  0  0  0  0
 12 13  1  0  0  0  0
 13 14  2  0  0  0  0
 13 15  1  0  0  0  0
 15 16  1  0  0  0  0
 15 40  2  0  0  0  0
 16 17  2  0  0  0  0
 16 55  1  0  0  0  0
 17 18  1  0  0  0  0
 18 19  1  0  0  0  0
 18 20  2  0  0  0  0
 19 56  1  0  0  0  0
 19 57  1  0  0  0  0
 20 21  1  0  0  0  0
 20 40  1  0  0  0  0
 21 22  3  0  0  0  0
 22 23  1  0  0  0  0
 23 24  1  0  0  0  0
 23 39  2  0  0  0  0
 24 25  2  0  0  0  0
 24 58  1  0  0  0  0
 25 26  1  0  0  0  0
 25 59  1  0  0  0  0
 26 27  2  0  0  0  0
 26 60  1  0  0  0  0
 27 28  1  0  0  0  0
 27 39  1  0  0  0  0
 28 29  2  0  0  0  0
 28 30  1  0  0  0  0
 30 31  1  0  0  0  0
 30 61  1  0  0  0  0
 31 32  1  0  0  0  0
 31 37  2  0  0  0  0
 32 33  2  0  0  0  0
 32 62  1  0  0  0  0
 33 34  1  0  0  0  0
 33 35  1  0  0  0  0
 34 63  1  0  0  0  0
 34 64  1  0  0  0  0
 34 65  1  0  0  0  0
 35 36  2  0  0  0  0
 35 66  1  0  0  0  0
 36 37  1  0  0  0  0
 36 67  1  0  0  0  0
 37 38  1  0  0  0  0
 39 68  1  0  0  0  0
 40 69  1  0  0  0  0
M  END
$$$$
