CHEMBL393924
 OpenBabel04072215373D

 45 48  0  0  0  0  0  0  0  0999 V2000
   -2.1573   -0.1410   -0.0248 C   0  0  0  0  0  0  0  0  0  0  0  0
   -0.7113   -0.2155    0.0200 N   0  0  0  0  0  0  0  0  0  0  0  0
   -0.0108    0.9333   -0.0299 N   0  0  0  0  0  0  0  0  0  0  0  0
    1.2540    0.5240    0.0032 C   0  0  0  0  0  0  0  0  0  0  0  0
    1.3685   -0.8839    0.0804 C   0  0  0  0  0  0  0  0  0  0  0  0
    2.5563   -1.5392    0.0965 N   0  0  0  0  0  0  0  0  0  0  0  0
    2.8105   -2.7711   -0.6427 C   0  0  0  0  0  0  0  0  0  0  0  0
    3.8993   -3.5590    0.0533 C   0  0  0  0  0  0  0  0  0  0  0  0
    4.1828   -3.4024    1.4182 C   0  0  0  0  0  0  0  0  0  0  0  0
    5.1825   -4.1698    1.9925 C   0  0  0  0  0  0  0  0  0  0  0  0
    5.8982   -5.0889    1.3149 N   0  0  0  0  0  0  0  0  0  0  0  0
    5.6062   -5.2412    0.0061 C   0  0  0  0  0  0  0  0  0  0  0  0
    4.6295   -4.5147   -0.6592 C   0  0  0  0  0  0  0  0  0  0  0  0
    0.0693   -1.3535    0.1499 C   0  0  0  0  0  0  0  0  0  0  0  0
   -0.5312   -2.6630    0.2570 C   0  0  0  0  0  0  0  0  0  0  0  0
   -1.6013   -2.8836   -0.3055 O   0  0  0  0  0  0  0  0  0  0  0  0
    0.1490   -3.6253    0.9943 N   0  0  0  0  0  0  0  0  0  0  0  0
   -0.2893   -4.9720    1.1297 C   0  0  0  0  0  0  0  0  0  0  0  0
   -1.6035   -5.3600    0.8808 C   0  0  0  0  0  0  0  0  0  0  0  0
   -2.0521   -6.6341    0.8623 N   0  0  0  0  0  0  0  0  0  0  0  0
   -1.1775   -7.6036    1.1249 C   0  0  0  0  0  0  0  0  0  0  0  0
   -1.6234   -8.9101    1.0169 C   0  0  0  0  0  0  0  0  0  0  0  0
   -0.7882   -9.9893    1.2919 C   0  0  0  0  0  0  0  0  0  0  0  0
    0.5173   -9.7534    1.7074 C   0  0  0  0  0  0  0  0  0  0  0  0
    0.9947   -8.4407    1.8034 C   0  0  0  0  0  0  0  0  0  0  0  0
    0.1625   -7.3448    1.4891 C   0  0  0  0  0  0  0  0  0  0  0  0
    0.5967   -5.9918    1.4906 C   0  0  0  0  0  0  0  0  0  0  0  0
   -2.4703    0.9057    0.0246 H   0  0  0  0  0  0  0  0  0  0  0  0
   -2.5644   -0.6809    0.8339 H   0  0  0  0  0  0  0  0  0  0  0  0
   -2.4967   -0.5785   -0.9670 H   0  0  0  0  0  0  0  0  0  0  0  0
    2.0388    1.2661   -0.0530 H   0  0  0  0  0  0  0  0  0  0  0  0
    3.3844   -0.9441    0.0319 H   0  0  0  0  0  0  0  0  0  0  0  0
    3.1291   -2.5130   -1.6599 H   0  0  0  0  0  0  0  0  0  0  0  0
    1.9302   -3.4093   -0.7355 H   0  0  0  0  0  0  0  0  0  0  0  0
    3.6489   -2.6837    2.0331 H   0  0  0  0  0  0  0  0  0  0  0  0
    5.4400   -4.0581    3.0418 H   0  0  0  0  0  0  0  0  0  0  0  0
    6.1999   -5.9878   -0.5140 H   0  0  0  0  0  0  0  0  0  0  0  0
    4.4492   -4.6956   -1.7141 H   0  0  0  0  0  0  0  0  0  0  0  0
    1.0770   -3.3804    1.3309 H   0  0  0  0  0  0  0  0  0  0  0  0
   -2.3956   -4.6443    0.6940 H   0  0  0  0  0  0  0  0  0  0  0  0
   -2.6485   -9.0871    0.6985 H   0  0  0  0  0  0  0  0  0  0  0  0
   -1.1656  -11.0028    1.1832 H   0  0  0  0  0  0  0  0  0  0  0  0
    1.1632  -10.5949    1.9471 H   0  0  0  0  0  0  0  0  0  0  0  0
    2.0230   -8.2821    2.1197 H   0  0  0  0  0  0  0  0  0  0  0  0
    1.6368   -5.7694    1.7175 H   0  0  0  0  0  0  0  0  0  0  0  0
  1  2  1  0  0  0  0
  1 28  1  0  0  0  0
  1 29  1  0  0  0  0
  1 30  1  0  0  0  0
  2  3  1  0  0  0  0
  2 14  1  0  0  0  0
  3  4  2  0  0  0  0
  4  5  1  0  0  0  0
  4 31  1  0  0  0  0
  5  6  1  0  0  0  0
  5 14  2  0  0  0  0
  6  7  1  0  0  0  0
  6 32  1  0  0  0  0
  7  8  1  0  0  0  0
  7 33  1  0  0  0  0
  7 34  1  0  0  0  0
  8  9  1  0  0  0  0
  8 13  2  0  0  0  0
  9 10  2  0  0  0  0
  9 35  1  0  0  0  0
 10 11  1  0  0  0  0
 10 36  1  0  0  0  0
 11 12  2  0  0  0  0
 12 13  1  0  0  0  0
 12 37  1  0  0  0  0
 13 38  1  0  0  0  0
 14 15  1  0  0  0  0
 15 16  2  0  0  0  0
 15 17  1  0  0  0  0
 17 18  1  0  0  0  0
 17 39  1  0  0  0  0
 18 19  1  0  0  0  0
 18 27  2  0  0  0  0
 19 20  2  0  0  0  0
 19 40  1  0  0  0  0
 20 21  1  0  0  0  0
 21 22  1  0  0  0  0
 21 26  2  0  0  0  0
 22 23  2  0  0  0  0
 22 41  1  0  0  0  0
 23 24  1  0  0  0  0
 23 42  1  0  0  0  0
 24 25  2  0  0  0  0
 24 43  1  0  0  0  0
 25 26  1  0  0  0  0
 25 44  1  0  0  0  0
 26 27  1  0  0  0  0
 27 45  1  0  0  0  0
M  END
$$$$
