CHEMBL1940856
 OpenBabel04072215363D

 33 35  0  0  0  0  0  0  0  0999 V2000
    0.9950    0.1022    0.0403 C   0  0  0  0  0  0  0  0  0  0  0  0
    2.4928    0.1182    0.1167 C   0  0  0  0  0  0  0  0  0  0  0  0
    3.2124    1.3136    0.1156 C   0  0  0  0  0  0  0  0  0  0  0  0
    4.6066    1.2904    0.1978 C   0  0  0  0  0  0  0  0  0  0  0  0
    5.2980    0.0672    0.2686 C   0  0  0  0  0  0  0  0  0  0  0  0
    6.7031   -0.0037    0.3323 C   0  0  0  0  0  0  0  0  0  0  0  0
    7.3665   -1.2385    0.3661 C   0  0  0  0  0  0  0  0  0  0  0  0
    8.8443   -1.2105    0.3753 C   0  0  0  0  0  0  0  0  0  0  0  0
    9.6311   -2.1237    0.9654 C   0  0  0  0  0  0  0  0  0  0  0  0
   11.1276   -2.0425    0.9331 C   0  0  0  0  0  0  0  0  0  0  0  0
   11.6783   -0.9692    0.7103 O   0  0  0  0  0  0  0  0  0  0  0  0
   11.8187   -3.2959    1.2113 C   0  0  0  0  0  0  0  0  0  0  0  0
   11.4239   -4.5917    0.9133 C   0  0  0  0  0  0  0  0  0  0  0  0
   12.3367   -5.5692    1.4092 C   0  0  0  0  0  0  0  0  0  0  0  0
   13.3918   -4.9739    2.0481 C   0  0  0  0  0  0  0  0  0  0  0  0
   14.6984   -5.7769    2.8200 Cl  0  0  0  0  0  0  0  0  0  0  0  0
   13.3268   -3.2824    2.0299 S   0  0  0  0  0  0  0  0  0  0  0  0
    6.5365   -2.3635    0.3190 C   0  0  0  0  0  0  0  0  0  0  0  0
    7.1059   -3.9896    0.2106 Cl  0  0  0  0  0  0  0  0  0  0  0  0
    5.1834   -2.3343    0.2943 N   0  0  0  0  0  0  0  0  0  0  0  0
    4.5787   -1.1413    0.2639 C   0  0  0  0  0  0  0  0  0  0  0  0
    3.1931   -1.0934    0.2040 C   0  0  0  0  0  0  0  0  0  0  0  0
    0.5908    1.0997   -0.1593 H   0  0  0  0  0  0  0  0  0  0  0  0
    0.5748   -0.2555    0.9856 H   0  0  0  0  0  0  0  0  0  0  0  0
    0.6654   -0.5571   -0.7698 H   0  0  0  0  0  0  0  0  0  0  0  0
    2.6962    2.2691    0.0462 H   0  0  0  0  0  0  0  0  0  0  0  0
    5.1494    2.2332    0.1939 H   0  0  0  0  0  0  0  0  0  0  0  0
    7.2785    0.9210    0.3479 H   0  0  0  0  0  0  0  0  0  0  0  0
    9.3067   -0.3575   -0.1270 H   0  0  0  0  0  0  0  0  0  0  0  0
    9.2295   -2.9712    1.5046 H   0  0  0  0  0  0  0  0  0  0  0  0
   10.5185   -4.8369    0.3686 H   0  0  0  0  0  0  0  0  0  0  0  0
   12.2141   -6.6404    1.3041 H   0  0  0  0  0  0  0  0  0  0  0  0
    2.6439   -2.0332    0.2112 H   0  0  0  0  0  0  0  0  0  0  0  0
  1  2  1  0  0  0  0
  1 23  1  0  0  0  0
  1 24  1  0  0  0  0
  1 25  1  0  0  0  0
  2  3  1  0  0  0  0
  2 22  2  0  0  0  0
  3  4  2  0  0  0  0
  3 26  1  0  0  0  0
  4  5  1  0  0  0  0
  4 27  1  0  0  0  0
  5  6  1  0  0  0  0
  5 21  2  0  0  0  0
  6  7  2  0  0  0  0
  6 28  1  0  0  0  0
  7  8  1  0  0  0  0
  7 18  1  0  0  0  0
  8  9  2  0  0  0  0
  8 29  1  0  0  0  0
  9 10  1  0  0  0  0
  9 30  1  0  0  0  0
 10 11  2  0  0  0  0
 10 12  1  0  0  0  0
 12 13  2  0  0  0  0
 12 17  1  0  0  0  0
 13 14  1  0  0  0  0
 13 31  1  0  0  0  0
 14 15  2  0  0  0  0
 14 32  1  0  0  0  0
 15 16  1  0  0  0  0
 15 17  1  0  0  0  0
 18 19  1  0  0  0  0
 18 20  2  0  0  0  0
 20 21  1  0  0  0  0
 21 22  1  0  0  0  0
 22 33  1  0  0  0  0
M  END
$$$$
