CHEMBL379370
 OpenBabel04072215373D

 45 48  0  0  0  0  0  0  0  0999 V2000
    1.4291    0.6610    0.1192 O   0  0  0  0  0  0  0  0  0  0  0  0
    2.6335    0.4538    0.0205 C   0  0  0  0  0  0  0  0  0  0  0  0
    3.5111    0.4827    1.0883 N   0  0  0  0  0  0  0  0  0  0  0  0
    3.0722    0.8048    2.4109 C   0  0  0  0  0  0  0  0  0  0  0  0
    4.0479    0.8491    3.5556 C   0  0  0  0  0  0  0  0  0  0  0  0
    3.0301   -0.2505    3.4829 C   0  0  0  0  0  0  0  0  0  0  0  0
    3.2254    0.2039   -1.3210 C   0  0  0  0  0  0  0  0  0  0  0  0
    2.6179    0.8097   -2.4264 C   0  0  0  0  0  0  0  0  0  0  0  0
    3.1434    0.6176   -3.6985 C   0  0  0  0  0  0  0  0  0  0  0  0
    4.2671   -0.1871   -3.8679 C   0  0  0  0  0  0  0  0  0  0  0  0
    4.7308   -0.3377   -5.1181 F   0  0  0  0  0  0  0  0  0  0  0  0
    4.8785   -0.8462   -2.7854 C   0  0  0  0  0  0  0  0  0  0  0  0
    6.0483   -1.6149   -2.8700 N   0  0  0  0  0  0  0  0  0  0  0  0
    6.6508   -1.8802   -4.1724 C   0  0  0  0  0  0  0  0  0  0  0  0
    7.8936   -2.6921   -4.0665 C   0  0  0  0  0  0  0  0  0  0  0  0
    9.1718   -2.2474   -3.8300 C   0  0  0  0  0  0  0  0  0  0  0  0
   10.1351   -3.2215   -3.8061 N   0  0  0  0  0  0  0  0  0  0  0  0
    9.6210   -4.4095   -4.0415 C   0  0  0  0  0  0  0  0  0  0  0  0
   10.3127   -5.5639   -4.1671 N   0  0  0  0  0  0  0  0  0  0  0  0
   11.6641   -5.6620   -4.5125 C   0  0  0  0  0  0  0  0  0  0  0  0
   12.5962   -4.6560   -4.2619 C   0  0  0  0  0  0  0  0  0  0  0  0
   13.8973   -4.7758   -4.7383 C   0  0  0  0  0  0  0  0  0  0  0  0
   14.2586   -5.9221   -5.4232 C   0  0  0  0  0  0  0  0  0  0  0  0
   13.2993   -6.9068   -5.5822 C   0  0  0  0  0  0  0  0  0  0  0  0
   12.0219   -6.8022   -5.1440 N   0  0  0  0  0  0  0  0  0  0  0  0
    7.9003   -4.3983   -4.2254 S   0  0  0  0  0  0  0  0  0  0  0  0
    4.3446   -0.6230   -1.5040 C   0  0  0  0  0  0  0  0  0  0  0  0
    4.5090    0.4703    0.9101 H   0  0  0  0  0  0  0  0  0  0  0  0
    2.2726    1.5448    2.4311 H   0  0  0  0  0  0  0  0  0  0  0  0
    3.9076    1.6204    4.3054 H   0  0  0  0  0  0  0  0  0  0  0  0
    5.0830    0.5920    3.3735 H   0  0  0  0  0  0  0  0  0  0  0  0
    2.1998   -0.2253    4.1798 H   0  0  0  0  0  0  0  0  0  0  0  0
    3.3699   -1.2491    3.2365 H   0  0  0  0  0  0  0  0  0  0  0  0
    1.7408    1.4403   -2.2941 H   0  0  0  0  0  0  0  0  0  0  0  0
    2.6879    1.0877   -4.5654 H   0  0  0  0  0  0  0  0  0  0  0  0
    6.0186   -2.4410   -2.2769 H   0  0  0  0  0  0  0  0  0  0  0  0
    6.9291   -0.9259   -4.6408 H   0  0  0  0  0  0  0  0  0  0  0  0
    5.9364   -2.3813   -4.8358 H   0  0  0  0  0  0  0  0  0  0  0  0
    9.4619   -1.2152   -3.6771 H   0  0  0  0  0  0  0  0  0  0  0  0
    9.8282   -6.3913   -4.4913 H   0  0  0  0  0  0  0  0  0  0  0  0
   12.3303   -3.7610   -3.7132 H   0  0  0  0  0  0  0  0  0  0  0  0
   14.6061   -3.9686   -4.5802 H   0  0  0  0  0  0  0  0  0  0  0  0
   15.2596   -6.0443   -5.8187 H   0  0  0  0  0  0  0  0  0  0  0  0
   13.5377   -7.8354   -6.0932 H   0  0  0  0  0  0  0  0  0  0  0  0
    4.8081   -1.1091   -0.6492 H   0  0  0  0  0  0  0  0  0  0  0  0
  1  2  2  0  0  0  0
  2  3  1  0  0  0  0
  2  7  1  0  0  0  0
  3  4  1  0  0  0  0
  3 28  1  0  0  0  0
  4  5  1  0  0  0  0
  4  6  1  0  0  0  0
  4 29  1  0  0  0  0
  5  6  1  0  0  0  0
  5 30  1  0  0  0  0
  5 31  1  0  0  0  0
  6 32  1  0  0  0  0
  6 33  1  0  0  0  0
  7  8  1  0  0  0  0
  7 27  2  0  0  0  0
  8  9  2  0  0  0  0
  8 34  1  0  0  0  0
  9 10  1  0  0  0  0
  9 35  1  0  0  0  0
 10 11  1  0  0  0  0
 10 12  2  0  0  0  0
 12 13  1  0  0  0  0
 12 27  1  0  0  0  0
 13 14  1  0  0  0  0
 13 36  1  0  0  0  0
 14 15  1  0  0  0  0
 14 37  1  0  0  0  0
 14 38  1  0  0  0  0
 15 16  2  0  0  0  0
 15 26  1  0  0  0  0
 16 17  1  0  0  0  0
 16 39  1  0  0  0  0
 17 18  2  0  0  0  0
 18 19  1  0  0  0  0
 18 26  1  0  0  0  0
 19 20  1  0  0  0  0
 19 40  1  0  0  0  0
 20 21  1  0  0  0  0
 20 25  2  0  0  0  0
 21 22  2  0  0  0  0
 21 41  1  0  0  0  0
 22 23  1  0  0  0  0
 22 42  1  0  0  0  0
 23 24  2  0  0  0  0
 23 43  1  0  0  0  0
 24 25  1  0  0  0  0
 24 44  1  0  0  0  0
 27 45  1  0  0  0  0
M  END
$$$$
