CHEMBL1987334
 OpenBabel04072215363D

 43 46  0  0  0  0  0  0  0  0999 V2000
    0.9708   -0.1172    0.2201 C   0  0  0  0  0  0  0  0  0  0  0  0
    2.5106   -0.0432    0.1256 C   0  0  0  0  0  0  0  0  0  0  0  0
    3.0999   -0.0805    1.5522 C   0  0  0  0  0  0  0  0  0  0  0  0
    2.8829    1.3340   -0.5260 C   0  0  0  0  0  0  0  0  0  0  0  0
    3.8136    1.3330   -1.7240 C   0  0  0  0  0  0  0  0  0  0  0  0
    4.2419    2.6109   -2.2855 C   0  0  0  0  0  0  0  0  0  0  0  0
    3.8623    3.8227   -1.8445 C   0  0  0  0  0  0  0  0  0  0  0  0
    4.2923    5.0994   -2.4271 C   0  0  0  0  0  0  0  0  0  0  0  0
    4.5771    5.2542   -3.7893 C   0  0  0  0  0  0  0  0  0  0  0  0
    4.9316    6.5081   -4.3029 C   0  0  0  0  0  0  0  0  0  0  0  0
    4.9834    7.6114   -3.4562 C   0  0  0  0  0  0  0  0  0  0  0  0
    5.4059    9.1535   -4.0901 Cl  0  0  0  0  0  0  0  0  0  0  0  0
    4.6900    7.4761   -2.1016 C   0  0  0  0  0  0  0  0  0  0  0  0
    4.3432    6.2242   -1.5909 C   0  0  0  0  0  0  0  0  0  0  0  0
    4.2311    0.1875   -2.2932 C   0  0  0  0  0  0  0  0  0  0  0  0
    3.8629   -1.1081   -1.8191 C   0  0  0  0  0  0  0  0  0  0  0  0
    3.0612   -1.2038   -0.6953 C   0  0  0  0  0  0  0  0  0  0  0  0
    2.7685   -2.8369   -0.2850 S   0  0  0  0  0  0  0  0  0  0  0  0
    3.7041   -3.4046   -1.5863 C   0  0  0  0  0  0  0  0  0  0  0  0
    3.8502   -4.7286   -1.7616 N   0  0  0  0  0  0  0  0  0  0  0  0
    4.5974   -5.0174   -2.8250 C   0  0  0  0  0  0  0  0  0  0  0  0
    5.1646   -4.1559   -3.6789 N   0  0  0  0  0  0  0  0  0  0  0  0
    4.9869   -2.8337   -3.4859 C   0  0  0  0  0  0  0  0  0  0  0  0
    5.5679   -2.0280   -4.4530 N   0  0  0  0  0  0  0  0  0  0  0  0
    4.2382   -2.3901   -2.3727 C   0  0  0  0  0  0  0  0  0  0  0  0
    0.5686    0.7573    0.7467 H   0  0  0  0  0  0  0  0  0  0  0  0
    0.6318   -1.0044    0.7642 H   0  0  0  0  0  0  0  0  0  0  0  0
    0.5154   -0.1448   -0.7769 H   0  0  0  0  0  0  0  0  0  0  0  0
    2.7626    0.7808    2.1420 H   0  0  0  0  0  0  0  0  0  0  0  0
    4.1960   -0.0615    1.5288 H   0  0  0  0  0  0  0  0  0  0  0  0
    2.7965   -0.9802    2.0988 H   0  0  0  0  0  0  0  0  0  0  0  0
    3.3264    1.9760    0.2483 H   0  0  0  0  0  0  0  0  0  0  0  0
    1.9603    1.8443   -0.8378 H   0  0  0  0  0  0  0  0  0  0  0  0
    4.9273    2.5499   -3.1292 H   0  0  0  0  0  0  0  0  0  0  0  0
    3.1950    3.9185   -0.9915 H   0  0  0  0  0  0  0  0  0  0  0  0
    4.5138    4.4126   -4.4743 H   0  0  0  0  0  0  0  0  0  0  0  0
    5.1521    6.6110   -5.3601 H   0  0  0  0  0  0  0  0  0  0  0  0
    4.7258    8.3377   -1.4414 H   0  0  0  0  0  0  0  0  0  0  0  0
    4.1137    6.1367   -0.5298 H   0  0  0  0  0  0  0  0  0  0  0  0
    4.8803    0.2518   -3.1555 H   0  0  0  0  0  0  0  0  0  0  0  0
    4.7656   -6.0706   -3.0242 H   0  0  0  0  0  0  0  0  0  0  0  0
    6.2346   -2.5511   -5.0102 H   0  0  0  0  0  0  0  0  0  0  0  0
    5.8375   -1.0944   -4.1999 H   0  0  0  0  0  0  0  0  0  0  0  0
  1  2  1  0  0  0  0
  1 26  1  0  0  0  0
  1 27  1  0  0  0  0
  1 28  1  0  0  0  0
  2  3  1  0  0  0  0
  2  4  1  0  0  0  0
  2 17  1  0  0  0  0
  3 29  1  0  0  0  0
  3 30  1  0  0  0  0
  3 31  1  0  0  0  0
  4  5  1  0  0  0  0
  4 32  1  0  0  0  0
  4 33  1  0  0  0  0
  5  6  1  0  0  0  0
  5 15  2  0  0  0  0
  6  7  2  3  0  0  0
  6 34  1  0  0  0  0
  7  8  1  0  0  0  0
  7 35  1  0  0  0  0
  8  9  1  0  0  0  0
  8 14  2  0  0  0  0
  9 10  2  0  0  0  0
  9 36  1  0  0  0  0
 10 11  1  0  0  0  0
 10 37  1  0  0  0  0
 11 12  1  0  0  0  0
 11 13  2  0  0  0  0
 13 14  1  0  0  0  0
 13 38  1  0  0  0  0
 14 39  1  0  0  0  0
 15 16  1  0  0  0  0
 15 40  1  0  0  0  0
 16 17  2  0  0  0  0
 16 25  1  0  0  0  0
 17 18  1  0  0  0  0
 18 19  1  0  0  0  0
 19 20  1  0  0  0  0
 19 25  2  0  0  0  0
 20 21  2  0  0  0  0
 21 22  1  0  0  0  0
 21 41  1  0  0  0  0
 22 23  2  0  0  0  0
 23 24  1  0  0  0  0
 23 25  1  0  0  0  0
 24 42  1  0  0  0  0
 24 43  1  0  0  0  0
M  END
$$$$
