CHEMBL370738
 OpenBabel04072215373D

 49 52  0  0  0  0  0  0  0  0999 V2000
    2.4919    0.0071    0.1519 C   0  0  0  0  0  0  0  0  0  0  0  0
    1.0076    0.0939    0.3345 C   0  0  0  0  0  0  0  0  0  0  0  0
    0.3914    1.3171    0.6034 C   0  0  0  0  0  0  0  0  0  0  0  0
   -0.9833    1.3764    0.7900 C   0  0  0  0  0  0  0  0  0  0  0  0
   -1.7462    0.2109    0.7119 C   0  0  0  0  0  0  0  0  0  0  0  0
   -1.1659   -1.0309    0.4253 C   0  0  0  0  0  0  0  0  0  0  0  0
   -1.8846   -2.2455    0.3504 N   0  0  0  0  0  0  0  0  0  0  0  0
   -3.2522   -2.4239    0.3458 C   0  0  0  0  0  0  0  0  0  0  0  0
   -4.0413   -1.4036    0.1765 N   0  0  0  0  0  0  0  0  0  0  0  0
   -5.4307   -1.3725    0.1984 C   0  0  0  0  0  0  0  0  0  0  0  0
   -6.2005   -2.1237    1.0740 C   0  0  0  0  0  0  0  0  0  0  0  0
   -7.5906   -2.0860    1.0055 C   0  0  0  0  0  0  0  0  0  0  0  0
   -8.2538   -1.1446    0.2078 C   0  0  0  0  0  0  0  0  0  0  0  0
   -9.7245   -1.1083    0.1470 C   0  0  0  0  0  0  0  0  0  0  0  0
  -10.5111   -1.3272    1.2834 C   0  0  0  0  0  0  0  0  0  0  0  0
  -10.1669   -1.5754    2.7242 C   0  0  0  0  0  0  0  0  0  0  0  0
  -12.1833   -1.3239    0.9136 S   0  0  0  0  0  0  0  0  0  0  0  0
  -11.9016   -0.9730   -0.7160 C   0  0  0  0  0  0  0  0  0  0  0  0
  -12.9554   -0.8265   -1.5347 N   0  0  0  0  0  0  0  0  0  0  0  0
  -12.5948   -0.5516   -2.7836 C   0  0  0  0  0  0  0  0  0  0  0  0
  -11.3508   -0.4389   -3.2578 N   0  0  0  0  0  0  0  0  0  0  0  0
  -10.3146   -0.6089   -2.4151 C   0  0  0  0  0  0  0  0  0  0  0  0
   -9.0722   -0.4983   -3.0249 N   0  0  0  0  0  0  0  0  0  0  0  0
  -10.5565   -0.8809   -1.0450 C   0  0  0  0  0  0  0  0  0  0  0  0
   -7.4663   -0.2589   -0.5346 C   0  0  0  0  0  0  0  0  0  0  0  0
   -6.0775   -0.4212   -0.5948 C   0  0  0  0  0  0  0  0  0  0  0  0
   -3.6513   -3.7331    0.4853 N   0  0  0  0  0  0  0  0  0  0  0  0
   -2.8098   -4.7218    1.0984 C   0  0  0  0  0  0  0  0  0  0  0  0
   -2.1147   -5.5347    1.5570 N   0  0  0  0  0  0  0  0  0  0  0  0
    0.2253   -1.0685    0.2443 C   0  0  0  0  0  0  0  0  0  0  0  0
    2.9645    0.9874    0.2681 H   0  0  0  0  0  0  0  0  0  0  0  0
    2.7273   -0.3663   -0.8493 H   0  0  0  0  0  0  0  0  0  0  0  0
    2.9214   -0.6649    0.9012 H   0  0  0  0  0  0  0  0  0  0  0  0
    0.9751    2.2308    0.6766 H   0  0  0  0  0  0  0  0  0  0  0  0
   -1.4716    2.3230    1.0028 H   0  0  0  0  0  0  0  0  0  0  0  0
   -2.8112    0.3179    0.8909 H   0  0  0  0  0  0  0  0  0  0  0  0
   -1.3047   -3.0416    0.1255 H   0  0  0  0  0  0  0  0  0  0  0  0
   -5.7331   -2.7371    1.8380 H   0  0  0  0  0  0  0  0  0  0  0  0
   -8.1387   -2.7927    1.6202 H   0  0  0  0  0  0  0  0  0  0  0  0
   -9.1251   -1.3581    2.9664 H   0  0  0  0  0  0  0  0  0  0  0  0
  -10.3647   -2.6241    2.9799 H   0  0  0  0  0  0  0  0  0  0  0  0
  -10.7681   -0.9441    3.3865 H   0  0  0  0  0  0  0  0  0  0  0  0
  -13.3972   -0.4126   -3.5002 H   0  0  0  0  0  0  0  0  0  0  0  0
   -9.1814   -0.4728   -4.0331 H   0  0  0  0  0  0  0  0  0  0  0  0
   -8.3746   -1.1461   -2.6842 H   0  0  0  0  0  0  0  0  0  0  0  0
   -7.9149    0.5525   -1.1018 H   0  0  0  0  0  0  0  0  0  0  0  0
   -5.4904    0.2231   -1.2483 H   0  0  0  0  0  0  0  0  0  0  0  0
   -4.6425   -3.9050    0.5220 H   0  0  0  0  0  0  0  0  0  0  0  0
    0.7181   -2.0143    0.0336 H   0  0  0  0  0  0  0  0  0  0  0  0
  1  2  1  0  0  0  0
  1 31  1  0  0  0  0
  1 32  1  0  0  0  0
  1 33  1  0  0  0  0
  2  3  1  0  0  0  0
  2 30  2  0  0  0  0
  3  4  2  0  0  0  0
  3 34  1  0  0  0  0
  4  5  1  0  0  0  0
  4 35  1  0  0  0  0
  5  6  2  0  0  0  0
  5 36  1  0  0  0  0
  6  7  1  0  0  0  0
  6 30  1  0  0  0  0
  7  8  1  0  0  0  0
  7 37  1  0  0  0  0
  8  9  2  0  0  0  0
  8 27  1  0  0  0  0
  9 10  1  0  0  0  0
 10 11  1  0  0  0  0
 10 26  2  0  0  0  0
 11 12  2  0  0  0  0
 11 38  1  0  0  0  0
 12 13  1  0  0  0  0
 12 39  1  0  0  0  0
 13 14  1  0  0  0  0
 13 25  2  0  0  0  0
 14 15  2  0  0  0  0
 14 24  1  0  0  0  0
 15 16  1  0  0  0  0
 15 17  1  0  0  0  0
 16 40  1  0  0  0  0
 16 41  1  0  0  0  0
 16 42  1  0  0  0  0
 17 18  1  0  0  0  0
 18 19  1  0  0  0  0
 18 24  2  0  0  0  0
 19 20  2  0  0  0  0
 20 21  1  0  0  0  0
 20 43  1  0  0  0  0
 21 22  2  0  0  0  0
 22 23  1  0  0  0  0
 22 24  1  0  0  0  0
 23 44  1  0  0  0  0
 23 45  1  0  0  0  0
 25 26  1  0  0  0  0
 25 46  1  0  0  0  0
 26 47  1  0  0  0  0
 27 28  1  0  0  0  0
 27 48  1  0  0  0  0
 28 29  3  0  0  0  0
 30 49  1  0  0  0  0
M  END
$$$$
