CHEMBL219676
 OpenBabel04072215363D

 39 41  0  0  0  0  0  0  0  0999 V2000
    1.1749    0.4796   -0.7575 C   0  0  0  0  0  0  0  0  0  0  0  0
    2.4742    0.5881   -0.7595 C   0  0  0  0  0  0  0  0  0  0  0  0
    3.9890    0.7147   -0.7619 C   0  0  0  0  0  0  0  0  0  0  0  0
    4.3841    1.3722    0.4637 O   0  0  0  0  0  0  0  0  0  0  0  0
    5.7897    1.4601    0.5359 N   0  0  0  0  0  0  0  0  0  0  0  0
    6.1473    2.0635    1.6319 C   0  0  0  0  0  0  0  0  0  0  0  0
    7.5697    2.3383    1.9363 C   0  0  0  0  0  0  0  0  0  0  0  0
    8.5159    2.4572    0.9188 C   0  0  0  0  0  0  0  0  0  0  0  0
    8.1769    2.4567   -0.4300 N   0  0  0  0  0  0  0  0  0  0  0  0
    9.8198    2.6869    1.1554 N   0  0  0  0  0  0  0  0  0  0  0  0
   10.1826    2.8369    2.4312 C   0  0  0  0  0  0  0  0  0  0  0  0
    9.3684    2.7536    3.4854 N   0  0  0  0  0  0  0  0  0  0  0  0
    8.0734    2.4620    3.2221 C   0  0  0  0  0  0  0  0  0  0  0  0
    7.2369    2.2529    4.3198 O   0  0  0  0  0  0  0  0  0  0  0  0
    7.8127    1.7434    5.4789 C   0  0  0  0  0  0  0  0  0  0  0  0
    8.7843    0.7352    5.4610 C   0  0  0  0  0  0  0  0  0  0  0  0
    9.3228    0.2107    6.6430 C   0  0  0  0  0  0  0  0  0  0  0  0
    8.8532    0.7230    7.8555 C   0  0  0  0  0  0  0  0  0  0  0  0
    9.2109    0.4032    9.1467 N   0  0  0  0  0  0  0  0  0  0  0  0
    8.6164    1.2750   10.0283 C   0  0  0  0  0  0  0  0  0  0  0  0
    9.0033    1.3205   11.4615 C   0  0  0  0  0  0  0  0  0  0  0  0
    7.7128    2.0283    9.3060 C   0  0  0  0  0  0  0  0  0  0  0  0
    7.8836    1.7248    7.9223 C   0  0  0  0  0  0  0  0  0  0  0  0
    7.3464    2.2199    6.7116 C   0  0  0  0  0  0  0  0  0  0  0  0
    6.4042    3.1806    6.7426 F   0  0  0  0  0  0  0  0  0  0  0  0
    0.1127    0.3950   -0.7519 H   0  0  0  0  0  0  0  0  0  0  0  0
    4.3183    1.3084   -1.6205 H   0  0  0  0  0  0  0  0  0  0  0  0
    4.4430   -0.2811   -0.7955 H   0  0  0  0  0  0  0  0  0  0  0  0
    5.3981    2.4018    2.3719 H   0  0  0  0  0  0  0  0  0  0  0  0
    7.4699    1.7511   -0.6462 H   0  0  0  0  0  0  0  0  0  0  0  0
    9.0164    2.4052   -0.9987 H   0  0  0  0  0  0  0  0  0  0  0  0
   11.2312    3.0316    2.6297 H   0  0  0  0  0  0  0  0  0  0  0  0
    9.1655    0.3499    4.5176 H   0  0  0  0  0  0  0  0  0  0  0  0
   10.0938   -0.5525    6.6105 H   0  0  0  0  0  0  0  0  0  0  0  0
    9.8773   -0.3120    9.3956 H   0  0  0  0  0  0  0  0  0  0  0  0
    9.7341    0.5444   11.7104 H   0  0  0  0  0  0  0  0  0  0  0  0
    8.1320    1.1931   12.1113 H   0  0  0  0  0  0  0  0  0  0  0  0
    9.4618    2.2898   11.6849 H   0  0  0  0  0  0  0  0  0  0  0  0
    7.0548    2.7874    9.7154 H   0  0  0  0  0  0  0  0  0  0  0  0
  1  2  3  0  0  0  0
  1 26  1  0  0  0  0
  2  3  1  0  0  0  0
  3  4  1  0  0  0  0
  3 27  1  0  0  0  0
  3 28  1  0  0  0  0
  4  5  1  0  0  0  0
  5  6  2  0  0  0  0
  6  7  1  0  0  0  0
  6 29  1  0  0  0  0
  7  8  1  0  0  0  0
  7 13  2  0  0  0  0
  8  9  1  0  0  0  0
  8 10  2  0  0  0  0
  9 30  1  0  0  0  0
  9 31  1  0  0  0  0
 10 11  1  0  0  0  0
 11 12  2  0  0  0  0
 11 32  1  0  0  0  0
 12 13  1  0  0  0  0
 13 14  1  0  0  0  0
 14 15  1  0  0  0  0
 15 16  1  0  0  0  0
 15 24  2  0  0  0  0
 16 17  2  0  0  0  0
 16 33  1  0  0  0  0
 17 18  1  0  0  0  0
 17 34  1  0  0  0  0
 18 19  1  0  0  0  0
 18 23  2  0  0  0  0
 19 20  1  0  0  0  0
 19 35  1  0  0  0  0
 20 21  1  0  0  0  0
 20 22  2  0  0  0  0
 21 36  1  0  0  0  0
 21 37  1  0  0  0  0
 21 38  1  0  0  0  0
 22 23  1  0  0  0  0
 22 39  1  0  0  0  0
 23 24  1  0  0  0  0
 24 25  1  0  0  0  0
M  END
$$$$
