CHEMBL2086722
 OpenBabel04072215363D

 44 48  0  0  0  0  0  0  0  0999 V2000
    0.4649    1.2338   -2.3201 C   0  0  0  0  0  0  0  0  0  0  0  0
    0.1334    0.5014   -1.0518 C   0  0  0  0  0  0  0  0  0  0  0  0
    0.4822    1.0432    0.1898 C   0  0  0  0  0  0  0  0  0  0  0  0
    0.1632    0.3680    1.3674 C   0  0  0  0  0  0  0  0  0  0  0  0
   -0.5132   -0.8531    1.3171 C   0  0  0  0  0  0  0  0  0  0  0  0
   -0.8908   -1.4066    0.0855 C   0  0  0  0  0  0  0  0  0  0  0  0
   -1.8144   -2.5758    0.0396 C   0  0  0  0  0  0  0  0  0  0  0  0
   -1.4197   -3.8691   -0.0346 C   0  0  0  0  0  0  0  0  0  0  0  0
    0.0131   -4.3459    0.0497 C   0  0  0  0  0  0  0  0  0  0  0  0
    1.0352   -3.6861    0.0812 O   0  0  0  0  0  0  0  0  0  0  0  0
   -0.0598   -5.7308    0.1391 N   0  0  0  0  0  0  0  0  0  0  0  0
   -1.3733   -6.1824    0.0663 C   0  0  0  0  0  0  0  0  0  0  0  0
   -1.7982   -7.4992    0.1124 C   0  0  0  0  0  0  0  0  0  0  0  0
   -3.1661   -7.7423   -0.0218 C   0  0  0  0  0  0  0  0  0  0  0  0
   -4.0581   -6.6821   -0.2255 C   0  0  0  0  0  0  0  0  0  0  0  0
   -3.5996   -5.3599   -0.2736 C   0  0  0  0  0  0  0  0  0  0  0  0
   -2.2500   -5.1041   -0.0829 C   0  0  0  0  0  0  0  0  0  0  0  0
   -3.2116   -2.3041    0.1412 C   0  0  0  0  0  0  0  0  0  0  0  0
   -4.1267   -2.0885   -0.7820 N   0  0  0  0  0  0  0  0  0  0  0  0
   -5.2972   -1.8846   -0.0937 C   0  0  0  0  0  0  0  0  0  0  0  0
   -6.5833   -1.6199   -0.5814 C   0  0  0  0  0  0  0  0  0  0  0  0
   -7.6207   -1.4268    0.3387 C   0  0  0  0  0  0  0  0  0  0  0  0
   -7.3853   -1.5174    1.7140 C   0  0  0  0  0  0  0  0  0  0  0  0
   -6.1130   -1.8098    2.2184 C   0  0  0  0  0  0  0  0  0  0  0  0
   -5.0964   -1.9766    1.2782 C   0  0  0  0  0  0  0  0  0  0  0  0
   -3.7592   -2.2457    1.4014 N   0  0  0  0  0  0  0  0  0  0  0  0
   -0.5594   -0.7211   -1.0955 C   0  0  0  0  0  0  0  0  0  0  0  0
    1.0287    2.1510   -2.1176 H   0  0  0  0  0  0  0  0  0  0  0  0
   -0.4513    1.5163   -2.8482 H   0  0  0  0  0  0  0  0  0  0  0  0
    1.0802    0.6045   -2.9708 H   0  0  0  0  0  0  0  0  0  0  0  0
    0.9973    1.9997    0.2483 H   0  0  0  0  0  0  0  0  0  0  0  0
    0.4269    0.8061    2.3263 H   0  0  0  0  0  0  0  0  0  0  0  0
   -0.7716   -1.3459    2.2495 H   0  0  0  0  0  0  0  0  0  0  0  0
    0.7586   -6.3119    0.2168 H   0  0  0  0  0  0  0  0  0  0  0  0
   -1.1038   -8.3189    0.2452 H   0  0  0  0  0  0  0  0  0  0  0  0
   -3.5475   -8.7619    0.0193 H   0  0  0  0  0  0  0  0  0  0  0  0
   -5.1195   -6.8811   -0.3583 H   0  0  0  0  0  0  0  0  0  0  0  0
   -4.3180   -4.5767   -0.4759 H   0  0  0  0  0  0  0  0  0  0  0  0
   -6.7568   -1.5587   -1.6495 H   0  0  0  0  0  0  0  0  0  0  0  0
   -8.6192   -1.1969   -0.0242 H   0  0  0  0  0  0  0  0  0  0  0  0
   -8.2078   -1.3530    2.4077 H   0  0  0  0  0  0  0  0  0  0  0  0
   -5.9319   -1.8858    3.2851 H   0  0  0  0  0  0  0  0  0  0  0  0
   -3.2585   -2.3875    2.2666 H   0  0  0  0  0  0  0  0  0  0  0  0
   -0.8815   -1.1190   -2.0565 H   0  0  0  0  0  0  0  0  0  0  0  0
  1  2  1  0  0  0  0
  1 28  1  0  0  0  0
  1 29  1  0  0  0  0
  1 30  1  0  0  0  0
  2  3  1  0  0  0  0
  2 27  2  0  0  0  0
  3  4  2  0  0  0  0
  3 31  1  0  0  0  0
  4  5  1  0  0  0  0
  4 32  1  0  0  0  0
  5  6  2  0  0  0  0
  5 33  1  0  0  0  0
  6  7  1  0  0  0  0
  6 27  1  0  0  0  0
  7  8  2  3  0  0  0
  7 18  1  0  0  0  0
  8  9  1  0  0  0  0
  8 17  1  0  0  0  0
  9 10  2  0  0  0  0
  9 11  1  0  0  0  0
 11 12  1  0  0  0  0
 11 34  1  0  0  0  0
 12 13  1  0  0  0  0
 12 17  2  0  0  0  0
 13 14  2  0  0  0  0
 13 35  1  0  0  0  0
 14 15  1  0  0  0  0
 14 36  1  0  0  0  0
 15 16  2  0  0  0  0
 15 37  1  0  0  0  0
 16 17  1  0  0  0  0
 16 38  1  0  0  0  0
 18 19  2  0  0  0  0
 18 26  1  0  0  0  0
 19 20  1  0  0  0  0
 20 21  1  0  0  0  0
 20 25  2  0  0  0  0
 21 22  2  0  0  0  0
 21 39  1  0  0  0  0
 22 23  1  0  0  0  0
 22 40  1  0  0  0  0
 23 24  2  0  0  0  0
 23 41  1  0  0  0  0
 24 25  1  0  0  0  0
 24 42  1  0  0  0  0
 25 26  1  0  0  0  0
 26 43  1  0  0  0  0
 27 44  1  0  0  0  0
M  END
$$$$
