CHEMBL4102074
 OpenBabel04072215383D

 42 45  0  0  0  0  0  0  0  0999 V2000
    0.2708    0.7305    5.8925 C   0  0  0  0  0  0  0  0  0  0  0  0
    0.9833    1.3530    4.8230 O   0  0  0  0  0  0  0  0  0  0  0  0
    1.3469    0.5419    3.7745 C   0  0  0  0  0  0  0  0  0  0  0  0
    1.2028   -0.8630    3.8172 C   0  0  0  0  0  0  0  0  0  0  0  0
    1.5214   -1.6424    2.7097 C   0  0  0  0  0  0  0  0  0  0  0  0
    1.9813   -1.0336    1.5545 C   0  0  0  0  0  0  0  0  0  0  0  0
    2.1620    0.3632    1.5053 C   0  0  0  0  0  0  0  0  0  0  0  0
    1.8701    1.1809    2.6190 C   0  0  0  0  0  0  0  0  0  0  0  0
    1.9930    2.7246    2.5519 C   0  0  0  0  0  0  0  0  0  0  0  0
    3.0094    3.1943    1.6041 N   0  0  0  0  0  0  0  0  0  0  0  0
    3.1382    4.5657    1.2529 C   0  0  0  0  0  0  0  0  0  0  0  0
    4.4214    4.8815    0.9024 N   0  0  0  0  0  0  0  0  0  0  0  0
    4.6334    5.1228   -0.4054 C   0  0  0  0  0  0  0  0  0  0  0  0
    5.8258    5.7006   -0.7991 N   0  0  0  0  0  0  0  0  0  0  0  0
    3.7336    4.9158   -1.3847 N   0  0  0  0  0  0  0  0  0  0  0  0
    2.4753    4.8809   -0.8882 C   0  0  0  0  0  0  0  0  0  0  0  0
    1.3388    5.2758   -1.5624 N   0  0  0  0  0  0  0  0  0  0  0  0
    1.3296    6.6320   -1.2455 C   0  0  0  0  0  0  0  0  0  0  0  0
    1.0678    7.7285   -2.0638 C   0  0  0  0  0  0  0  0  0  0  0  0
    1.3155    8.9829   -1.5367 C   0  0  0  0  0  0  0  0  0  0  0  0
    1.7475    9.1144   -0.2220 C   0  0  0  0  0  0  0  0  0  0  0  0
    1.9689   10.3619    0.2661 O   0  0  0  0  0  0  0  0  0  0  0  0
    1.9919    7.9918    0.6059 C   0  0  0  0  0  0  0  0  0  0  0  0
    1.8204    6.6775    0.0801 C   0  0  0  0  0  0  0  0  0  0  0  0
    2.1779    5.2460    0.4356 C   0  0  0  0  0  0  0  0  0  0  0  0
   -0.0774    1.5137    6.5699 H   0  0  0  0  0  0  0  0  0  0  0  0
    0.9263    0.0618    6.4634 H   0  0  0  0  0  0  0  0  0  0  0  0
   -0.6150    0.1926    5.5312 H   0  0  0  0  0  0  0  0  0  0  0  0
    0.8390   -1.3808    4.6984 H   0  0  0  0  0  0  0  0  0  0  0  0
    1.3829   -2.7261    2.7528 H   0  0  0  0  0  0  0  0  0  0  0  0
    2.2033   -1.6437    0.6827 H   0  0  0  0  0  0  0  0  0  0  0  0
    2.5199    0.8038    0.5813 H   0  0  0  0  0  0  0  0  0  0  0  0
    2.2712    3.0949    3.5432 H   0  0  0  0  0  0  0  0  0  0  0  0
    1.0083    3.1159    2.2810 H   0  0  0  0  0  0  0  0  0  0  0  0
    3.9445    2.8803    1.8575 H   0  0  0  0  0  0  0  0  0  0  0  0
    6.6134    5.2373   -0.3768 H   0  0  0  0  0  0  0  0  0  0  0  0
    5.8242    5.7870   -1.8070 H   0  0  0  0  0  0  0  0  0  0  0  0
    0.4801    4.7709   -1.4144 H   0  0  0  0  0  0  0  0  0  0  0  0
    0.8078    7.5930   -3.1091 H   0  0  0  0  0  0  0  0  0  0  0  0
    1.2158    9.8497   -2.1912 H   0  0  0  0  0  0  0  0  0  0  0  0
    1.7962   11.0366   -0.4206 H   0  0  0  0  0  0  0  0  0  0  0  0
    2.3962    8.1438    1.6116 H   0  0  0  0  0  0  0  0  0  0  0  0
  1  2  1  0  0  0  0
  1 26  1  0  0  0  0
  1 27  1  0  0  0  0
  1 28  1  0  0  0  0
  2  3  1  0  0  0  0
  3  4  1  0  0  0  0
  3  8  2  0  0  0  0
  4  5  2  0  0  0  0
  4 29  1  0  0  0  0
  5  6  1  0  0  0  0
  5 30  1  0  0  0  0
  6  7  2  0  0  0  0
  6 31  1  0  0  0  0
  7  8  1  0  0  0  0
  7 32  1  0  0  0  0
  8  9  1  0  0  0  0
  9 10  1  0  0  0  0
  9 33  1  0  0  0  0
  9 34  1  0  0  0  0
 10 11  1  0  0  0  0
 10 35  1  0  0  0  0
 11 12  1  0  0  0  0
 11 25  2  0  0  0  0
 12 13  2  0  0  0  0
 13 14  1  0  0  0  0
 13 15  1  0  0  0  0
 14 36  1  0  0  0  0
 14 37  1  0  0  0  0
 15 16  2  0  0  0  0
 16 17  1  0  0  0  0
 16 25  1  0  0  0  0
 17 18  1  0  0  0  0
 17 38  1  0  0  0  0
 18 19  1  0  0  0  0
 18 24  2  0  0  0  0
 19 20  2  0  0  0  0
 19 39  1  0  0  0  0
 20 21  1  0  0  0  0
 20 40  1  0  0  0  0
 21 22  1  0  0  0  0
 21 23  2  0  0  0  0
 22 41  1  0  0  0  0
 23 24  1  0  0  0  0
 23 42  1  0  0  0  0
 24 25  1  0  0  0  0
M  END
$$$$
