CHEMBL2338333
 OpenBabel04072215363D

 39 41  0  0  0  0  0  0  0  0999 V2000
    3.1539    0.0203   -0.2548 C   0  0  0  0  0  0  0  0  0  0  0  0
    1.6942    0.0038   -0.3504 N   0  0  0  0  0  0  0  0  0  0  0  0
    1.1362    1.1937    0.2936 C   0  0  0  0  0  0  0  0  0  0  0  0
   -0.3567    1.2720    0.1549 C   0  0  0  0  0  0  0  0  0  0  0  0
   -1.0613    2.4243    0.1073 C   0  0  0  0  0  0  0  0  0  0  0  0
   -0.4874    3.7750    0.2278 C   0  0  0  0  0  0  0  0  0  0  0  0
   -1.0738    4.8515   -0.4255 C   0  0  0  0  0  0  0  0  0  0  0  0
   -0.4424    6.0937   -0.3699 C   0  0  0  0  0  0  0  0  0  0  0  0
    0.7433    6.2277    0.3433 C   0  0  0  0  0  0  0  0  0  0  0  0
    1.2372    5.1151    0.9969 C   0  0  0  0  0  0  0  0  0  0  0  0
    0.6428    3.9049    0.9668 N   0  0  0  0  0  0  0  0  0  0  0  0
   -1.1135   -0.0129    0.0130 C   0  0  0  0  0  0  0  0  0  0  0  0
   -2.3268   -0.0262   -0.1919 O   0  0  0  0  0  0  0  0  0  0  0  0
   -0.3306   -1.2864    0.1565 C   0  0  0  0  0  0  0  0  0  0  0  0
   -1.0126   -2.4507    0.1046 C   0  0  0  0  0  0  0  0  0  0  0  0
   -0.4202   -3.7792    0.3221 C   0  0  0  0  0  0  0  0  0  0  0  0
   -0.9281   -4.9027   -0.3183 C   0  0  0  0  0  0  0  0  0  0  0  0
   -0.3314   -6.1393   -0.0731 C   0  0  0  0  0  0  0  0  0  0  0  0
    0.7441   -6.2192    0.8048 C   0  0  0  0  0  0  0  0  0  0  0  0
    1.1777   -5.0552    1.4091 C   0  0  0  0  0  0  0  0  0  0  0  0
    0.6166   -3.8472    1.1925 N   0  0  0  0  0  0  0  0  0  0  0  0
    1.1554   -1.1811    0.3180 C   0  0  0  0  0  0  0  0  0  0  0  0
    3.5621    0.8993   -0.7659 H   0  0  0  0  0  0  0  0  0  0  0  0
    3.5807   -0.8568   -0.7534 H   0  0  0  0  0  0  0  0  0  0  0  0
    3.5037    0.0321    0.7841 H   0  0  0  0  0  0  0  0  0  0  0  0
    1.5995    2.0535   -0.2011 H   0  0  0  0  0  0  0  0  0  0  0  0
    1.4015    1.2291    1.3592 H   0  0  0  0  0  0  0  0  0  0  0  0
   -2.1376    2.3973   -0.0464 H   0  0  0  0  0  0  0  0  0  0  0  0
   -1.9859    4.7301   -1.0006 H   0  0  0  0  0  0  0  0  0  0  0  0
   -0.8639    6.9464   -0.8936 H   0  0  0  0  0  0  0  0  0  0  0  0
    1.2711    7.1737    0.3874 H   0  0  0  0  0  0  0  0  0  0  0  0
    2.1578    5.1609    1.5706 H   0  0  0  0  0  0  0  0  0  0  0  0
   -2.0841   -2.4531   -0.0825 H   0  0  0  0  0  0  0  0  0  0  0  0
   -1.7615   -4.8265   -1.0088 H   0  0  0  0  0  0  0  0  0  0  0  0
   -0.7011   -7.0337   -0.5660 H   0  0  0  0  0  0  0  0  0  0  0  0
    1.2309   -7.1648    1.0146 H   0  0  0  0  0  0  0  0  0  0  0  0
    2.0138   -5.0574    2.1022 H   0  0  0  0  0  0  0  0  0  0  0  0
    1.6378   -2.0479   -0.1472 H   0  0  0  0  0  0  0  0  0  0  0  0
    1.4086   -1.1848    1.3869 H   0  0  0  0  0  0  0  0  0  0  0  0
  1  2  1  0  0  0  0
  1 23  1  0  0  0  0
  1 24  1  0  0  0  0
  1 25  1  0  0  0  0
  2  3  1  0  0  0  0
  2 22  1  0  0  0  0
  3  4  1  0  0  0  0
  3 26  1  0  0  0  0
  3 27  1  0  0  0  0
  4  5  2  0  0  0  0
  4 12  1  0  0  0  0
  5  6  1  0  0  0  0
  5 28  1  0  0  0  0
  6  7  1  0  0  0  0
  6 11  2  0  0  0  0
  7  8  2  0  0  0  0
  7 29  1  0  0  0  0
  8  9  1  0  0  0  0
  8 30  1  0  0  0  0
  9 10  2  0  0  0  0
  9 31  1  0  0  0  0
 10 11  1  0  0  0  0
 10 32  1  0  0  0  0
 12 13  2  0  0  0  0
 12 14  1  0  0  0  0
 14 15  2  0  0  0  0
 14 22  1  0  0  0  0
 15 16  1  0  0  0  0
 15 33  1  0  0  0  0
 16 17  1  0  0  0  0
 16 21  2  0  0  0  0
 17 18  2  0  0  0  0
 17 34  1  0  0  0  0
 18 19  1  0  0  0  0
 18 35  1  0  0  0  0
 19 20  2  0  0  0  0
 19 36  1  0  0  0  0
 20 21  1  0  0  0  0
 20 37  1  0  0  0  0
 22 38  1  0  0  0  0
 22 39  1  0  0  0  0
M  END
$$$$
