CHEMBL4224704
 OpenBabel04072215383D

 48 50  0  0  0  0  0  0  0  0999 V2000
    1.6952   -0.0141   -2.4901 C   0  0  0  0  0  0  0  0  0  0  0  0
    2.9277   -0.3399   -1.8109 N   0  0  0  0  0  0  0  0  0  0  0  0
    4.1378    0.0417   -2.3478 C   0  0  0  0  0  0  0  0  0  0  0  0
    4.2515    0.6312   -3.4141 O   0  0  0  0  0  0  0  0  0  0  0  0
    5.3469   -0.2694   -1.5424 C   0  0  0  0  0  0  0  0  0  0  0  0
    5.4395   -1.3567   -0.6721 C   0  0  0  0  0  0  0  0  0  0  0  0
    6.6301   -1.5679    0.0324 C   0  0  0  0  0  0  0  0  0  0  0  0
    7.6964   -0.6882   -0.1529 C   0  0  0  0  0  0  0  0  0  0  0  0
    9.2363   -0.9818    0.7057 S   0  0  0  0  0  0  0  0  0  0  0  0
    9.8824    0.6676    0.8944 C   0  0  0  0  0  0  0  0  0  0  0  0
    9.5225    1.4296    2.0001 C   0  0  0  0  0  0  0  0  0  0  0  0
   10.0192    2.7283    2.1558 C   0  0  0  0  0  0  0  0  0  0  0  0
   10.8798    3.3080    1.2157 C   0  0  0  0  0  0  0  0  0  0  0  0
   11.3580    4.6485    1.3117 N   0  0  0  0  0  0  0  0  0  0  0  0
   10.9499    5.5693    2.2636 C   0  0  0  0  0  0  0  0  0  0  0  0
   10.1077    5.3303    3.1228 O   0  0  0  0  0  0  0  0  0  0  0  0
   11.5780    6.8076    2.1572 N   0  0  0  0  0  0  0  0  0  0  0  0
   11.4046    7.8437    3.1218 C   0  0  0  0  0  0  0  0  0  0  0  0
   10.9737    7.5765    4.4234 C   0  0  0  0  0  0  0  0  0  0  0  0
   10.7115    8.6024    5.3297 C   0  0  0  0  0  0  0  0  0  0  0  0
   10.9290    9.9305    4.9748 C   0  0  0  0  0  0  0  0  0  0  0  0
   10.5330   11.1074    6.1714 Cl  0  0  0  0  0  0  0  0  0  0  0  0
   11.4410   10.2386    3.7089 C   0  0  0  0  0  0  0  0  0  0  0  0
   11.7777   11.6409    3.2696 C   0  0  0  0  0  0  0  0  0  0  0  0
   11.5625   12.6340    4.1707 F   0  0  0  0  0  0  0  0  0  0  0  0
   13.0942   11.7503    2.9245 F   0  0  0  0  0  0  0  0  0  0  0  0
   11.0819   12.0055    2.1544 F   0  0  0  0  0  0  0  0  0  0  0  0
   11.6685    9.1767    2.7845 C   0  0  0  0  0  0  0  0  0  0  0  0
   11.2785    2.5208    0.1294 C   0  0  0  0  0  0  0  0  0  0  0  0
   10.7826    1.2127   -0.0283 C   0  0  0  0  0  0  0  0  0  0  0  0
    7.6269    0.3565   -1.0067 N   0  0  0  0  0  0  0  0  0  0  0  0
    6.4642    0.5407   -1.6815 C   0  0  0  0  0  0  0  0  0  0  0  0
    0.8560   -0.2945   -1.8514 H   0  0  0  0  0  0  0  0  0  0  0  0
    1.6511   -0.5700   -3.4315 H   0  0  0  0  0  0  0  0  0  0  0  0
    1.6641    1.0586   -2.7008 H   0  0  0  0  0  0  0  0  0  0  0  0
    2.8729   -0.6644   -0.8548 H   0  0  0  0  0  0  0  0  0  0  0  0
    4.6205   -2.0604   -0.5584 H   0  0  0  0  0  0  0  0  0  0  0  0
    6.7196   -2.4176    0.7030 H   0  0  0  0  0  0  0  0  0  0  0  0
    8.8470    1.0367    2.7555 H   0  0  0  0  0  0  0  0  0  0  0  0
    9.6952    3.2529    3.0468 H   0  0  0  0  0  0  0  0  0  0  0  0
   12.0130    4.9516    0.6060 H   0  0  0  0  0  0  0  0  0  0  0  0
   11.9314    7.0712    1.2466 H   0  0  0  0  0  0  0  0  0  0  0  0
   10.8192    6.5615    4.7794 H   0  0  0  0  0  0  0  0  0  0  0  0
   10.3297    8.3427    6.3151 H   0  0  0  0  0  0  0  0  0  0  0  0
   12.0360    9.4241    1.7889 H   0  0  0  0  0  0  0  0  0  0  0  0
   11.9620    2.9056   -0.6226 H   0  0  0  0  0  0  0  0  0  0  0  0
   11.0901    0.6250   -0.8899 H   0  0  0  0  0  0  0  0  0  0  0  0
    6.4607    1.3928   -2.3576 H   0  0  0  0  0  0  0  0  0  0  0  0
  1  2  1  0  0  0  0
  1 33  1  0  0  0  0
  1 34  1  0  0  0  0
  1 35  1  0  0  0  0
  2  3  1  0  0  0  0
  2 36  1  0  0  0  0
  3  4  2  0  0  0  0
  3  5  1  0  0  0  0
  5  6  1  0  0  0  0
  5 32  2  0  0  0  0
  6  7  2  0  0  0  0
  6 37  1  0  0  0  0
  7  8  1  0  0  0  0
  7 38  1  0  0  0  0
  8  9  1  0  0  0  0
  8 31  2  0  0  0  0
  9 10  1  0  0  0  0
 10 11  1  0  0  0  0
 10 30  2  0  0  0  0
 11 12  2  0  0  0  0
 11 39  1  0  0  0  0
 12 13  1  0  0  0  0
 12 40  1  0  0  0  0
 13 14  1  0  0  0  0
 13 29  2  0  0  0  0
 14 15  1  0  0  0  0
 14 41  1  0  0  0  0
 15 16  2  0  0  0  0
 15 17  1  0  0  0  0
 17 18  1  0  0  0  0
 17 42  1  0  0  0  0
 18 19  1  0  0  0  0
 18 28  2  0  0  0  0
 19 20  2  0  0  0  0
 19 43  1  0  0  0  0
 20 21  1  0  0  0  0
 20 44  1  0  0  0  0
 21 22  1  0  0  0  0
 21 23  2  0  0  0  0
 23 24  1  0  0  0  0
 23 28  1  0  0  0  0
 24 25  1  0  0  0  0
 24 26  1  0  0  0  0
 24 27  1  0  0  0  0
 28 45  1  0  0  0  0
 29 30  1  0  0  0  0
 29 46  1  0  0  0  0
 30 47  1  0  0  0  0
 31 32  1  0  0  0  0
 32 48  1  0  0  0  0
M  END
$$$$
