CHEMBL3696098
 OpenBabel04072215373D

 64 67  0  0  0  0  0  0  0  0999 V2000
    8.9820    1.0908   -1.0006 C   0  0  0  0  0  0  0  0  0  0  0  0
    7.6534    1.1856   -1.5025 O   0  0  0  0  0  0  0  0  0  0  0  0
    7.0825    0.0141   -1.9167 C   0  0  0  0  0  0  0  0  0  0  0  0
    7.7050   -1.2257   -1.9098 C   0  0  0  0  0  0  0  0  0  0  0  0
    7.0038   -2.3439   -2.3404 C   0  0  0  0  0  0  0  0  0  0  0  0
    5.6615   -2.2557   -2.7748 C   0  0  0  0  0  0  0  0  0  0  0  0
    5.0332   -3.5599   -3.1603 C   0  0  0  0  0  0  0  0  0  0  0  0
    4.6923   -3.6257   -4.5595 N   0  0  0  0  0  0  0  0  0  0  0  0
    5.0604   -4.6301   -5.3934 C   0  0  0  0  0  0  0  0  0  0  0  0
    5.1483   -4.3438   -6.6856 N   0  0  0  0  0  0  0  0  0  0  0  0
    5.6376   -5.6651   -7.5143 S   0  0  0  0  0  0  0  0  0  0  0  0
    5.7458   -6.7225   -6.1608 C   0  0  0  0  0  0  0  0  0  0  0  0
    6.1181   -8.1310   -6.3694 C   0  0  0  0  0  0  0  0  0  0  0  0
    7.0150   -8.4799   -7.3800 C   0  0  0  0  0  0  0  0  0  0  0  0
    7.2789   -9.8136   -7.6778 C   0  0  0  0  0  0  0  0  0  0  0  0
    6.6852  -10.8542   -6.9592 C   0  0  0  0  0  0  0  0  0  0  0  0
    6.8626  -12.2139   -7.2894 N   0  0  0  0  0  0  0  0  0  0  0  0
    7.6462  -12.6822   -8.3238 C   0  0  0  0  0  0  0  0  0  0  0  0
    8.3730  -11.9903   -9.0280 O   0  0  0  0  0  0  0  0  0  0  0  0
    7.4972  -14.0455   -8.5284 N   0  0  0  0  0  0  0  0  0  0  0  0
    8.2533  -14.6499   -9.5666 C   0  0  0  0  0  0  0  0  0  0  0  0
    9.6256  -14.4010   -9.7058 C   0  0  0  0  0  0  0  0  0  0  0  0
   10.3346  -14.8970  -10.8069 C   0  0  0  0  0  0  0  0  0  0  0  0
   11.7997  -14.6110  -10.9610 C   0  0  0  0  0  0  0  0  0  0  0  0
    9.6526  -15.6493  -11.7718 C   0  0  0  0  0  0  0  0  0  0  0  0
    8.2899  -15.9218  -11.6236 C   0  0  0  0  0  0  0  0  0  0  0  0
    7.6054  -15.4393  -10.5127 C   0  0  0  0  0  0  0  0  0  0  0  0
    6.2878  -15.6672  -10.4003 F   0  0  0  0  0  0  0  0  0  0  0  0
    5.8504  -10.5191   -5.8943 C   0  0  0  0  0  0  0  0  0  0  0  0
    5.5609   -9.1737   -5.6116 C   0  0  0  0  0  0  0  0  0  0  0  0
    5.3677   -6.0032   -5.0286 C   0  0  0  0  0  0  0  0  0  0  0  0
    5.3467   -6.5973   -3.7026 C   0  0  0  0  0  0  0  0  0  0  0  0
    4.2116   -6.3906   -2.9786 N   0  0  0  0  0  0  0  0  0  0  0  0
    6.2740   -7.2462   -3.2281 O   0  0  0  0  0  0  0  0  0  0  0  0
    5.0346   -1.0066   -2.7992 C   0  0  0  0  0  0  0  0  0  0  0  0
    3.7924   -0.6909   -3.2702 O   0  0  0  0  0  0  0  0  0  0  0  0
    2.7116   -1.5882   -3.0619 C   0  0  0  0  0  0  0  0  0  0  0  0
    5.7655    0.1160   -2.3777 C   0  0  0  0  0  0  0  0  0  0  0  0
    9.2899    2.0874   -0.6742 H   0  0  0  0  0  0  0  0  0  0  0  0
    9.6732    0.7649   -1.7855 H   0  0  0  0  0  0  0  0  0  0  0  0
    9.0310    0.4251   -0.1311 H   0  0  0  0  0  0  0  0  0  0  0  0
    8.7284   -1.3661   -1.5789 H   0  0  0  0  0  0  0  0  0  0  0  0
    7.5246   -3.3032   -2.3325 H   0  0  0  0  0  0  0  0  0  0  0  0
    4.1484   -3.7357   -2.5445 H   0  0  0  0  0  0  0  0  0  0  0  0
    5.7389   -4.3457   -2.8855 H   0  0  0  0  0  0  0  0  0  0  0  0
    4.6718   -2.7107   -5.0142 H   0  0  0  0  0  0  0  0  0  0  0  0
    7.5185   -7.7260   -7.9826 H   0  0  0  0  0  0  0  0  0  0  0  0
    7.9576   -9.9823   -8.5081 H   0  0  0  0  0  0  0  0  0  0  0  0
    6.4205  -12.9018   -6.6976 H   0  0  0  0  0  0  0  0  0  0  0  0
    6.5433  -14.3765   -8.4496 H   0  0  0  0  0  0  0  0  0  0  0  0
   10.1402  -13.7860   -8.9689 H   0  0  0  0  0  0  0  0  0  0  0  0
   12.1750  -13.9821  -10.1462 H   0  0  0  0  0  0  0  0  0  0  0  0
   11.9896  -14.0847  -11.9018 H   0  0  0  0  0  0  0  0  0  0  0  0
   12.3662  -15.5474  -10.9486 H   0  0  0  0  0  0  0  0  0  0  0  0
   10.1804  -16.0162  -12.6494 H   0  0  0  0  0  0  0  0  0  0  0  0
    7.7546  -16.4838  -12.3816 H   0  0  0  0  0  0  0  0  0  0  0  0
    5.3914  -11.2886   -5.2790 H   0  0  0  0  0  0  0  0  0  0  0  0
    4.8740   -8.9667   -4.7959 H   0  0  0  0  0  0  0  0  0  0  0  0
    3.4884   -5.7635   -3.3071 H   0  0  0  0  0  0  0  0  0  0  0  0
    4.2442   -6.6411   -1.9994 H   0  0  0  0  0  0  0  0  0  0  0  0
    1.7884   -0.9999   -3.0393 H   0  0  0  0  0  0  0  0  0  0  0  0
    2.7785   -2.1208   -2.1089 H   0  0  0  0  0  0  0  0  0  0  0  0
    2.6170   -2.2792   -3.9033 H   0  0  0  0  0  0  0  0  0  0  0  0
    5.2912    1.0950   -2.4038 H   0  0  0  0  0  0  0  0  0  0  0  0
  1  2  1  0  0  0  0
  1 39  1  0  0  0  0
  1 40  1  0  0  0  0
  1 41  1  0  0  0  0
  2  3  1  0  0  0  0
  3  4  1  0  0  0  0
  3 38  2  0  0  0  0
  4  5  2  0  0  0  0
  4 42  1  0  0  0  0
  5  6  1  0  0  0  0
  5 43  1  0  0  0  0
  6  7  1  0  0  0  0
  6 35  2  0  0  0  0
  7  8  1  0  0  0  0
  7 44  1  0  0  0  0
  7 45  1  0  0  0  0
  8  9  1  0  0  0  0
  8 46  1  0  0  0  0
  9 10  2  0  0  0  0
  9 31  1  0  0  0  0
 10 11  1  0  0  0  0
 11 12  1  0  0  0  0
 12 13  1  0  0  0  0
 12 31  2  0  0  0  0
 13 14  1  0  0  0  0
 13 30  2  0  0  0  0
 14 15  2  0  0  0  0
 14 47  1  0  0  0  0
 15 16  1  0  0  0  0
 15 48  1  0  0  0  0
 16 17  1  0  0  0  0
 16 29  2  0  0  0  0
 17 18  1  0  0  0  0
 17 49  1  0  0  0  0
 18 19  2  0  0  0  0
 18 20  1  0  0  0  0
 20 21  1  0  0  0  0
 20 50  1  0  0  0  0
 21 22  1  0  0  0  0
 21 27  2  0  0  0  0
 22 23  2  0  0  0  0
 22 51  1  0  0  0  0
 23 24  1  0  0  0  0
 23 25  1  0  0  0  0
 24 52  1  0  0  0  0
 24 53  1  0  0  0  0
 24 54  1  0  0  0  0
 25 26  2  0  0  0  0
 25 55  1  0  0  0  0
 26 27  1  0  0  0  0
 26 56  1  0  0  0  0
 27 28  1  0  0  0  0
 29 30  1  0  0  0  0
 29 57  1  0  0  0  0
 30 58  1  0  0  0  0
 31 32  1  0  0  0  0
 32 33  1  0  0  0  0
 32 34  2  0  0  0  0
 33 59  1  0  0  0  0
 33 60  1  0  0  0  0
 35 36  1  0  0  0  0
 35 38  1  0  0  0  0
 36 37  1  0  0  0  0
 37 61  1  0  0  0  0
 37 62  1  0  0  0  0
 37 63  1  0  0  0  0
 38 64  1  0  0  0  0
M  END
$$$$
