CHEMBL570869
 OpenBabel04072215383D

 61 65  0  0  0  0  0  0  0  0999 V2000
    1.5790   -0.3255    0.1015 O   0  0  0  0  0  0  0  0  0  0  0  0
    1.6698    0.1848   -1.0031 C   0  0  0  0  0  0  0  0  0  0  0  0
    0.7688    1.1079   -1.4311 O   0  0  0  0  0  0  0  0  0  0  0  0
    2.7594   -0.0740   -2.0170 C   0  0  0  0  0  0  0  0  0  0  0  0
    3.6892   -1.1278   -1.6524 N   0  0  0  0  0  0  0  0  0  0  0  0
    4.5058   -1.1127   -0.5592 C   0  0  0  0  0  0  0  0  0  0  0  0
    5.3449   -2.1171   -0.5887 N   0  0  0  0  0  0  0  0  0  0  0  0
    5.0101   -2.8749   -1.7037 C   0  0  0  0  0  0  0  0  0  0  0  0
    5.5981   -4.2125   -1.9624 C   0  0  0  0  0  0  0  0  0  0  0  0
    5.8194   -4.6496   -3.0907 O   0  0  0  0  0  0  0  0  0  0  0  0
    5.8085   -4.9218   -0.7063 C   0  0  0  0  0  0  0  0  0  0  0  0
    5.0020   -4.8094    0.4120 C   0  0  0  0  0  0  0  0  0  0  0  0
    5.5505   -5.4273    1.5435 C   0  0  0  0  0  0  0  0  0  0  0  0
    4.9857   -5.3055    2.7648 N   0  0  0  0  0  0  0  0  0  0  0  0
    5.5911   -5.9783    3.7365 C   0  0  0  0  0  0  0  0  0  0  0  0
    6.7349   -6.7393    3.5690 C   0  0  0  0  0  0  0  0  0  0  0  0
    7.4249   -6.7534    2.3474 C   0  0  0  0  0  0  0  0  0  0  0  0
    8.6840   -7.2676    2.0963 O   0  0  0  0  0  0  0  0  0  0  0  0
    9.4375   -8.0113    2.9752 C   0  0  0  0  0  0  0  0  0  0  0  0
    9.3805   -7.9883    4.3602 C   0  0  0  0  0  0  0  0  0  0  0  0
    9.9816   -9.0013    5.1215 C   0  0  0  0  0  0  0  0  0  0  0  0
   10.7706   -9.9812    4.5249 C   0  0  0  0  0  0  0  0  0  0  0  0
   11.2506  -11.1229    5.2146 N   0  0  0  0  0  0  0  0  0  0  0  0
   10.8653  -11.5599    6.4712 C   0  0  0  0  0  0  0  0  0  0  0  0
   10.0733  -10.9653    7.2071 O   0  0  0  0  0  0  0  0  0  0  0  0
   11.4183  -12.8862    6.9770 C   0  0  0  0  0  0  0  0  0  0  0  0
   12.3973  -13.6322    6.1173 C   0  0  0  0  0  0  0  0  0  0  0  0
   12.8828  -13.1169    5.1117 O   0  0  0  0  0  0  0  0  0  0  0  0
   12.6658  -14.9316    6.5366 N   0  0  0  0  0  0  0  0  0  0  0  0
   13.5259  -15.7540    5.7742 C   0  0  0  0  0  0  0  0  0  0  0  0
   14.7716  -15.2816    5.3483 C   0  0  0  0  0  0  0  0  0  0  0  0
   15.5671  -16.0528    4.5024 C   0  0  0  0  0  0  0  0  0  0  0  0
   15.1047  -17.2867    4.0538 C   0  0  0  0  0  0  0  0  0  0  0  0
   13.8718  -17.7712    4.4942 C   0  0  0  0  0  0  0  0  0  0  0  0
   13.0993  -17.0263    5.3907 C   0  0  0  0  0  0  0  0  0  0  0  0
   11.0789   -9.8214    3.1723 C   0  0  0  0  0  0  0  0  0  0  0  0
   10.4033   -8.8530    2.4123 C   0  0  0  0  0  0  0  0  0  0  0  0
   10.7028   -8.7463    1.1079 F   0  0  0  0  0  0  0  0  0  0  0  0
    6.7365   -6.1170    1.2832 C   0  0  0  0  0  0  0  0  0  0  0  0
    7.0978   -6.0099   -0.4201 S   0  0  0  0  0  0  0  0  0  0  0  0
    3.9973   -2.2386   -2.3991 C   0  0  0  0  0  0  0  0  0  0  0  0
    0.9221    1.4727   -2.3244 H   0  0  0  0  0  0  0  0  0  0  0  0
    3.3562    0.8360   -2.1377 H   0  0  0  0  0  0  0  0  0  0  0  0
    2.3018   -0.3508   -2.9710 H   0  0  0  0  0  0  0  0  0  0  0  0
    4.4474   -0.3660    0.2235 H   0  0  0  0  0  0  0  0  0  0  0  0
    4.1155   -4.1972    0.4574 H   0  0  0  0  0  0  0  0  0  0  0  0
    5.1136   -5.8843    4.7086 H   0  0  0  0  0  0  0  0  0  0  0  0
    7.0338   -7.2941    4.4412 H   0  0  0  0  0  0  0  0  0  0  0  0
    8.8757   -7.2034    4.9061 H   0  0  0  0  0  0  0  0  0  0  0  0
    9.8027   -8.9907    6.1923 H   0  0  0  0  0  0  0  0  0  0  0  0
   11.8694  -11.7438    4.6867 H   0  0  0  0  0  0  0  0  0  0  0  0
   10.5563  -13.5374    7.1685 H   0  0  0  0  0  0  0  0  0  0  0  0
   11.9177  -12.6819    7.9307 H   0  0  0  0  0  0  0  0  0  0  0  0
   11.9595  -15.3964    7.0943 H   0  0  0  0  0  0  0  0  0  0  0  0
   15.1307  -14.3061    5.6674 H   0  0  0  0  0  0  0  0  0  0  0  0
   16.5314  -15.6742    4.1740 H   0  0  0  0  0  0  0  0  0  0  0  0
   15.7004  -17.8646    3.3518 H   0  0  0  0  0  0  0  0  0  0  0  0
   13.5003  -18.7189    4.1134 H   0  0  0  0  0  0  0  0  0  0  0  0
   12.1323  -17.4113    5.7000 H   0  0  0  0  0  0  0  0  0  0  0  0
   11.7962  -10.4639    2.6700 H   0  0  0  0  0  0  0  0  0  0  0  0
    3.4553   -2.5195   -3.2899 H   0  0  0  0  0  0  0  0  0  0  0  0
  1  2  2  0  0  0  0
  2  3  1  0  0  0  0
  2  4  1  0  0  0  0
  3 42  1  0  0  0  0
  4  5  1  0  0  0  0
  4 43  1  0  0  0  0
  4 44  1  0  0  0  0
  5  6  1  0  0  0  0
  5 41  1  0  0  0  0
  6  7  2  0  0  0  0
  6 45  1  0  0  0  0
  7  8  1  0  0  0  0
  8  9  1  0  0  0  0
  8 41  2  0  0  0  0
  9 10  2  0  0  0  0
  9 11  1  0  0  0  0
 11 12  2  0  0  0  0
 11 40  1  0  0  0  0
 12 13  1  0  0  0  0
 12 46  1  0  0  0  0
 13 14  1  0  0  0  0
 13 39  2  0  0  0  0
 14 15  2  0  0  0  0
 15 16  1  0  0  0  0
 15 47  1  0  0  0  0
 16 17  2  0  0  0  0
 16 48  1  0  0  0  0
 17 18  1  0  0  0  0
 17 39  1  0  0  0  0
 18 19  1  0  0  0  0
 19 20  1  0  0  0  0
 19 37  2  0  0  0  0
 20 21  2  0  0  0  0
 20 49  1  0  0  0  0
 21 22  1  0  0  0  0
 21 50  1  0  0  0  0
 22 23  1  0  0  0  0
 22 36  2  0  0  0  0
 23 24  1  0  0  0  0
 23 51  1  0  0  0  0
 24 25  2  0  0  0  0
 24 26  1  0  0  0  0
 26 27  1  0  0  0  0
 26 52  1  0  0  0  0
 26 53  1  0  0  0  0
 27 28  2  0  0  0  0
 27 29  1  0  0  0  0
 29 30  1  0  0  0  0
 29 54  1  0  0  0  0
 30 31  1  0  0  0  0
 30 35  2  0  0  0  0
 31 32  2  0  0  0  0
 31 55  1  0  0  0  0
 32 33  1  0  0  0  0
 32 56  1  0  0  0  0
 33 34  2  0  0  0  0
 33 57  1  0  0  0  0
 34 35  1  0  0  0  0
 34 58  1  0  0  0  0
 35 59  1  0  0  0  0
 36 37  1  0  0  0  0
 36 60  1  0  0  0  0
 37 38  1  0  0  0  0
 39 40  1  0  0  0  0
 41 61  1  0  0  0  0
M  END
$$$$
