CHEMBL151713
 OpenBabel04072215363D

 64 69  0  0  0  0  0  0  0  0999 V2000
    5.0163   -2.0159   -0.5431 C   0  0  0  0  0  0  0  0  0  0  0  0
    5.6861   -1.0613    0.4520 C   0  0  0  0  0  0  0  0  0  0  0  0
    4.9152   -0.9911    1.7757 C   0  0  0  0  0  0  0  0  0  0  0  0
    7.1156   -1.5386    0.7191 C   0  0  0  0  0  0  0  0  0  0  0  0
    5.8384    0.2428   -0.1124 O   0  0  0  0  0  0  0  0  0  0  0  0
    4.6299    0.8982   -0.4429 C   0  0  0  0  0  0  0  0  0  0  0  0
    4.9597    2.1831   -1.1262 C   0  0  0  0  0  0  0  0  0  0  0  0
    5.6433    2.1496   -2.3370 C   0  0  0  0  0  0  0  0  0  0  0  0
    5.7633    3.3039   -3.1170 C   0  0  0  0  0  0  0  0  0  0  0  0
    5.1492    4.4773   -2.6554 C   0  0  0  0  0  0  0  0  0  0  0  0
    4.5661    4.5265   -1.3771 C   0  0  0  0  0  0  0  0  0  0  0  0
    4.4979    3.3846   -0.5865 C   0  0  0  0  0  0  0  0  0  0  0  0
    4.2498    5.8467   -1.2473 C   0  0  0  0  0  0  0  0  0  0  0  0
    4.1050    6.5689   -0.0457 C   0  0  0  0  0  0  0  0  0  0  0  0
    4.4002    7.9887   -0.1622 C   0  0  0  0  0  0  0  0  0  0  0  0
    4.5351    8.5763   -1.4296 C   0  0  0  0  0  0  0  0  0  0  0  0
    3.8170    7.8476   -2.3895 C   0  0  0  0  0  0  0  0  0  0  0  0
    4.2031    6.5301   -2.4255 C   0  0  0  0  0  0  0  0  0  0  0  0
    5.0903    5.7723   -3.2120 N   0  0  0  0  0  0  0  0  0  0  0  0
    6.2322    6.3672   -3.9083 C   0  0  0  0  0  0  0  0  0  0  0  0
    6.9134    5.6742   -5.0819 C   0  0  0  0  0  0  0  0  0  0  0  0
    5.9585    5.4505   -6.2357 C   0  0  0  0  0  0  0  0  0  0  0  0
    6.6297    4.7898   -7.2975 O   0  0  0  0  0  0  0  0  0  0  0  0
    3.3528    8.8096   -3.3954 C   0  0  0  0  0  0  0  0  0  0  0  0
    4.6414    9.5551   -3.5489 C   0  0  0  0  0  0  0  0  0  0  0  0
    5.1509    9.7977   -4.8144 C   0  0  0  0  0  0  0  0  0  0  0  0
    6.5263    9.7681   -4.9483 C   0  0  0  0  0  0  0  0  0  0  0  0
    7.3342    9.6011   -3.8036 C   0  0  0  0  0  0  0  0  0  0  0  0
    6.8044    9.4361   -2.4776 C   0  0  0  0  0  0  0  0  0  0  0  0
    5.4149    9.3873   -2.3271 C   0  0  0  0  0  0  0  0  0  0  0  0
    3.6593    8.6011    0.9327 C   0  0  0  0  0  0  0  0  0  0  0  0
    3.3972    9.7672    1.2028 O   0  0  0  0  0  0  0  0  0  0  0  0
    3.0500    7.5421    1.6242 N   0  0  0  0  0  0  0  0  0  0  0  0
    3.2855    6.2122    1.0999 C   0  0  0  0  0  0  0  0  0  0  0  0
    5.0211   -3.0456   -0.1756 H   0  0  0  0  0  0  0  0  0  0  0  0
    5.5268   -1.9829   -1.5130 H   0  0  0  0  0  0  0  0  0  0  0  0
    3.9721   -1.7445   -0.7307 H   0  0  0  0  0  0  0  0  0  0  0  0
    4.8900   -1.9623    2.2781 H   0  0  0  0  0  0  0  0  0  0  0  0
    3.8780   -0.6723    1.6256 H   0  0  0  0  0  0  0  0  0  0  0  0
    5.3719   -0.2552    2.4480 H   0  0  0  0  0  0  0  0  0  0  0  0
    7.1328   -2.5476    1.1413 H   0  0  0  0  0  0  0  0  0  0  0  0
    7.6295   -0.8611    1.4115 H   0  0  0  0  0  0  0  0  0  0  0  0
    7.7047   -1.5354   -0.2060 H   0  0  0  0  0  0  0  0  0  0  0  0
    4.0342    1.0929    0.4492 H   0  0  0  0  0  0  0  0  0  0  0  0
    4.0223    0.3165   -1.1419 H   0  0  0  0  0  0  0  0  0  0  0  0
    6.0715    1.2298   -2.7043 H   0  0  0  0  0  0  0  0  0  0  0  0
    6.2744    3.2416   -4.0672 H   0  0  0  0  0  0  0  0  0  0  0  0
    4.0090    3.4079    0.3808 H   0  0  0  0  0  0  0  0  0  0  0  0
    6.9869    6.5635   -3.1335 H   0  0  0  0  0  0  0  0  0  0  0  0
    5.8701    7.3076   -4.2936 H   0  0  0  0  0  0  0  0  0  0  0  0
    7.4245    4.7511   -4.7917 H   0  0  0  0  0  0  0  0  0  0  0  0
    7.7372    6.3169   -5.4310 H   0  0  0  0  0  0  0  0  0  0  0  0
    5.5623    6.4005   -6.6068 H   0  0  0  0  0  0  0  0  0  0  0  0
    5.1172    4.8231   -5.9366 H   0  0  0  0  0  0  0  0  0  0  0  0
    7.3088    5.3944   -7.6413 H   0  0  0  0  0  0  0  0  0  0  0  0
    2.6176    9.4849   -2.9202 H   0  0  0  0  0  0  0  0  0  0  0  0
    2.9191    8.3519   -4.2789 H   0  0  0  0  0  0  0  0  0  0  0  0
    4.4948    9.7359   -5.6779 H   0  0  0  0  0  0  0  0  0  0  0  0
    6.9496    9.7381   -5.9517 H   0  0  0  0  0  0  0  0  0  0  0  0
    8.4070    9.4779   -3.9728 H   0  0  0  0  0  0  0  0  0  0  0  0
    7.4775    9.1389   -1.6958 H   0  0  0  0  0  0  0  0  0  0  0  0
    2.2125    7.7578    2.1443 H   0  0  0  0  0  0  0  0  0  0  0  0
    2.3299    5.7654    0.7749 H   0  0  0  0  0  0  0  0  0  0  0  0
    3.7793    5.5900    1.8539 H   0  0  0  0  0  0  0  0  0  0  0  0
  1  2  1  0  0  0  0
  1 35  1  0  0  0  0
  1 36  1  0  0  0  0
  1 37  1  0  0  0  0
  2  3  1  0  0  0  0
  2  4  1  0  0  0  0
  2  5  1  0  0  0  0
  3 38  1  0  0  0  0
  3 39  1  0  0  0  0
  3 40  1  0  0  0  0
  4 41  1  0  0  0  0
  4 42  1  0  0  0  0
  4 43  1  0  0  0  0
  5  6  1  0  0  0  0
  6  7  1  0  0  0  0
  6 44  1  0  0  0  0
  6 45  1  0  0  0  0
  7  8  1  0  0  0  0
  7 12  2  0  0  0  0
  8  9  2  0  0  0  0
  8 46  1  0  0  0  0
  9 10  1  0  0  0  0
  9 47  1  0  0  0  0
 10 11  2  0  0  0  0
 10 19  1  0  0  0  0
 11 12  1  0  0  0  0
 11 13  1  0  0  0  0
 12 48  1  0  0  0  0
 13 14  1  0  0  0  0
 13 18  2  0  0  0  0
 14 15  2  0  0  0  0
 14 34  1  0  0  0  0
 15 16  1  0  0  0  0
 15 31  1  0  0  0  0
 16 17  2  0  0  0  0
 16 30  1  0  0  0  0
 17 18  1  0  0  0  0
 17 24  1  0  0  0  0
 18 19  1  0  0  0  0
 19 20  1  0  0  0  0
 20 21  1  0  0  0  0
 20 49  1  0  0  0  0
 20 50  1  0  0  0  0
 21 22  1  0  0  0  0
 21 51  1  0  0  0  0
 21 52  1  0  0  0  0
 22 23  1  0  0  0  0
 22 53  1  0  0  0  0
 22 54  1  0  0  0  0
 23 55  1  0  0  0  0
 24 25  1  0  0  0  0
 24 56  1  0  0  0  0
 24 57  1  0  0  0  0
 25 26  1  0  0  0  0
 25 30  2  0  0  0  0
 26 27  2  0  0  0  0
 26 58  1  0  0  0  0
 27 28  1  0  0  0  0
 27 59  1  0  0  0  0
 28 29  2  0  0  0  0
 28 60  1  0  0  0  0
 29 30  1  0  0  0  0
 29 61  1  0  0  0  0
 31 32  2  0  0  0  0
 31 33  1  0  0  0  0
 33 34  1  0  0  0  0
 33 62  1  0  0  0  0
 34 63  1  0  0  0  0
 34 64  1  0  0  0  0
M  END
$$$$
