CHEMBL1095761
 OpenBabel04072215363D

 41 44  0  0  0  0  0  0  0  0999 V2000
    1.3158    0.1668   -0.0517 N   0  0  0  0  0  0  0  0  0  0  0  0
    2.6955    0.1224    0.0009 C   0  0  0  0  0  0  0  0  0  0  0  0
    3.2425   -1.0965    0.1017 N   0  0  0  0  0  0  0  0  0  0  0  0
    4.5923   -1.2390    0.0730 C   0  0  0  0  0  0  0  0  0  0  0  0
    5.1810   -2.5100    0.0681 N   0  0  0  0  0  0  0  0  0  0  0  0
    4.7176   -3.7128    0.6224 C   0  0  0  0  0  0  0  0  0  0  0  0
    3.7561   -3.7514    1.6397 C   0  0  0  0  0  0  0  0  0  0  0  0
    3.3193   -4.9650    2.1763 C   0  0  0  0  0  0  0  0  0  0  0  0
    3.8095   -6.1648    1.6678 C   0  0  0  0  0  0  0  0  0  0  0  0
    4.7348   -6.1420    0.6274 C   0  0  0  0  0  0  0  0  0  0  0  0
    5.3734   -7.7687   -0.0935 Br  0  0  0  0  0  0  0  0  0  0  0  0
    5.1909   -4.9279    0.1077 C   0  0  0  0  0  0  0  0  0  0  0  0
    5.3651   -0.0753   -0.0462 C   0  0  0  0  0  0  0  0  0  0  0  0
    6.7475    0.2382   -0.1589 C   0  0  0  0  0  0  0  0  0  0  0  0
    6.8564    1.6036   -0.3579 C   0  0  0  0  0  0  0  0  0  0  0  0
    8.0369    2.4360   -0.7358 C   0  0  0  0  0  0  0  0  0  0  0  0
    8.8281    2.9441    0.4451 C   0  0  0  0  0  0  0  0  0  0  0  0
    9.8753    2.1511    0.9512 C   0  0  0  0  0  0  0  0  0  0  0  0
   10.6379    2.5819    2.0382 C   0  0  0  0  0  0  0  0  0  0  0  0
   10.3590    3.8083    2.6335 C   0  0  0  0  0  0  0  0  0  0  0  0
   11.2943    4.3364    3.9773 Cl  0  0  0  0  0  0  0  0  0  0  0  0
    9.3276    4.6093    2.1516 C   0  0  0  0  0  0  0  0  0  0  0  0
    8.5629    4.1771    1.0645 C   0  0  0  0  0  0  0  0  0  0  0  0
    7.2963    5.2186    0.5166 Cl  0  0  0  0  0  0  0  0  0  0  0  0
    5.5918    2.1337   -0.2183 N   0  0  0  0  0  0  0  0  0  0  0  0
    4.6777    1.1240   -0.0897 C   0  0  0  0  0  0  0  0  0  0  0  0
    3.3491    1.2890   -0.0519 N   0  0  0  0  0  0  0  0  0  0  0  0
    0.9306   -0.6950    0.3072 H   0  0  0  0  0  0  0  0  0  0  0  0
    0.9734    1.0391    0.3195 H   0  0  0  0  0  0  0  0  0  0  0  0
    6.1570   -2.5174   -0.1910 H   0  0  0  0  0  0  0  0  0  0  0  0
    3.3644   -2.8258    2.0558 H   0  0  0  0  0  0  0  0  0  0  0  0
    2.5959   -4.9672    2.9866 H   0  0  0  0  0  0  0  0  0  0  0  0
    3.4594   -7.1066    2.0814 H   0  0  0  0  0  0  0  0  0  0  0  0
    5.8965   -4.9271   -0.7180 H   0  0  0  0  0  0  0  0  0  0  0  0
    7.5691   -0.4655   -0.1732 H   0  0  0  0  0  0  0  0  0  0  0  0
    7.7275    3.2627   -1.3857 H   0  0  0  0  0  0  0  0  0  0  0  0
    8.6987    1.8300   -1.3702 H   0  0  0  0  0  0  0  0  0  0  0  0
   10.1051    1.1895    0.4952 H   0  0  0  0  0  0  0  0  0  0  0  0
   11.4445    1.9571    2.4139 H   0  0  0  0  0  0  0  0  0  0  0  0
    9.1192    5.5669    2.6211 H   0  0  0  0  0  0  0  0  0  0  0  0
    5.3417    3.1124   -0.2787 H   0  0  0  0  0  0  0  0  0  0  0  0
  1  2  1  0  0  0  0
  1 28  1  0  0  0  0
  1 29  1  0  0  0  0
  2  3  1  0  0  0  0
  2 27  2  0  0  0  0
  3  4  2  0  0  0  0
  4  5  1  0  0  0  0
  4 13  1  0  0  0  0
  5  6  1  0  0  0  0
  5 30  1  0  0  0  0
  6  7  1  0  0  0  0
  6 12  2  0  0  0  0
  7  8  2  0  0  0  0
  7 31  1  0  0  0  0
  8  9  1  0  0  0  0
  8 32  1  0  0  0  0
  9 10  2  0  0  0  0
  9 33  1  0  0  0  0
 10 11  1  0  0  0  0
 10 12  1  0  0  0  0
 12 34  1  0  0  0  0
 13 14  1  0  0  0  0
 13 26  2  0  0  0  0
 14 15  2  0  0  0  0
 14 35  1  0  0  0  0
 15 16  1  0  0  0  0
 15 25  1  0  0  0  0
 16 17  1  0  0  0  0
 16 36  1  0  0  0  0
 16 37  1  0  0  0  0
 17 18  1  0  0  0  0
 17 23  2  0  0  0  0
 18 19  2  0  0  0  0
 18 38  1  0  0  0  0
 19 20  1  0  0  0  0
 19 39  1  0  0  0  0
 20 21  1  0  0  0  0
 20 22  2  0  0  0  0
 22 23  1  0  0  0  0
 22 40  1  0  0  0  0
 23 24  1  0  0  0  0
 25 26  1  0  0  0  0
 25 41  1  0  0  0  0
 26 27  1  0  0  0  0
M  END
$$$$
