CHEMBL231650
 OpenBabel04072215363D

 40 42  0  0  0  0  0  0  0  0999 V2000
    0.8680    1.3846   -0.2599 C   0  0  0  0  0  0  0  0  0  0  0  0
    2.2817    1.4876   -0.1983 O   0  0  0  0  0  0  0  0  0  0  0  0
    2.7716    1.3922    1.1405 C   0  0  0  0  0  0  0  0  0  0  0  0
    4.2872    1.5123    1.0794 C   0  0  0  0  0  0  0  0  0  0  0  0
    4.8673    1.3970    2.3801 O   0  0  0  0  0  0  0  0  0  0  0  0
    6.2335    1.5280    2.4186 C   0  0  0  0  0  0  0  0  0  0  0  0
    7.0489    1.7212    1.3070 C   0  0  0  0  0  0  0  0  0  0  0  0
    8.4197    1.8810    1.4726 C   0  0  0  0  0  0  0  0  0  0  0  0
    8.9940    1.8386    2.7581 C   0  0  0  0  0  0  0  0  0  0  0  0
   10.3598    2.0139    3.0087 C   0  0  0  0  0  0  0  0  0  0  0  0
   11.2235    2.3898    1.9371 N   0  0  0  0  0  0  0  0  0  0  0  0
   12.6278    2.2911    2.0306 C   0  0  0  0  0  0  0  0  0  0  0  0
   13.2224    1.0979    2.4589 C   0  0  0  0  0  0  0  0  0  0  0  0
   14.5945    1.0345    2.6891 C   0  0  0  0  0  0  0  0  0  0  0  0
   15.1338   -0.1206    3.1848 O   0  0  0  0  0  0  0  0  0  0  0  0
   15.3999    2.1495    2.4401 C   0  0  0  0  0  0  0  0  0  0  0  0
   17.0914    2.1212    2.7749 Cl  0  0  0  0  0  0  0  0  0  0  0  0
   14.8349    3.3233    1.9416 C   0  0  0  0  0  0  0  0  0  0  0  0
   13.4581    3.3825    1.7391 C   0  0  0  0  0  0  0  0  0  0  0  0
   12.9125    4.5260    1.2949 F   0  0  0  0  0  0  0  0  0  0  0  0
   10.8825    1.8645    4.2402 N   0  0  0  0  0  0  0  0  0  0  0  0
   10.0269    1.5928    5.2279 C   0  0  0  0  0  0  0  0  0  0  0  0
    8.7013    1.4636    5.1098 N   0  0  0  0  0  0  0  0  0  0  0  0
    8.1863    1.5847    3.8780 C   0  0  0  0  0  0  0  0  0  0  0  0
    6.8183    1.4490    3.6880 C   0  0  0  0  0  0  0  0  0  0  0  0
    0.5682    1.4533   -1.3093 H   0  0  0  0  0  0  0  0  0  0  0  0
    0.4018    2.2054    0.2919 H   0  0  0  0  0  0  0  0  0  0  0  0
    0.5372    0.4205    0.1361 H   0  0  0  0  0  0  0  0  0  0  0  0
    2.4849    0.4314    1.5837 H   0  0  0  0  0  0  0  0  0  0  0  0
    2.3513    2.1939    1.7581 H   0  0  0  0  0  0  0  0  0  0  0  0
    4.5357    2.4854    0.6356 H   0  0  0  0  0  0  0  0  0  0  0  0
    4.6690    0.7177    0.4257 H   0  0  0  0  0  0  0  0  0  0  0  0
    6.6599    1.7547    0.2953 H   0  0  0  0  0  0  0  0  0  0  0  0
    9.0413    2.0113    0.5885 H   0  0  0  0  0  0  0  0  0  0  0  0
   10.9404    3.3052    1.5926 H   0  0  0  0  0  0  0  0  0  0  0  0
   12.5880    0.2339    2.6427 H   0  0  0  0  0  0  0  0  0  0  0  0
   14.4095   -0.6974    3.4833 H   0  0  0  0  0  0  0  0  0  0  0  0
   15.4448    4.1972    1.7391 H   0  0  0  0  0  0  0  0  0  0  0  0
   10.4484    1.4680    6.2189 H   0  0  0  0  0  0  0  0  0  0  0  0
    6.1858    1.2758    4.5554 H   0  0  0  0  0  0  0  0  0  0  0  0
  1  2  1  0  0  0  0
  1 26  1  0  0  0  0
  1 27  1  0  0  0  0
  1 28  1  0  0  0  0
  2  3  1  0  0  0  0
  3  4  1  0  0  0  0
  3 29  1  0  0  0  0
  3 30  1  0  0  0  0
  4  5  1  0  0  0  0
  4 31  1  0  0  0  0
  4 32  1  0  0  0  0
  5  6  1  0  0  0  0
  6  7  1  0  0  0  0
  6 25  2  0  0  0  0
  7  8  2  0  0  0  0
  7 33  1  0  0  0  0
  8  9  1  0  0  0  0
  8 34  1  0  0  0  0
  9 10  1  0  0  0  0
  9 24  2  0  0  0  0
 10 11  1  0  0  0  0
 10 21  2  0  0  0  0
 11 12  1  0  0  0  0
 11 35  1  0  0  0  0
 12 13  1  0  0  0  0
 12 19  2  0  0  0  0
 13 14  2  0  0  0  0
 13 36  1  0  0  0  0
 14 15  1  0  0  0  0
 14 16  1  0  0  0  0
 15 37  1  0  0  0  0
 16 17  1  0  0  0  0
 16 18  2  0  0  0  0
 18 19  1  0  0  0  0
 18 38  1  0  0  0  0
 19 20  1  0  0  0  0
 21 22  1  0  0  0  0
 22 23  2  0  0  0  0
 22 39  1  0  0  0  0
 23 24  1  0  0  0  0
 24 25  1  0  0  0  0
 25 40  1  0  0  0  0
M  END
$$$$
