CHEMBL3799843
 OpenBabel04072215373D

 58 61  0  0  0  0  0  0  0  0999 V2000
    3.2172    0.4669   -1.0111 C   0  0  0  0  0  0  0  0  0  0  0  0
    2.8052   -0.7093   -0.3116 O   0  0  0  0  0  0  0  0  0  0  0  0
    3.4466   -1.0780    0.8389 C   0  0  0  0  0  0  0  0  0  0  0  0
    4.4759   -0.3383    1.4238 C   0  0  0  0  0  0  0  0  0  0  0  0
    5.1866   -0.8099    2.5531 C   0  0  0  0  0  0  0  0  0  0  0  0
    6.2995   -0.1666    3.1187 C   0  0  0  0  0  0  0  0  0  0  0  0
    6.6913    1.0902    2.5882 N   0  0  0  0  0  0  0  0  0  0  0  0
    7.9531    1.6975    2.7708 C   0  0  0  0  0  0  0  0  0  0  0  0
    9.1332    0.9564    2.5616 C   0  0  0  0  0  0  0  0  0  0  0  0
    9.0720   -0.3138    2.1336 F   0  0  0  0  0  0  0  0  0  0  0  0
   10.3914    1.5138    2.7391 C   0  0  0  0  0  0  0  0  0  0  0  0
   10.5050    2.8449    3.1178 C   0  0  0  0  0  0  0  0  0  0  0  0
    9.3469    3.6032    3.3178 C   0  0  0  0  0  0  0  0  0  0  0  0
    9.4635    4.9164    3.6869 O   0  0  0  0  0  0  0  0  0  0  0  0
    8.0648    3.0554    3.1529 C   0  0  0  0  0  0  0  0  0  0  0  0
    6.8355    3.8884    3.4056 C   0  0  0  0  0  0  0  0  0  0  0  0
    6.9929   -0.6979    4.1407 N   0  0  0  0  0  0  0  0  0  0  0  0
    6.5612   -1.8696    4.6087 C   0  0  0  0  0  0  0  0  0  0  0  0
    5.4833   -2.5383    4.1873 N   0  0  0  0  0  0  0  0  0  0  0  0
    4.8209   -2.0069    3.1565 C   0  0  0  0  0  0  0  0  0  0  0  0
    3.7396   -2.6921    2.6319 C   0  0  0  0  0  0  0  0  0  0  0  0
    3.0741   -2.2902    1.4532 C   0  0  0  0  0  0  0  0  0  0  0  0
    2.0808   -3.0698    0.8634 O   0  0  0  0  0  0  0  0  0  0  0  0
    2.0764   -4.4261    1.3389 C   0  0  0  0  0  0  0  0  0  0  0  0
    1.2204   -5.4160    0.5293 C   0  0  0  0  0  0  0  0  0  0  0  0
   -0.2889   -5.1860    0.6475 C   0  0  0  0  0  0  0  0  0  0  0  0
   -0.8109   -5.4416    2.0651 C   0  0  0  0  0  0  0  0  0  0  0  0
   -0.4360   -6.7638    2.5942 N   0  0  0  0  0  0  0  0  0  0  0  0
   -0.8320   -6.8557    4.0078 C   0  0  0  0  0  0  0  0  0  0  0  0
    0.9841   -7.0854    2.4480 C   0  0  0  0  0  0  0  0  0  0  0  0
    1.5051   -6.8484    1.0237 C   0  0  0  0  0  0  0  0  0  0  0  0
    3.1997    0.2460   -2.0824 H   0  0  0  0  0  0  0  0  0  0  0  0
    4.2294    0.8203   -0.8050 H   0  0  0  0  0  0  0  0  0  0  0  0
    2.5063    1.2756   -0.8147 H   0  0  0  0  0  0  0  0  0  0  0  0
    4.8024    0.6048    1.0026 H   0  0  0  0  0  0  0  0  0  0  0  0
    5.9165    1.7352    2.6639 H   0  0  0  0  0  0  0  0  0  0  0  0
   11.2765    0.9024    2.5704 H   0  0  0  0  0  0  0  0  0  0  0  0
   11.4906    3.2752    3.2557 H   0  0  0  0  0  0  0  0  0  0  0  0
   10.4040    5.1420    3.7791 H   0  0  0  0  0  0  0  0  0  0  0  0
    7.0729    4.9226    3.6721 H   0  0  0  0  0  0  0  0  0  0  0  0
    6.2655    3.4607    4.2365 H   0  0  0  0  0  0  0  0  0  0  0  0
    6.2045    3.9250    2.5116 H   0  0  0  0  0  0  0  0  0  0  0  0
    7.1424   -2.3245    5.4025 H   0  0  0  0  0  0  0  0  0  0  0  0
    3.4599   -3.5945    3.1677 H   0  0  0  0  0  0  0  0  0  0  0  0
    1.7301   -4.4206    2.3770 H   0  0  0  0  0  0  0  0  0  0  0  0
    3.1058   -4.8063    1.2966 H   0  0  0  0  0  0  0  0  0  0  0  0
    1.5009   -5.3321   -0.5275 H   0  0  0  0  0  0  0  0  0  0  0  0
   -0.8029   -5.8697   -0.0425 H   0  0  0  0  0  0  0  0  0  0  0  0
   -0.5499   -4.1700    0.3317 H   0  0  0  0  0  0  0  0  0  0  0  0
   -1.9059   -5.3744    2.0371 H   0  0  0  0  0  0  0  0  0  0  0  0
   -0.4638   -4.6397    2.7282 H   0  0  0  0  0  0  0  0  0  0  0  0
   -1.9132   -6.7163    4.1185 H   0  0  0  0  0  0  0  0  0  0  0  0
   -0.3227   -6.1056    4.6220 H   0  0  0  0  0  0  0  0  0  0  0  0
   -0.5924   -7.8432    4.4177 H   0  0  0  0  0  0  0  0  0  0  0  0
    1.1356   -8.1451    2.6903 H   0  0  0  0  0  0  0  0  0  0  0  0
    1.5926   -6.5165    3.1623 H   0  0  0  0  0  0  0  0  0  0  0  0
    1.0389   -7.5711    0.3424 H   0  0  0  0  0  0  0  0  0  0  0  0
    2.5834   -7.0508    0.9983 H   0  0  0  0  0  0  0  0  0  0  0  0
  1  2  1  0  0  0  0
  1 32  1  0  0  0  0
  1 33  1  0  0  0  0
  1 34  1  0  0  0  0
  2  3  1  0  0  0  0
  3  4  1  0  0  0  0
  3 22  2  0  0  0  0
  4  5  2  0  0  0  0
  4 35  1  0  0  0  0
  5  6  1  0  0  0  0
  5 20  1  0  0  0  0
  6  7  1  0  0  0  0
  6 17  2  0  0  0  0
  7  8  1  0  0  0  0
  7 36  1  0  0  0  0
  8  9  1  0  0  0  0
  8 15  2  0  0  0  0
  9 10  1  0  0  0  0
  9 11  2  0  0  0  0
 11 12  1  0  0  0  0
 11 37  1  0  0  0  0
 12 13  2  0  0  0  0
 12 38  1  0  0  0  0
 13 14  1  0  0  0  0
 13 15  1  0  0  0  0
 14 39  1  0  0  0  0
 15 16  1  0  0  0  0
 16 40  1  0  0  0  0
 16 41  1  0  0  0  0
 16 42  1  0  0  0  0
 17 18  1  0  0  0  0
 18 19  2  0  0  0  0
 18 43  1  0  0  0  0
 19 20  1  0  0  0  0
 20 21  2  0  0  0  0
 21 22  1  0  0  0  0
 21 44  1  0  0  0  0
 22 23  1  0  0  0  0
 23 24  1  0  0  0  0
 24 25  1  0  0  0  0
 24 45  1  0  0  0  0
 24 46  1  0  0  0  0
 25 26  1  0  0  0  0
 25 31  1  0  0  0  0
 25 47  1  0  0  0  0
 26 27  1  0  0  0  0
 26 48  1  0  0  0  0
 26 49  1  0  0  0  0
 27 28  1  0  0  0  0
 27 50  1  0  0  0  0
 27 51  1  0  0  0  0
 28 29  1  0  0  0  0
 28 30  1  0  0  0  0
 29 52  1  0  0  0  0
 29 53  1  0  0  0  0
 29 54  1  0  0  0  0
 30 31  1  0  0  0  0
 30 55  1  0  0  0  0
 30 56  1  0  0  0  0
 31 57  1  0  0  0  0
 31 58  1  0  0  0  0
M  END
$$$$
