CHEMBL602905
 OpenBabel04072215383D

 60 64  0  0  1  0  0  0  0  0999 V2000
   -1.0319    4.0296   -0.6042 C   0  0  0  0  0  0  0  0  0  0  0  0
   -1.5117    2.8135   -0.0072 N   0  0  0  0  0  0  0  0  0  0  0  0
   -1.2177    2.3456    1.2393 C   0  0  0  0  0  0  0  0  0  0  0  0
   -1.8889    1.2474    1.5099 N   0  0  0  0  0  0  0  0  0  0  0  0
   -2.6131    0.9754    0.3720 C   0  0  0  0  0  0  0  0  0  0  0  0
   -3.5247   -0.1939    0.2358 C   0  0  0  0  0  0  0  0  0  0  0  0
   -3.8454   -1.0304    1.2813 C   0  0  0  0  0  0  0  0  0  0  0  0
   -4.7316   -2.0744    0.8875 C   0  0  0  0  0  0  0  0  0  0  0  0
   -5.2358   -3.0272    1.7177 N   0  0  0  0  0  0  0  0  0  0  0  0
   -5.9866   -3.9758    1.1313 C   0  0  0  0  0  0  0  0  0  0  0  0
   -6.2634   -4.0508   -0.2194 C   0  0  0  0  0  0  0  0  0  0  0  0
   -5.8089   -3.0330   -1.0589 C   0  0  0  0  0  0  0  0  0  0  0  0
   -6.0119   -3.0233   -2.4205 O   0  0  0  0  0  0  0  0  0  0  0  0
   -7.2284   -3.4067   -2.9326 C   0  0  0  0  0  0  0  0  0  0  0  0
   -8.4349   -3.3034   -2.2528 C   0  0  0  0  0  0  0  0  0  0  0  0
   -9.6146   -3.7330   -2.8554 C   0  0  0  0  0  0  0  0  0  0  0  0
   -9.6333   -4.1951   -4.1764 C   0  0  0  0  0  0  0  0  0  0  0  0
  -10.8124   -4.5142   -4.8222 N   0  0  0  0  0  0  0  0  0  0  0  0
  -12.0922   -3.8207   -4.5186 C   0  0  3  0  0  0  0  0  0  0  0  0
  -12.1449   -2.4879   -5.2901 C   0  0  0  0  0  0  0  0  0  0  0  0
  -13.3125   -1.6537   -4.8084 C   0  0  0  0  0  0  0  0  0  0  0  0
  -13.8169   -1.8553   -3.7079 O   0  0  0  0  0  0  0  0  0  0  0  0
  -13.7350   -0.7040   -5.7269 N   0  0  0  0  0  0  0  0  0  0  0  0
  -14.8959    0.0691   -5.5117 C   0  0  0  0  0  0  0  0  0  0  0  0
  -15.2110    0.5981   -4.2543 C   0  0  0  0  0  0  0  0  0  0  0  0
  -16.4335    1.2376   -4.0477 C   0  0  0  0  0  0  0  0  0  0  0  0
  -17.3363    1.3364   -5.0978 C   0  0  0  0  0  0  0  0  0  0  0  0
  -18.5382    1.8872   -4.8855 F   0  0  0  0  0  0  0  0  0  0  0  0
  -17.0149    0.8608   -6.3647 C   0  0  0  0  0  0  0  0  0  0  0  0
  -15.7763    0.2529   -6.5825 C   0  0  0  0  0  0  0  0  0  0  0  0
  -13.3320   -4.7059   -4.8145 C   0  0  0  0  0  0  0  0  0  0  0  0
  -12.9583   -5.9233   -5.2856 F   0  0  0  0  0  0  0  0  0  0  0  0
  -14.0686   -4.9226   -3.7026 F   0  0  0  0  0  0  0  0  0  0  0  0
  -14.1393   -4.1648   -5.7553 F   0  0  0  0  0  0  0  0  0  0  0  0
   -8.4178   -4.2517   -4.8641 C   0  0  0  0  0  0  0  0  0  0  0  0
   -7.2239   -3.8706   -4.2513 C   0  0  0  0  0  0  0  0  0  0  0  0
   -5.0173   -2.0305   -0.4770 C   0  0  0  0  0  0  0  0  0  0  0  0
   -4.2894   -0.6580   -1.2128 S   0  0  0  0  0  0  0  0  0  0  0  0
   -2.3744    1.9285   -0.5918 C   0  0  0  0  0  0  0  0  0  0  0  0
   -0.2323    4.4518    0.0103 H   0  0  0  0  0  0  0  0  0  0  0  0
   -1.8697    4.7313   -0.6620 H   0  0  0  0  0  0  0  0  0  0  0  0
   -0.6535    3.8084   -1.6070 H   0  0  0  0  0  0  0  0  0  0  0  0
   -0.5266    2.8398    1.9086 H   0  0  0  0  0  0  0  0  0  0  0  0
   -3.4702   -0.9041    2.2878 H   0  0  0  0  0  0  0  0  0  0  0  0
   -6.3808   -4.7275    1.8112 H   0  0  0  0  0  0  0  0  0  0  0  0
   -6.8426   -4.8843   -0.6021 H   0  0  0  0  0  0  0  0  0  0  0  0
   -8.4921   -2.9103   -1.2410 H   0  0  0  0  0  0  0  0  0  0  0  0
  -10.5140   -3.7218   -2.2506 H   0  0  0  0  0  0  0  0  0  0  0  0
  -10.7651   -5.0574   -5.6806 H   0  0  0  0  0  0  0  0  0  0  0  0
  -12.1422   -3.6079   -3.4461 H   0  0  0  0  0  0  0  0  0  0  0  0
  -12.2136   -2.6685   -6.3692 H   0  0  0  0  0  0  0  0  0  0  0  0
  -11.2377   -1.8977   -5.1095 H   0  0  0  0  0  0  0  0  0  0  0  0
  -13.4642   -0.8506   -6.6918 H   0  0  0  0  0  0  0  0  0  0  0  0
  -14.5152    0.5114   -3.4230 H   0  0  0  0  0  0  0  0  0  0  0  0
  -16.6930    1.6310   -3.0703 H   0  0  0  0  0  0  0  0  0  0  0  0
  -17.7430    0.9393   -7.1655 H   0  0  0  0  0  0  0  0  0  0  0  0
  -15.5516   -0.1446   -7.5681 H   0  0  0  0  0  0  0  0  0  0  0  0
   -8.3889   -4.5965   -5.8991 H   0  0  0  0  0  0  0  0  0  0  0  0
   -6.2872   -3.9212   -4.8021 H   0  0  0  0  0  0  0  0  0  0  0  0
   -2.7547    2.0638   -1.5939 H   0  0  0  0  0  0  0  0  0  0  0  0
  1  2  1  0  0  0  0
  1 40  1  0  0  0  0
  1 41  1  0  0  0  0
  1 42  1  0  0  0  0
  2  3  1  0  0  0  0
  2 39  1  0  0  0  0
  3  4  2  0  0  0  0
  3 43  1  0  0  0  0
  4  5  1  0  0  0  0
  5  6  1  0  0  0  0
  5 39  2  0  0  0  0
  6  7  2  0  0  0  0
  6 38  1  0  0  0  0
  7  8  1  0  0  0  0
  7 44  1  0  0  0  0
  8  9  1  0  0  0  0
  8 37  2  0  0  0  0
  9 10  2  0  0  0  0
 10 11  1  0  0  0  0
 10 45  1  0  0  0  0
 11 12  2  0  0  0  0
 11 46  1  0  0  0  0
 12 13  1  0  0  0  0
 12 37  1  0  0  0  0
 13 14  1  0  0  0  0
 14 15  1  0  0  0  0
 14 36  2  0  0  0  0
 15 16  2  0  0  0  0
 15 47  1  0  0  0  0
 16 17  1  0  0  0  0
 16 48  1  0  0  0  0
 17 18  1  0  0  0  0
 17 35  2  0  0  0  0
 18 19  1  0  0  0  0
 18 49  1  0  0  0  0
 19 20  1  0  0  0  0
 19 31  1  0  0  0  0
 19 50  1  0  0  0  0
 20 21  1  0  0  0  0
 20 51  1  0  0  0  0
 20 52  1  0  0  0  0
 21 22  2  0  0  0  0
 21 23  1  0  0  0  0
 23 24  1  0  0  0  0
 23 53  1  0  0  0  0
 24 25  1  0  0  0  0
 24 30  2  0  0  0  0
 25 26  2  0  0  0  0
 25 54  1  0  0  0  0
 26 27  1  0  0  0  0
 26 55  1  0  0  0  0
 27 28  1  0  0  0  0
 27 29  2  0  0  0  0
 29 30  1  0  0  0  0
 29 56  1  0  0  0  0
 30 57  1  0  0  0  0
 31 32  1  0  0  0  0
 31 33  1  0  0  0  0
 31 34  1  0  0  0  0
 35 36  1  0  0  0  0
 35 58  1  0  0  0  0
 36 59  1  0  0  0  0
 37 38  1  0  0  0  0
 39 60  1  0  0  0  0
M  END
$$$$
