CHEMBL3593296
 OpenBabel04072215363D

 67 71  0  0  0  0  0  0  0  0999 V2000
   -4.2027    1.9903    0.8473 C   0  0  0  0  0  0  0  0  0  0  0  0
   -4.4537    0.6357    0.3323 C   0  0  0  0  0  0  0  0  0  0  0  0
   -5.1640    0.1095   -0.7191 C   0  0  0  0  0  0  0  0  0  0  0  0
   -4.9474   -1.2845   -0.6273 C   0  0  0  0  0  0  0  0  0  0  0  0
   -5.4486   -2.2172   -1.5090 N   0  0  0  0  0  0  0  0  0  0  0  0
   -5.2137   -3.5650   -1.5170 C   0  0  0  0  0  0  0  0  0  0  0  0
   -5.6423   -4.2284   -2.4604 O   0  0  0  0  0  0  0  0  0  0  0  0
   -4.5447   -4.0741   -0.4351 N   0  0  0  0  0  0  0  0  0  0  0  0
   -4.2085   -5.4226   -0.2956 C   0  0  0  0  0  0  0  0  0  0  0  0
   -3.6027   -6.1241   -1.3341 C   0  0  0  0  0  0  0  0  0  0  0  0
   -3.2829   -7.4734   -1.1734 C   0  0  0  0  0  0  0  0  0  0  0  0
   -3.6007   -8.1534    0.0106 C   0  0  0  0  0  0  0  0  0  0  0  0
   -3.3036   -9.5822    0.1918 C   0  0  0  0  0  0  0  0  0  0  0  0
   -3.1815  -10.3053    1.3668 C   0  0  0  0  0  0  0  0  0  0  0  0
   -2.9110  -11.6466    1.2338 N   0  0  0  0  0  0  0  0  0  0  0  0
   -2.8319  -11.9516   -0.0353 C   0  0  0  0  0  0  0  0  0  0  0  0
   -2.5882  -13.1804   -0.5967 N   0  0  0  0  0  0  0  0  0  0  0  0
   -2.6063  -14.3011    0.1969 C   0  0  0  0  0  0  0  0  0  0  0  0
   -2.8904  -14.3472    1.3912 O   0  0  0  0  0  0  0  0  0  0  0  0
   -2.2931  -15.6057   -0.4500 C   0  0  0  0  0  0  0  0  0  0  0  0
   -1.4024  -15.7402   -1.5190 C   0  0  0  0  0  0  0  0  0  0  0  0
   -1.0655  -17.0195   -1.9841 C   0  0  0  0  0  0  0  0  0  0  0  0
   -1.5911  -18.1585   -1.3679 C   0  0  0  0  0  0  0  0  0  0  0  0
   -1.2990  -19.4504   -1.6923 O   0  0  0  0  0  0  0  0  0  0  0  0
    0.0067  -19.7167   -2.2098 C   0  0  0  0  0  0  0  0  0  0  0  0
    0.6836  -20.7762   -1.3235 C   0  0  0  0  0  0  0  0  0  0  0  0
    2.0516  -21.1269   -1.7537 N   0  0  0  0  0  0  0  0  0  0  0  0
    2.1068  -21.7358   -3.1012 C   0  0  0  0  0  0  0  0  0  0  0  0
    1.5124  -23.1512   -3.1601 C   0  0  0  0  0  0  0  0  0  0  0  0
    2.1735  -24.0254   -2.2375 O   0  0  0  0  0  0  0  0  0  0  0  0
    2.1066  -23.5117   -0.9003 C   0  0  0  0  0  0  0  0  0  0  0  0
    2.6774  -22.0837   -0.8095 C   0  0  0  0  0  0  0  0  0  0  0  0
   -2.5191  -18.0179   -0.3393 C   0  0  0  0  0  0  0  0  0  0  0  0
   -2.8619  -16.7514    0.1238 C   0  0  0  0  0  0  0  0  0  0  0  0
   -3.0495  -10.6691   -1.1320 S   0  0  0  0  0  0  0  0  0  0  0  0
   -4.2009   -7.4198    1.0519 C   0  0  0  0  0  0  0  0  0  0  0  0
   -4.4678   -6.0551    0.9154 C   0  0  0  0  0  0  0  0  0  0  0  0
   -4.1872   -1.5732    0.4348 N   0  0  0  0  0  0  0  0  0  0  0  0
   -3.8629   -0.3724    1.0205 O   0  0  0  0  0  0  0  0  0  0  0  0
   -4.7303    2.7440    0.2560 H   0  0  0  0  0  0  0  0  0  0  0  0
   -3.1319    2.2161    0.8179 H   0  0  0  0  0  0  0  0  0  0  0  0
   -4.5412    2.0670    1.8851 H   0  0  0  0  0  0  0  0  0  0  0  0
   -5.7408    0.6533   -1.4513 H   0  0  0  0  0  0  0  0  0  0  0  0
   -5.9921   -1.8912   -2.2951 H   0  0  0  0  0  0  0  0  0  0  0  0
   -4.6230   -3.5159    0.4088 H   0  0  0  0  0  0  0  0  0  0  0  0
   -3.3412   -5.6197   -2.2607 H   0  0  0  0  0  0  0  0  0  0  0  0
   -2.7779   -7.9737   -1.9947 H   0  0  0  0  0  0  0  0  0  0  0  0
   -3.2766   -9.9023    2.3675 H   0  0  0  0  0  0  0  0  0  0  0  0
   -2.5141  -13.2308   -1.6000 H   0  0  0  0  0  0  0  0  0  0  0  0
   -0.9215  -14.8770   -1.9686 H   0  0  0  0  0  0  0  0  0  0  0  0
   -0.3780  -17.0991   -2.8216 H   0  0  0  0  0  0  0  0  0  0  0  0
    0.6593  -18.8400   -2.2556 H   0  0  0  0  0  0  0  0  0  0  0  0
   -0.1421  -20.0931   -3.2259 H   0  0  0  0  0  0  0  0  0  0  0  0
    0.0282  -21.6518   -1.2474 H   0  0  0  0  0  0  0  0  0  0  0  0
    0.7312  -20.3630   -0.3062 H   0  0  0  0  0  0  0  0  0  0  0  0
    3.1649  -21.7915   -3.3895 H   0  0  0  0  0  0  0  0  0  0  0  0
    1.6382  -21.0914   -3.8509 H   0  0  0  0  0  0  0  0  0  0  0  0
    1.6517  -23.5646   -4.1639 H   0  0  0  0  0  0  0  0  0  0  0  0
    0.4359  -23.1503   -2.9541 H   0  0  0  0  0  0  0  0  0  0  0  0
    2.6934  -24.1818   -0.2640 H   0  0  0  0  0  0  0  0  0  0  0  0
    1.0694  -23.5559   -0.5504 H   0  0  0  0  0  0  0  0  0  0  0  0
    3.7483  -22.1249   -1.0495 H   0  0  0  0  0  0  0  0  0  0  0  0
    2.6121  -21.7115    0.2196 H   0  0  0  0  0  0  0  0  0  0  0  0
   -2.9533  -18.8972    0.1299 H   0  0  0  0  0  0  0  0  0  0  0  0
   -3.5540  -16.6602    0.9596 H   0  0  0  0  0  0  0  0  0  0  0  0
   -4.4899   -7.9005    1.9839 H   0  0  0  0  0  0  0  0  0  0  0  0
   -4.9404   -5.5167    1.7335 H   0  0  0  0  0  0  0  0  0  0  0  0
  1  2  1  0  0  0  0
  1 40  1  0  0  0  0
  1 41  1  0  0  0  0
  1 42  1  0  0  0  0
  2  3  2  0  0  0  0
  2 39  1  0  0  0  0
  3  4  1  0  0  0  0
  3 43  1  0  0  0  0
  4  5  1  0  0  0  0
  4 38  2  0  0  0  0
  5  6  1  0  0  0  0
  5 44  1  0  0  0  0
  6  7  2  0  0  0  0
  6  8  1  0  0  0  0
  8  9  1  0  0  0  0
  8 45  1  0  0  0  0
  9 10  1  0  0  0  0
  9 37  2  0  0  0  0
 10 11  2  0  0  0  0
 10 46  1  0  0  0  0
 11 12  1  0  0  0  0
 11 47  1  0  0  0  0
 12 13  1  0  0  0  0
 12 36  2  0  0  0  0
 13 14  2  0  0  0  0
 13 35  1  0  0  0  0
 14 15  1  0  0  0  0
 14 48  1  0  0  0  0
 15 16  2  0  0  0  0
 16 17  1  0  0  0  0
 16 35  1  0  0  0  0
 17 18  1  0  0  0  0
 17 49  1  0  0  0  0
 18 19  2  0  0  0  0
 18 20  1  0  0  0  0
 20 21  1  0  0  0  0
 20 34  2  0  0  0  0
 21 22  2  0  0  0  0
 21 50  1  0  0  0  0
 22 23  1  0  0  0  0
 22 51  1  0  0  0  0
 23 24  1  0  0  0  0
 23 33  2  0  0  0  0
 24 25  1  0  0  0  0
 25 26  1  0  0  0  0
 25 52  1  0  0  0  0
 25 53  1  0  0  0  0
 26 27  1  0  0  0  0
 26 54  1  0  0  0  0
 26 55  1  0  0  0  0
 27 28  1  0  0  0  0
 27 32  1  0  0  0  0
 28 29  1  0  0  0  0
 28 56  1  0  0  0  0
 28 57  1  0  0  0  0
 29 30  1  0  0  0  0
 29 58  1  0  0  0  0
 29 59  1  0  0  0  0
 30 31  1  0  0  0  0
 31 32  1  0  0  0  0
 31 60  1  0  0  0  0
 31 61  1  0  0  0  0
 32 62  1  0  0  0  0
 32 63  1  0  0  0  0
 33 34  1  0  0  0  0
 33 64  1  0  0  0  0
 34 65  1  0  0  0  0
 36 37  1  0  0  0  0
 36 66  1  0  0  0  0
 37 67  1  0  0  0  0
 38 39  1  0  0  0  0
M  END
$$$$
