CHEMBL3918800
 OpenBabel04072215373D

 73 77  0  0  1  0  0  0  0  0999 V2000
    8.0543    1.6072   -2.1600 C   0  0  0  0  0  0  0  0  0  0  0  0
    7.9860    0.5171   -1.2382 O   0  0  0  0  0  0  0  0  0  0  0  0
    8.9777    0.4283   -0.2706 C   0  0  0  0  0  0  0  0  0  0  0  0
   10.1531    1.1312   -0.2485 C   0  0  0  0  0  0  0  0  0  0  0  0
   11.0499    0.9431    0.8194 C   0  0  0  0  0  0  0  0  0  0  0  0
   12.2271    1.6233    0.9450 O   0  0  0  0  0  0  0  0  0  0  0  0
   12.3873    2.7490    0.0784 C   0  0  0  0  0  0  0  0  0  0  0  0
   10.7798   -0.0098    1.8305 C   0  0  0  0  0  0  0  0  0  0  0  0
    9.6074   -0.7674    1.8330 C   0  0  0  0  0  0  0  0  0  0  0  0
    9.3754   -1.7914    2.8859 N   0  0  0  0  0  0  0  0  0  0  0  0
    9.7117   -1.5408    4.2964 C   0  0  0  0  0  0  0  0  0  0  0  0
    8.6887   -0.9502    4.9879 C   0  0  0  0  0  0  0  0  0  0  0  0
    8.6049   -1.1434    6.3437 C   0  0  0  0  0  0  0  0  0  0  0  0
    9.5791   -1.7096    7.0968 C   0  0  0  0  0  0  0  0  0  0  0  0
    8.9890   -1.9655    8.2456 N   0  0  0  0  0  0  0  0  0  0  0  0
    9.6892   -2.4856    9.2297 C   0  0  0  0  0  0  0  0  0  0  0  0
   11.0569   -2.4828    9.2346 C   0  0  0  0  0  0  0  0  0  0  0  0
   11.4415   -2.1473   10.6888 C   0  0  0  0  0  0  0  0  0  0  0  0
   10.7889   -1.0044   11.3215 C   0  0  0  0  0  0  0  0  0  0  0  0
   10.4548   -1.1668   12.6022 N   0  0  0  0  0  0  0  0  0  0  0  0
   10.8863   -2.3962   12.9010 N   0  0  0  0  0  0  0  0  0  0  0  0
   10.5917   -2.8937   14.2220 C   0  0  0  0  0  0  0  0  0  0  0  0
   11.4237   -3.0461   11.7854 C   0  0  0  0  0  0  0  0  0  0  0  0
   11.6970   -2.2726    7.9822 N   0  0  0  0  0  0  0  0  0  0  0  0
   10.8785   -2.0068    6.7188 C   0  0  0  0  0  0  0  0  0  0  0  0
   10.8538   -1.9641    5.1320 C   0  0  0  0  0  0  0  0  0  0  0  0
    7.9106   -2.3625    2.6392 C   0  0  1  0  0  0  0  0  0  0  0  0
    7.9400   -3.3488    1.4391 C   0  0  0  0  0  0  0  0  0  0  0  0
    8.7808   -4.5515    1.8309 C   0  0  0  0  0  0  0  0  0  0  0  0
    8.1402   -5.3227    2.9957 C   0  0  2  0  0  0  0  0  0  0  0  0
    6.8637   -5.9521    2.6125 N   0  0  0  0  0  0  0  0  0  0  0  0
    6.9316   -6.8278    1.4388 C   0  0  0  0  0  0  0  0  0  0  0  0
    7.9143   -7.9808    1.6362 C   0  0  0  0  0  0  0  0  0  0  0  0
    5.5280   -7.3567    1.1506 C   0  0  0  0  0  0  0  0  0  0  0  0
    7.8635   -4.3917    4.1849 C   0  0  0  0  0  0  0  0  0  0  0  0
    7.1454   -3.1382    3.7376 C   0  0  0  0  0  0  0  0  0  0  0  0
    8.7116   -0.4884    0.7516 C   0  0  0  0  0  0  0  0  0  0  0  0
    7.1216    1.6244   -2.7444 H   0  0  0  0  0  0  0  0  0  0  0  0
    8.9022    1.4749   -2.8502 H   0  0  0  0  0  0  0  0  0  0  0  0
    8.1095    2.5576   -1.6388 H   0  0  0  0  0  0  0  0  0  0  0  0
   10.3860    1.8068   -1.0672 H   0  0  0  0  0  0  0  0  0  0  0  0
   13.2768    3.2986    0.3973 H   0  0  0  0  0  0  0  0  0  0  0  0
   11.5332    3.4330    0.1446 H   0  0  0  0  0  0  0  0  0  0  0  0
   12.5470    2.4203   -0.9540 H   0  0  0  0  0  0  0  0  0  0  0  0
   11.5123   -0.1465    2.6197 H   0  0  0  0  0  0  0  0  0  0  0  0
    7.8022   -0.5684    4.4934 H   0  0  0  0  0  0  0  0  0  0  0  0
    7.6337   -0.9859    6.8014 H   0  0  0  0  0  0  0  0  0  0  0  0
    9.0967   -2.6360   10.1241 H   0  0  0  0  0  0  0  0  0  0  0  0
   10.3443   -0.1569   10.8143 H   0  0  0  0  0  0  0  0  0  0  0  0
   10.0879   -2.1086   14.8151 H   0  0  0  0  0  0  0  0  0  0  0  0
   11.5304   -3.1379   14.7394 H   0  0  0  0  0  0  0  0  0  0  0  0
    9.9270   -3.7603   14.1949 H   0  0  0  0  0  0  0  0  0  0  0  0
   11.6413   -4.1023   11.8680 H   0  0  0  0  0  0  0  0  0  0  0  0
   11.7576   -2.3266    4.6112 H   0  0  0  0  0  0  0  0  0  0  0  0
    7.2378   -1.5194    2.4380 H   0  0  0  0  0  0  0  0  0  0  0  0
    8.3539   -2.9354    0.5171 H   0  0  0  0  0  0  0  0  0  0  0  0
    6.9118   -3.6440    1.1760 H   0  0  0  0  0  0  0  0  0  0  0  0
    9.7792   -4.2107    2.1263 H   0  0  0  0  0  0  0  0  0  0  0  0
    8.9485   -5.1787    0.9509 H   0  0  0  0  0  0  0  0  0  0  0  0
    8.8416   -6.0874    3.3461 H   0  0  0  0  0  0  0  0  0  0  0  0
    6.4976   -6.4736    3.4095 H   0  0  0  0  0  0  0  0  0  0  0  0
    7.2203   -6.2505    0.5545 H   0  0  0  0  0  0  0  0  0  0  0  0
    7.6122   -8.6207    2.4718 H   0  0  0  0  0  0  0  0  0  0  0  0
    8.9298   -7.6230    1.8362 H   0  0  0  0  0  0  0  0  0  0  0  0
    7.9721   -8.5936    0.7325 H   0  0  0  0  0  0  0  0  0  0  0  0
    5.1491   -7.9714    1.9732 H   0  0  0  0  0  0  0  0  0  0  0  0
    5.5326   -7.9667    0.2412 H   0  0  0  0  0  0  0  0  0  0  0  0
    4.8254   -6.5304    0.9892 H   0  0  0  0  0  0  0  0  0  0  0  0
    8.8059   -4.1291    4.6696 H   0  0  0  0  0  0  0  0  0  0  0  0
    7.2613   -4.9036    4.9469 H   0  0  0  0  0  0  0  0  0  0  0  0
    6.8660   -2.5184    4.6131 H   0  0  0  0  0  0  0  0  0  0  0  0
    6.1541   -3.4141    3.3389 H   0  0  0  0  0  0  0  0  0  0  0  0
    7.7448   -0.9734    0.6363 H   0  0  0  0  0  0  0  0  0  0  0  0
  1  2  1  0  0  0  0
  1 38  1  0  0  0  0
  1 39  1  0  0  0  0
  1 40  1  0  0  0  0
  2  3  1  0  0  0  0
  3  4  1  0  0  0  0
  3 37  2  0  0  0  0
  4  5  2  0  0  0  0
  4 41  1  0  0  0  0
  5  6  1  0  0  0  0
  5  8  1  0  0  0  0
  6  7  1  0  0  0  0
  7 42  1  0  0  0  0
  7 43  1  0  0  0  0
  7 44  1  0  0  0  0
  8  9  2  0  0  0  0
  8 45  1  0  0  0  0
  9 10  1  0  0  0  0
  9 37  1  0  0  0  0
 10 11  1  0  0  0  0
 11 12  1  0  0  0  0
 11 26  2  0  0  0  0
 12 13  2  0  0  0  0
 12 46  1  0  0  0  0
 13 14  1  0  0  0  0
 13 47  1  0  0  0  0
 14 15  1  0  0  0  0
 14 25  2  0  0  0  0
 15 16  2  0  0  0  0
 16 17  1  0  0  0  0
 16 48  1  0  0  0  0
 17 18  1  0  0  0  0
 17 24  2  0  0  0  0
 18 19  1  0  0  0  0
 18 23  2  0  0  0  0
 19 20  2  0  0  0  0
 19 49  1  0  0  0  0
 20 21  1  0  0  0  0
 21 22  1  0  0  0  0
 21 23  1  0  0  0  0
 22 50  1  0  0  0  0
 22 51  1  0  0  0  0
 22 52  1  0  0  0  0
 23 53  1  0  0  0  0
 24 25  1  0  0  0  0
 25 26  1  0  0  0  0
 26 54  1  0  0  0  0
 27 28  1  0  0  0  0
 27 36  1  0  0  0  0
 27 10  1  0  0  0  0
 27 55  1  6  0  0  0
 28 29  1  0  0  0  0
 28 56  1  0  0  0  0
 28 57  1  0  0  0  0
 29 30  1  0  0  0  0
 29 58  1  0  0  0  0
 29 59  1  0  0  0  0
 30 35  1  0  0  0  0
 30 31  1  0  0  0  0
 30 60  1  1  0  0  0
 31 32  1  0  0  0  0
 31 61  1  0  0  0  0
 32 33  1  0  0  0  0
 32 34  1  0  0  0  0
 32 62  1  0  0  0  0
 33 63  1  0  0  0  0
 33 64  1  0  0  0  0
 33 65  1  0  0  0  0
 34 66  1  0  0  0  0
 34 67  1  0  0  0  0
 34 68  1  0  0  0  0
 35 36  1  0  0  0  0
 35 69  1  0  0  0  0
 35 70  1  0  0  0  0
 36 71  1  0  0  0  0
 36 72  1  0  0  0  0
 37 73  1  0  0  0  0
M  END
$$$$
