CHEMBL243837
 OpenBabel04072215363D

 68 71  0  0  0  0  0  0  0  0999 V2000
    1.1837   -0.7449   -0.9055 C   0  0  0  0  0  0  0  0  0  0  0  0
    2.3638   -0.2119   -0.1251 C   0  0  0  0  0  0  0  0  0  0  0  0
    2.8933   -1.2725    0.6750 O   0  0  0  0  0  0  0  0  0  0  0  0
    4.2435   -1.2163    0.9108 C   0  0  0  0  0  0  0  0  0  0  0  0
    4.8741   -2.4720    1.0223 C   0  0  0  0  0  0  0  0  0  0  0  0
    6.2512   -2.6234    1.1998 C   0  0  0  0  0  0  0  0  0  0  0  0
    6.7702   -3.8481    1.3032 N   0  0  0  0  0  0  0  0  0  0  0  0
    8.0997   -3.9420    1.4411 C   0  0  0  0  0  0  0  0  0  0  0  0
    8.9593   -2.9230    1.5188 N   0  0  0  0  0  0  0  0  0  0  0  0
    8.4343   -1.6911    1.4632 C   0  0  0  0  0  0  0  0  0  0  0  0
    9.3683   -0.6705    1.7070 N   0  0  0  0  0  0  0  0  0  0  0  0
    9.1552    0.5726    2.2615 C   0  0  0  0  0  0  0  0  0  0  0  0
    8.2144    0.8287    3.1796 C   0  0  0  0  0  0  0  0  0  0  0  0
    7.6854    2.1831    3.3993 C   0  0  0  0  0  0  0  0  0  0  0  0
    6.6302    2.3039    4.0238 O   0  0  0  0  0  0  0  0  0  0  0  0
    8.3958    3.3322    2.7604 C   0  0  0  0  0  0  0  0  0  0  0  0
    7.9705    4.6508    2.8706 O   0  0  0  0  0  0  0  0  0  0  0  0
    7.2847    5.0128    4.0699 C   0  0  0  0  0  0  0  0  0  0  0  0
    7.5475    6.4705    4.3625 C   0  0  0  0  0  0  0  0  0  0  0  0
    8.6542    6.8330    5.1455 C   0  0  0  0  0  0  0  0  0  0  0  0
    8.9001    8.1708    5.4542 C   0  0  0  0  0  0  0  0  0  0  0  0
    8.0458    9.1634    4.9763 C   0  0  0  0  0  0  0  0  0  0  0  0
    6.9509    8.8137    4.1883 C   0  0  0  0  0  0  0  0  0  0  0  0
    5.8886   10.0372    3.6070 Cl  0  0  0  0  0  0  0  0  0  0  0  0
    6.7007    7.4767    3.8759 C   0  0  0  0  0  0  0  0  0  0  0  0
    9.4563    3.0771    1.9841 C   0  0  0  0  0  0  0  0  0  0  0  0
    9.9398    1.7145    1.7002 C   0  0  0  0  0  0  0  0  0  0  0  0
   10.9255    1.5333    0.9817 O   0  0  0  0  0  0  0  0  0  0  0  0
    7.0439   -1.4795    1.2425 C   0  0  0  0  0  0  0  0  0  0  0  0
    6.3941   -0.2377    1.0415 C   0  0  0  0  0  0  0  0  0  0  0  0
    5.0139   -0.0595    0.9896 C   0  0  0  0  0  0  0  0  0  0  0  0
    4.5054    1.2717    1.0335 N   0  0  0  0  0  0  0  0  0  0  0  0
    5.2310    2.4042    0.7742 C   0  0  0  0  0  0  0  0  0  0  0  0
    6.4116    2.4416    0.3733 O   0  0  0  0  0  0  0  0  0  0  0  0
    4.4859    3.6689    0.9013 C   0  0  0  0  0  0  0  0  0  0  0  0
    5.1254    4.7960    0.5326 C   0  0  0  0  0  0  0  0  0  0  0  0
    4.5046    6.1542    0.4076 C   0  0  0  0  0  0  0  0  0  0  0  0
    4.6236    6.7342   -0.9410 N   0  0  0  0  0  0  0  0  0  0  0  0
    3.9809    5.9200   -1.9784 C   0  0  0  0  0  0  0  0  0  0  0  0
    4.0170    8.0714   -0.9528 C   0  0  0  0  0  0  0  0  0  0  0  0
    0.5939    0.0777   -1.3197 H   0  0  0  0  0  0  0  0  0  0  0  0
    0.5410   -1.3641   -0.2730 H   0  0  0  0  0  0  0  0  0  0  0  0
    1.5358   -1.3753   -1.7227 H   0  0  0  0  0  0  0  0  0  0  0  0
    2.0115    0.6034    0.5059 H   0  0  0  0  0  0  0  0  0  0  0  0
    3.1212    0.1804   -0.8172 H   0  0  0  0  0  0  0  0  0  0  0  0
    4.2699   -3.3799    0.9612 H   0  0  0  0  0  0  0  0  0  0  0  0
    8.5189   -4.9391    1.5000 H   0  0  0  0  0  0  0  0  0  0  0  0
   10.2630   -0.8330    1.2510 H   0  0  0  0  0  0  0  0  0  0  0  0
    7.6180    0.0265    3.6041 H   0  0  0  0  0  0  0  0  0  0  0  0
    7.6462    4.4326    4.9271 H   0  0  0  0  0  0  0  0  0  0  0  0
    6.2063    4.8550    3.9522 H   0  0  0  0  0  0  0  0  0  0  0  0
    9.3238    6.0660    5.5300 H   0  0  0  0  0  0  0  0  0  0  0  0
    9.7550    8.4361    6.0708 H   0  0  0  0  0  0  0  0  0  0  0  0
    8.2390   10.2039    5.2220 H   0  0  0  0  0  0  0  0  0  0  0  0
    5.8400    7.2210    3.2655 H   0  0  0  0  0  0  0  0  0  0  0  0
    9.9838    3.8774    1.4776 H   0  0  0  0  0  0  0  0  0  0  0  0
    7.0107    0.6299    0.9259 H   0  0  0  0  0  0  0  0  0  0  0  0
    3.5097    1.3977    1.1757 H   0  0  0  0  0  0  0  0  0  0  0  0
    3.4543    3.6481    1.2193 H   0  0  0  0  0  0  0  0  0  0  0  0
    6.1781    4.7365    0.2589 H   0  0  0  0  0  0  0  0  0  0  0  0
    5.0174    6.8185    1.1126 H   0  0  0  0  0  0  0  0  0  0  0  0
    3.4513    6.1019    0.7093 H   0  0  0  0  0  0  0  0  0  0  0  0
    4.4831    4.9553   -2.1069 H   0  0  0  0  0  0  0  0  0  0  0  0
    4.0504    6.4186   -2.9531 H   0  0  0  0  0  0  0  0  0  0  0  0
    2.9223    5.7396   -1.7628 H   0  0  0  0  0  0  0  0  0  0  0  0
    4.5098    8.7339   -0.2327 H   0  0  0  0  0  0  0  0  0  0  0  0
    2.9474    8.0341   -0.7133 H   0  0  0  0  0  0  0  0  0  0  0  0
    4.1269    8.5415   -1.9375 H   0  0  0  0  0  0  0  0  0  0  0  0
  1  2  1  0  0  0  0
  1 41  1  0  0  0  0
  1 42  1  0  0  0  0
  1 43  1  0  0  0  0
  2  3  1  0  0  0  0
  2 44  1  0  0  0  0
  2 45  1  0  0  0  0
  3  4  1  0  0  0  0
  4  5  1  0  0  0  0
  4 31  2  0  0  0  0
  5  6  2  0  0  0  0
  5 46  1  0  0  0  0
  6  7  1  0  0  0  0
  6 29  1  0  0  0  0
  7  8  2  0  0  0  0
  8  9  1  0  0  0  0
  8 47  1  0  0  0  0
  9 10  2  0  0  0  0
 10 11  1  0  0  0  0
 10 29  1  0  0  0  0
 11 12  1  0  0  0  0
 11 48  1  0  0  0  0
 12 13  2  0  0  0  0
 12 27  1  0  0  0  0
 13 14  1  0  0  0  0
 13 49  1  0  0  0  0
 14 15  2  0  0  0  0
 14 16  1  0  0  0  0
 16 17  1  0  0  0  0
 16 26  2  0  0  0  0
 17 18  1  0  0  0  0
 18 19  1  0  0  0  0
 18 50  1  0  0  0  0
 18 51  1  0  0  0  0
 19 20  1  0  0  0  0
 19 25  2  0  0  0  0
 20 21  2  0  0  0  0
 20 52  1  0  0  0  0
 21 22  1  0  0  0  0
 21 53  1  0  0  0  0
 22 23  2  0  0  0  0
 22 54  1  0  0  0  0
 23 24  1  0  0  0  0
 23 25  1  0  0  0  0
 25 55  1  0  0  0  0
 26 27  1  0  0  0  0
 26 56  1  0  0  0  0
 27 28  2  0  0  0  0
 29 30  2  0  0  0  0
 30 31  1  0  0  0  0
 30 57  1  0  0  0  0
 31 32  1  0  0  0  0
 32 33  1  0  0  0  0
 32 58  1  0  0  0  0
 33 34  2  0  0  0  0
 33 35  1  0  0  0  0
 35 36  2  0  0  0  0
 35 59  1  0  0  0  0
 36 37  1  0  0  0  0
 36 60  1  0  0  0  0
 37 38  1  0  0  0  0
 37 61  1  0  0  0  0
 37 62  1  0  0  0  0
 38 39  1  0  0  0  0
 38 40  1  0  0  0  0
 39 63  1  0  0  0  0
 39 64  1  0  0  0  0
 39 65  1  0  0  0  0
 40 66  1  0  0  0  0
 40 67  1  0  0  0  0
 40 68  1  0  0  0  0
M  END
$$$$
