CHEMBL199460
 OpenBabel04072215363D

112117  0  0  1  0  0  0  0  0999 V2000
   -2.0417   -5.1379    4.1686 C   0  0  0  0  0  0  0  0  0  0  0  0
   -1.7104   -6.4663    3.7497 O   0  0  0  0  0  0  0  0  0  0  0  0
   -0.7536   -7.1190    4.4796 C   0  0  0  0  0  0  0  0  0  0  0  0
   -0.7333   -6.9528    5.8695 C   0  0  0  0  0  0  0  0  0  0  0  0
    0.2825   -7.5268    6.6594 C   0  0  0  0  0  0  0  0  0  0  0  0
    0.3967   -7.3343    8.0454 C   0  0  0  0  0  0  0  0  0  0  0  0
   -0.6018   -6.6180    8.7382 N   0  0  0  0  0  0  0  0  0  0  0  0
   -0.4697   -5.8025    9.8787 C   0  0  0  0  0  0  0  0  0  0  0  0
    0.7173   -5.1113   10.1442 C   0  0  0  0  0  0  0  0  0  0  0  0
    0.7570   -4.1118   11.1187 C   0  0  0  0  0  0  0  0  0  0  0  0
   -0.3829   -3.8260   11.8669 C   0  0  0  0  0  0  0  0  0  0  0  0
   -0.3723   -2.4934   12.9540 Cl  0  0  0  0  0  0  0  0  0  0  0  0
   -1.5406   -4.5783   11.7024 C   0  0  0  0  0  0  0  0  0  0  0  0
   -1.5727   -5.5572   10.7124 C   0  0  0  0  0  0  0  0  0  0  0  0
   -2.7067   -6.2527   10.5291 F   0  0  0  0  0  0  0  0  0  0  0  0
    1.4625   -7.7820    8.7292 N   0  0  0  0  0  0  0  0  0  0  0  0
    2.3740   -8.4667    8.0327 C   0  0  0  0  0  0  0  0  0  0  0  0
    2.3277   -8.7602    6.7284 N   0  0  0  0  0  0  0  0  0  0  0  0
    1.2850   -8.2776    6.0422 C   0  0  0  0  0  0  0  0  0  0  0  0
    1.2017   -8.5224    4.6766 C   0  0  0  0  0  0  0  0  0  0  0  0
    0.1895   -7.9783    3.8740 C   0  0  0  0  0  0  0  0  0  0  0  0
    0.2866   -8.3653    2.5457 O   0  0  0  0  0  0  0  0  0  0  0  0
   -0.6620   -7.7349    1.7049 C   0  0  0  0  0  0  0  0  0  0  0  0
   -0.5325   -7.9509    0.1955 C   0  0  0  0  0  0  0  0  0  0  0  0
   -1.5914   -7.2423   -0.4886 O   0  0  0  0  0  0  0  0  0  0  0  0
   -1.5559   -5.8203   -0.2591 C   0  0  0  0  0  0  0  0  0  0  0  0
   -2.7591   -5.1169   -0.8790 C   0  0  0  0  0  0  0  0  0  0  0  0
   -4.0045   -5.5907   -0.2730 N   0  0  0  0  0  0  0  0  0  0  0  0
   -5.1033   -4.7913   -0.1319 C   0  0  0  0  0  0  0  0  0  0  0  0
   -5.1407   -3.6359   -0.5476 O   0  0  0  0  0  0  0  0  0  0  0  0
   -6.3373   -5.4997    0.4848 C   0  0  3  0  0  0  0  0  0  0  0  0
   -7.2011   -4.4694    1.2217 C   0  0  0  0  0  0  0  0  0  0  0  0
   -8.4468   -5.0554    1.8998 C   0  0  0  0  0  0  0  0  0  0  0  0
   -9.2937   -3.9885    2.5915 C   0  0  0  0  0  0  0  0  0  0  0  0
   -9.7807   -2.9483    1.5852 C   0  0  0  0  0  0  0  0  0  0  0  0
  -10.5429   -1.9074    2.2092 N   0  0  0  0  0  0  0  0  0  0  0  0
   -9.9125   -0.8071    2.7449 C   0  0  0  0  0  0  0  0  0  0  0  0
   -8.6978   -0.6382    2.7404 O   0  0  0  0  0  0  0  0  0  0  0  0
  -10.8625    0.1978    3.3300 C   0  0  0  0  0  0  0  0  0  0  0  0
  -11.6543   -0.4143    4.4810 C   0  0  0  0  0  0  0  0  0  0  0  0
  -12.5993    0.6237    5.0637 C   0  0  0  0  0  0  0  0  0  0  0  0
  -13.3962    0.0673    6.2461 C   0  0  0  0  0  0  0  0  0  0  0  0
  -14.3708    1.1031    6.8281 C   0  0  3  0  0  0  0  0  0  0  0  0
  -13.4941    2.5488    7.5064 S   0  0  0  0  0  0  0  0  0  0  0  0
  -13.2288    1.7897    9.1266 C   0  0  0  0  0  0  0  0  0  0  0  0
  -14.3149    0.7237    9.3228 C   0  0  3  0  0  0  0  0  0  0  0  0
  -15.3069    1.1505   10.2895 N   0  0  0  0  0  0  0  0  0  0  0  0
  -16.4329    1.6419    9.6631 C   0  0  0  0  0  0  0  0  0  0  0  0
  -17.3371    2.2550   10.1987 O   0  0  0  0  0  0  0  0  0  0  0  0
  -16.3487    1.3184    8.3270 N   0  0  0  0  0  0  0  0  0  0  0  0
  -15.1448    0.5639    8.0311 C   0  0  3  0  0  0  0  0  0  0  0  0
   -7.0693   -6.1132   -0.6235 N   0  0  0  0  0  0  0  0  0  0  0  0
   -7.8404   -7.2445   -0.4619 C   0  0  0  0  0  0  0  0  0  0  0  0
   -7.8960   -7.8401    0.6067 O   0  0  0  0  0  0  0  0  0  0  0  0
   -8.6177   -7.7252   -1.6356 C   0  0  0  0  0  0  0  0  0  0  0  0
   -8.5991   -7.0628   -2.8595 C   0  0  0  0  0  0  0  0  0  0  0  0
   -7.9072   -5.9221   -3.0161 F   0  0  0  0  0  0  0  0  0  0  0  0
   -9.2982   -7.5595   -3.9584 C   0  0  0  0  0  0  0  0  0  0  0  0
   -9.2307   -6.8865   -5.1177 F   0  0  0  0  0  0  0  0  0  0  0  0
  -10.0552   -8.7335   -3.8842 C   0  0  0  0  0  0  0  0  0  0  0  0
  -10.7759   -9.1430   -5.0275 N   0  0  0  0  0  0  0  0  0  0  0  0
  -10.8802  -10.3768   -5.1954 N   0  3  0  0  0  0  0  0  0  0  0  0
  -10.9813  -11.4957   -5.3755 N   0  5  0  0  0  0  0  0  0  0  0  0
  -10.0927   -9.3796   -2.6426 C   0  0  0  0  0  0  0  0  0  0  0  0
  -10.8251  -10.4949   -2.4935 F   0  0  0  0  0  0  0  0  0  0  0  0
   -9.3857   -8.8911   -1.5396 C   0  0  0  0  0  0  0  0  0  0  0  0
   -9.4647   -9.5826   -0.3942 F   0  0  0  0  0  0  0  0  0  0  0  0
   -2.0570   -4.4913    3.2858 H   0  0  0  0  0  0  0  0  0  0  0  0
   -1.3277   -4.6963    4.8725 H   0  0  0  0  0  0  0  0  0  0  0  0
   -3.0431   -5.1484    4.6084 H   0  0  0  0  0  0  0  0  0  0  0  0
   -1.4868   -6.3366    6.3453 H   0  0  0  0  0  0  0  0  0  0  0  0
   -1.5362   -6.9936    8.6034 H   0  0  0  0  0  0  0  0  0  0  0  0
    1.6061   -5.2963    9.5463 H   0  0  0  0  0  0  0  0  0  0  0  0
    1.6686   -3.5352   11.2516 H   0  0  0  0  0  0  0  0  0  0  0  0
   -2.4263   -4.3849   12.2979 H   0  0  0  0  0  0  0  0  0  0  0  0
    3.2444   -8.8139    8.5805 H   0  0  0  0  0  0  0  0  0  0  0  0
    1.9722   -9.1358    4.2089 H   0  0  0  0  0  0  0  0  0  0  0  0
   -0.5080   -6.6693    1.8559 H   0  0  0  0  0  0  0  0  0  0  0  0
   -1.6724   -8.0499    1.9843 H   0  0  0  0  0  0  0  0  0  0  0  0
   -0.6275   -9.0137   -0.0498 H   0  0  0  0  0  0  0  0  0  0  0  0
    0.4397   -7.6226   -0.1892 H   0  0  0  0  0  0  0  0  0  0  0  0
   -0.6187   -5.4193   -0.6551 H   0  0  0  0  0  0  0  0  0  0  0  0
   -1.6193   -5.5972    0.8060 H   0  0  0  0  0  0  0  0  0  0  0  0
   -2.8183   -5.2959   -1.9552 H   0  0  0  0  0  0  0  0  0  0  0  0
   -2.6664   -4.0377   -0.7018 H   0  0  0  0  0  0  0  0  0  0  0  0
   -4.1046   -6.5944   -0.1637 H   0  0  0  0  0  0  0  0  0  0  0  0
   -5.9984   -6.2728    1.1825 H   0  0  0  0  0  0  0  0  0  0  0  0
   -7.4966   -3.7079    0.4946 H   0  0  0  0  0  0  0  0  0  0  0  0
   -6.5943   -3.9561    1.9797 H   0  0  0  0  0  0  0  0  0  0  0  0
   -8.1493   -5.8143    2.6328 H   0  0  0  0  0  0  0  0  0  0  0  0
   -9.0868   -5.5480    1.1610 H   0  0  0  0  0  0  0  0  0  0  0  0
   -8.7202   -3.5180    3.3991 H   0  0  0  0  0  0  0  0  0  0  0  0
  -10.1585   -4.4685    3.0682 H   0  0  0  0  0  0  0  0  0  0  0  0
  -10.4123   -3.4136    0.8227 H   0  0  0  0  0  0  0  0  0  0  0  0
   -8.9438   -2.4624    1.0799 H   0  0  0  0  0  0  0  0  0  0  0  0
  -11.5507   -1.9807    2.2245 H   0  0  0  0  0  0  0  0  0  0  0  0
  -11.5266    0.5528    2.5333 H   0  0  0  0  0  0  0  0  0  0  0  0
  -10.2783    1.0571    3.6793 H   0  0  0  0  0  0  0  0  0  0  0  0
  -10.9617   -0.7795    5.2498 H   0  0  0  0  0  0  0  0  0  0  0  0
  -12.2315   -1.2831    4.1437 H   0  0  0  0  0  0  0  0  0  0  0  0
  -13.2900    0.9656    4.2831 H   0  0  0  0  0  0  0  0  0  0  0  0
  -12.0040    1.4890    5.3722 H   0  0  0  0  0  0  0  0  0  0  0  0
  -12.7077   -0.3048    7.0152 H   0  0  0  0  0  0  0  0  0  0  0  0
  -13.9704   -0.8044    5.9033 H   0  0  0  0  0  0  0  0  0  0  0  0
  -15.0563    1.4359    6.0405 H   0  0  0  0  0  0  0  0  0  0  0  0
  -13.2426    2.5596    9.9037 H   0  0  0  0  0  0  0  0  0  0  0  0
  -12.2385    1.3235    9.1280 H   0  0  0  0  0  0  0  0  0  0  0  0
  -13.8782   -0.2200    9.6659 H   0  0  0  0  0  0  0  0  0  0  0  0
  -15.1256    1.4056   11.2512 H   0  0  0  0  0  0  0  0  0  0  0  0
  -17.1012    1.5468    7.6910 H   0  0  0  0  0  0  0  0  0  0  0  0
  -15.4668   -0.4737    7.8833 H   0  0  0  0  0  0  0  0  0  0  0  0
   -7.1003   -5.5840   -1.4915 H   0  0  0  0  0  0  0  0  0  0  0  0
  1  2  1  0  0  0  0
  1 68  1  0  0  0  0
  1 69  1  0  0  0  0
  1 70  1  0  0  0  0
  2  3  1  0  0  0  0
  3  4  1  0  0  0  0
  3 21  2  0  0  0  0
  4  5  2  0  0  0  0
  4 71  1  0  0  0  0
  5  6  1  0  0  0  0
  5 19  1  0  0  0  0
  6  7  1  0  0  0  0
  6 16  2  0  0  0  0
  7  8  1  0  0  0  0
  7 72  1  0  0  0  0
  8  9  1  0  0  0  0
  8 14  2  0  0  0  0
  9 10  2  0  0  0  0
  9 73  1  0  0  0  0
 10 11  1  0  0  0  0
 10 74  1  0  0  0  0
 11 12  1  0  0  0  0
 11 13  2  0  0  0  0
 13 14  1  0  0  0  0
 13 75  1  0  0  0  0
 14 15  1  0  0  0  0
 16 17  1  0  0  0  0
 17 18  2  0  0  0  0
 17 76  1  0  0  0  0
 18 19  1  0  0  0  0
 19 20  2  0  0  0  0
 20 21  1  0  0  0  0
 20 77  1  0  0  0  0
 21 22  1  0  0  0  0
 22 23  1  0  0  0  0
 23 24  1  0  0  0  0
 23 78  1  0  0  0  0
 23 79  1  0  0  0  0
 24 25  1  0  0  0  0
 24 80  1  0  0  0  0
 24 81  1  0  0  0  0
 25 26  1  0  0  0  0
 26 27  1  0  0  0  0
 26 82  1  0  0  0  0
 26 83  1  0  0  0  0
 27 28  1  0  0  0  0
 27 84  1  0  0  0  0
 27 85  1  0  0  0  0
 28 29  1  0  0  0  0
 28 86  1  0  0  0  0
 29 30  2  0  0  0  0
 29 31  1  0  0  0  0
 31 32  1  0  0  0  0
 31 52  1  0  0  0  0
 31 87  1  0  0  0  0
 32 33  1  0  0  0  0
 32 88  1  0  0  0  0
 32 89  1  0  0  0  0
 33 34  1  0  0  0  0
 33 90  1  0  0  0  0
 33 91  1  0  0  0  0
 34 35  1  0  0  0  0
 34 92  1  0  0  0  0
 34 93  1  0  0  0  0
 35 36  1  0  0  0  0
 35 94  1  0  0  0  0
 35 95  1  0  0  0  0
 36 37  1  0  0  0  0
 36 96  1  0  0  0  0
 37 38  2  0  0  0  0
 37 39  1  0  0  0  0
 39 40  1  0  0  0  0
 39 97  1  0  0  0  0
 39 98  1  0  0  0  0
 40 41  1  0  0  0  0
 40 99  1  0  0  0  0
 40100  1  0  0  0  0
 41 42  1  0  0  0  0
 41101  1  0  0  0  0
 41102  1  0  0  0  0
 42 43  1  0  0  0  0
 42103  1  0  0  0  0
 42104  1  0  0  0  0
 43 44  1  0  0  0  0
 43 51  1  0  0  0  0
 43105  1  0  0  0  0
 44 45  1  0  0  0  0
 45 46  1  0  0  0  0
 45106  1  0  0  0  0
 45107  1  0  0  0  0
 46 47  1  0  0  0  0
 46 51  1  0  0  0  0
 46108  1  0  0  0  0
 47 48  1  0  0  0  0
 47109  1  0  0  0  0
 48 49  2  0  0  0  0
 48 50  1  0  0  0  0
 50 51  1  0  0  0  0
 50110  1  0  0  0  0
 51111  1  0  0  0  0
 52 53  1  0  0  0  0
 52112  1  0  0  0  0
 53 54  2  0  0  0  0
 53 55  1  0  0  0  0
 55 56  1  0  0  0  0
 55 66  2  0  0  0  0
 56 57  1  0  0  0  0
 56 58  2  0  0  0  0
 58 59  1  0  0  0  0
 58 60  1  0  0  0  0
 60 61  1  0  0  0  0
 60 64  2  0  0  0  0
 61 62  2  0  0  0  0
 62 63  2  0  0  0  0
 64 65  1  0  0  0  0
 64 66  1  0  0  0  0
 66 67  1  0  0  0  0
M  CHG  2  62   1  63  -1
M  END
$$$$
