CHEMBL3690522
 OpenBabel04072215373D

 47 50  0  0  0  0  0  0  0  0999 V2000
    1.1181    0.4521   -0.0361 N   0  0  0  0  0  0  0  0  0  0  0  0
    2.5066    0.2647   -0.0386 C   0  0  0  0  0  0  0  0  0  0  0  0
    3.2193    0.0830   -1.2058 C   0  0  0  0  0  0  0  0  0  0  0  0
    4.5682    0.0366   -1.2877 N   0  0  0  0  0  0  0  0  0  0  0  0
    5.2507    0.2145   -0.1405 C   0  0  0  0  0  0  0  0  0  0  0  0
    6.7336    0.1473   -0.2099 C   0  0  0  0  0  0  0  0  0  0  0  0
    7.4949    0.2292   -1.4801 C   0  0  0  0  0  0  0  0  0  0  0  0
    8.8236    0.4771   -1.4513 C   0  0  0  0  0  0  0  0  0  0  0  0
    9.4743    0.4319   -0.2085 N   0  0  0  0  0  0  0  0  0  0  0  0
   10.8315    0.4035    0.1651 C   0  0  0  0  0  0  0  0  0  0  0  0
   11.4609    1.4407    1.0479 C   0  0  0  0  0  0  0  0  0  0  0  0
   10.8747    2.6979    1.2472 C   0  0  0  0  0  0  0  0  0  0  0  0
   11.3091    3.5293    2.2845 C   0  0  0  0  0  0  0  0  0  0  0  0
   12.3540    3.1380    3.1259 C   0  0  0  0  0  0  0  0  0  0  0  0
   13.0061    1.9287    2.9193 C   0  0  0  0  0  0  0  0  0  0  0  0
   14.0645    1.4656    3.7542 N   0  0  0  0  0  0  0  0  0  0  0  0
   14.6033    2.1195    4.8435 C   0  0  0  0  0  0  0  0  0  0  0  0
   14.2560    3.1933    5.3096 O   0  0  0  0  0  0  0  0  0  0  0  0
   15.6868    1.4444    5.3753 N   0  0  0  0  0  0  0  0  0  0  0  0
   16.3833    2.0293    6.5322 C   0  0  0  0  0  0  0  0  0  0  0  0
   15.7338    1.7789    7.9035 C   0  0  0  0  0  0  0  0  0  0  0  0
   14.7360    0.8763    7.8368 F   0  0  0  0  0  0  0  0  0  0  0  0
   16.6659    1.2666    8.7580 F   0  0  0  0  0  0  0  0  0  0  0  0
   15.2624    2.9059    8.4693 F   0  0  0  0  0  0  0  0  0  0  0  0
   12.5684    1.0973    1.8752 C   0  0  0  0  0  0  0  0  0  0  0  0
   10.8119   -0.9381    0.5741 C   0  0  0  0  0  0  0  0  0  0  0  0
    9.6301   -1.1698    1.2589 N   0  0  0  0  0  0  0  0  0  0  0  0
    8.8338   -0.1954    0.8546 C   0  0  0  0  0  0  0  0  0  0  0  0
    7.4314   -0.0149    0.9442 C   0  0  0  0  0  0  0  0  0  0  0  0
    4.6790    0.4496    1.0492 N   0  0  0  0  0  0  0  0  0  0  0  0
    3.3340    0.4925    1.0525 C   0  0  0  0  0  0  0  0  0  0  0  0
    2.6740    0.8327    2.6103 Cl  0  0  0  0  0  0  0  0  0  0  0  0
    0.6113   -0.0586   -0.7532 H   0  0  0  0  0  0  0  0  0  0  0  0
    0.6969    0.3502    0.8868 H   0  0  0  0  0  0  0  0  0  0  0  0
    2.7085   -0.0306   -2.1582 H   0  0  0  0  0  0  0  0  0  0  0  0
    6.9559    0.0702   -2.4116 H   0  0  0  0  0  0  0  0  0  0  0  0
    9.4373    0.5522   -2.3397 H   0  0  0  0  0  0  0  0  0  0  0  0
   10.0201    3.0189    0.6559 H   0  0  0  0  0  0  0  0  0  0  0  0
   10.8043    4.4733    2.4783 H   0  0  0  0  0  0  0  0  0  0  0  0
   12.6170    3.8033    3.9415 H   0  0  0  0  0  0  0  0  0  0  0  0
   14.4864    0.5854    3.4994 H   0  0  0  0  0  0  0  0  0  0  0  0
   15.6623    0.4360    5.3233 H   0  0  0  0  0  0  0  0  0  0  0  0
   16.4803    3.1125    6.3774 H   0  0  0  0  0  0  0  0  0  0  0  0
   17.3947    1.6140    6.5209 H   0  0  0  0  0  0  0  0  0  0  0  0
   13.0363    0.1277    1.7436 H   0  0  0  0  0  0  0  0  0  0  0  0
   11.6571   -1.5989    0.7066 H   0  0  0  0  0  0  0  0  0  0  0  0
    6.9730   -0.0568    1.9247 H   0  0  0  0  0  0  0  0  0  0  0  0
  1  2  1  0  0  0  0
  1 33  1  0  0  0  0
  1 34  1  0  0  0  0
  2  3  1  0  0  0  0
  2 31  2  0  0  0  0
  3  4  2  0  0  0  0
  3 35  1  0  0  0  0
  4  5  1  0  0  0  0
  5  6  1  0  0  0  0
  5 30  2  0  0  0  0
  6  7  1  0  0  0  0
  6 29  2  0  0  0  0
  7  8  2  0  0  0  0
  7 36  1  0  0  0  0
  8  9  1  0  0  0  0
  8 37  1  0  0  0  0
  9 10  1  0  0  0  0
  9 28  1  0  0  0  0
 10 11  1  0  0  0  0
 10 26  2  0  0  0  0
 11 12  1  0  0  0  0
 11 25  2  0  0  0  0
 12 13  2  0  0  0  0
 12 38  1  0  0  0  0
 13 14  1  0  0  0  0
 13 39  1  0  0  0  0
 14 15  2  0  0  0  0
 14 40  1  0  0  0  0
 15 16  1  0  0  0  0
 15 25  1  0  0  0  0
 16 17  1  0  0  0  0
 16 41  1  0  0  0  0
 17 18  2  0  0  0  0
 17 19  1  0  0  0  0
 19 20  1  0  0  0  0
 19 42  1  0  0  0  0
 20 21  1  0  0  0  0
 20 43  1  0  0  0  0
 20 44  1  0  0  0  0
 21 22  1  0  0  0  0
 21 23  1  0  0  0  0
 21 24  1  0  0  0  0
 25 45  1  0  0  0  0
 26 27  1  0  0  0  0
 26 46  1  0  0  0  0
 27 28  2  0  0  0  0
 28 29  1  0  0  0  0
 29 47  1  0  0  0  0
 30 31  1  0  0  0  0
 31 32  1  0  0  0  0
M  END
$$$$
