CHEMBL525744
 OpenBabel04072215383D

 54 58  0  0  0  0  0  0  0  0999 V2000
    1.0886   -0.0190   -0.0019 C   0  0  0  0  0  0  0  0  0  0  0  0
    2.5986   -0.0821   -0.0273 C   0  0  0  0  0  0  0  0  0  0  0  0
    3.3465    1.1486   -0.0788 C   0  0  0  0  0  0  0  0  0  0  0  0
    4.6226    1.1452    0.3461 C   0  0  0  0  0  0  0  0  0  0  0  0
    5.3802   -0.0238    0.2712 N   0  0  0  0  0  0  0  0  0  0  0  0
    6.8071   -0.0223    0.2151 C   0  0  0  0  0  0  0  0  0  0  0  0
    7.5110    0.7387   -0.7333 C   0  0  0  0  0  0  0  0  0  0  0  0
    8.8870    0.5311   -0.9527 C   0  0  0  0  0  0  0  0  0  0  0  0
    9.6280   -0.3257   -0.1436 C   0  0  0  0  0  0  0  0  0  0  0  0
   10.9509   -0.5925   -0.4109 N   0  0  0  0  0  0  0  0  0  0  0  0
   11.8246    0.3875   -1.0662 C   0  0  0  0  0  0  0  0  0  0  0  0
   12.4029   -0.2317   -2.3437 C   0  0  0  0  0  0  0  0  0  0  0  0
   13.0942   -1.4648   -2.0680 O   0  0  0  0  0  0  0  0  0  0  0  0
   12.1840   -2.4066   -1.4651 C   0  0  0  0  0  0  0  0  0  0  0  0
   11.6146   -1.8713   -0.1359 C   0  0  0  0  0  0  0  0  0  0  0  0
    8.9334   -0.9256    0.9197 C   0  0  0  0  0  0  0  0  0  0  0  0
    7.5330   -0.8497    1.0517 C   0  0  0  0  0  0  0  0  0  0  0  0
    4.7604   -1.2571    0.0877 C   0  0  0  0  0  0  0  0  0  0  0  0
    5.3289   -2.3382   -0.0643 O   0  0  0  0  0  0  0  0  0  0  0  0
    3.2843   -1.2245    0.1862 C   0  0  0  0  0  0  0  0  0  0  0  0
    2.5716   -2.4594    0.3913 C   0  0  0  0  0  0  0  0  0  0  0  0
    2.3413   -3.1185   -0.7963 C   0  0  0  0  0  0  0  0  0  0  0  0
    1.8482   -4.3291   -0.7500 C   0  0  0  0  0  0  0  0  0  0  0  0
    1.2294   -4.6342    0.3836 C   0  0  0  0  0  0  0  0  0  0  0  0
    0.4343   -5.6409    0.2752 N   0  0  0  0  0  0  0  0  0  0  0  0
   -0.3205   -6.6022    0.1078 C   0  0  0  0  0  0  0  0  0  0  0  0
   -0.1645   -6.4904   -1.2857 N   0  0  0  0  0  0  0  0  0  0  0  0
   -0.3669   -6.3603    1.4551 N   0  0  0  0  0  0  0  0  0  0  0  0
    0.4002   -5.1569    2.2851 C   0  0  0  0  0  0  0  0  0  0  0  0
    1.2754   -4.1944    1.6107 C   0  0  0  0  0  0  0  0  0  0  0  0
    2.2044   -3.0359    1.6432 C   0  0  0  0  0  0  0  0  0  0  0  0
    0.7000    0.9948   -0.1014 H   0  0  0  0  0  0  0  0  0  0  0  0
    0.7020   -0.4413    0.9356 H   0  0  0  0  0  0  0  0  0  0  0  0
    0.6577   -0.5919   -0.8304 H   0  0  0  0  0  0  0  0  0  0  0  0
    2.8420    2.0551   -0.4018 H   0  0  0  0  0  0  0  0  0  0  0  0
    5.1408    2.0547    0.6125 H   0  0  0  0  0  0  0  0  0  0  0  0
    7.0025    1.5015   -1.3190 H   0  0  0  0  0  0  0  0  0  0  0  0
    9.3724    1.0112   -1.7983 H   0  0  0  0  0  0  0  0  0  0  0  0
   12.6539    0.6169   -0.3817 H   0  0  0  0  0  0  0  0  0  0  0  0
   11.3056    1.3215   -1.2966 H   0  0  0  0  0  0  0  0  0  0  0  0
   13.1142    0.4582   -2.8064 H   0  0  0  0  0  0  0  0  0  0  0  0
   11.5980   -0.4346   -3.0578 H   0  0  0  0  0  0  0  0  0  0  0  0
   12.7297   -3.3404   -1.3016 H   0  0  0  0  0  0  0  0  0  0  0  0
   11.3695   -2.5995   -2.1727 H   0  0  0  0  0  0  0  0  0  0  0  0
   12.4498   -1.7004    0.5569 H   0  0  0  0  0  0  0  0  0  0  0  0
   10.9408   -2.6116    0.3030 H   0  0  0  0  0  0  0  0  0  0  0  0
    9.4850   -1.4559    1.6877 H   0  0  0  0  0  0  0  0  0  0  0  0
    7.0093   -1.4749    1.7674 H   0  0  0  0  0  0  0  0  0  0  0  0
    2.5660   -2.8050   -1.7979 H   0  0  0  0  0  0  0  0  0  0  0  0
    1.8700   -5.0159   -1.5532 H   0  0  0  0  0  0  0  0  0  0  0  0
    0.2656   -5.6468   -1.6471 H   0  0  0  0  0  0  0  0  0  0  0  0
   -0.4058   -7.0491   -2.0829 H   0  0  0  0  0  0  0  0  0  0  0  0
    0.3172   -5.0744    3.3847 H   0  0  0  0  0  0  0  0  0  0  0  0
    2.6790   -2.6508    2.5335 H   0  0  0  0  0  0  0  0  0  0  0  0
  1  2  1  0  0  0  0
  1 32  1  0  0  0  0
  1 33  1  0  0  0  0
  1 34  1  0  0  0  0
  2  3  1  0  0  0  0
  2 20  2  0  0  0  0
  3  4  2  0  0  0  0
  3 35  1  0  0  0  0
  4  5  1  0  0  0  0
  4 36  1  0  0  0  0
  5  6  1  0  0  0  0
  5 18  1  0  0  0  0
  6  7  1  0  0  0  0
  6 17  2  0  0  0  0
  7  8  2  0  0  0  0
  7 37  1  0  0  0  0
  8  9  1  0  0  0  0
  8 38  1  0  0  0  0
  9 10  1  0  0  0  0
  9 16  2  0  0  0  0
 10 11  1  0  0  0  0
 10 15  1  0  0  0  0
 11 12  1  0  0  0  0
 11 39  1  0  0  0  0
 11 40  1  0  0  0  0
 12 13  1  0  0  0  0
 12 41  1  0  0  0  0
 12 42  1  0  0  0  0
 13 14  1  0  0  0  0
 14 15  1  0  0  0  0
 14 43  1  0  0  0  0
 14 44  1  0  0  0  0
 15 45  1  0  0  0  0
 15 46  1  0  0  0  0
 16 17  1  0  0  0  0
 16 47  1  0  0  0  0
 17 48  1  0  0  0  0
 18 19  2  0  0  0  0
 18 20  1  0  0  0  0
 20 21  1  0  0  0  0
 21 22  1  0  0  0  0
 21 31  2  0  0  0  0
 22 23  2  0  0  0  0
 22 49  1  0  0  0  0
 23 24  1  0  0  0  0
 23 50  1  0  0  0  0
 24 25  1  0  0  0  0
 24 30  2  0  0  0  0
 25 26  2  0  0  0  0
 26 27  1  0  0  0  0
 26 28  1  0  0  0  0
 27 51  1  0  0  0  0
 27 52  1  0  0  0  0
 28 29  2  0  0  0  0
 29 30  1  0  0  0  0
 29 53  1  0  0  0  0
 30 31  1  0  0  0  0
 31 54  1  0  0  0  0
M  END
$$$$
