CHEMBL3982896
 OpenBabel04072215373D

 58 61  0  0  0  0  0  0  0  0999 V2000
    2.5450    0.0130   -0.1543 C   0  0  0  0  0  0  0  0  0  0  0  0
    1.0427    0.0103   -0.1221 C   0  0  0  0  0  0  0  0  0  0  0  0
    0.3973    1.2589   -0.1540 C   0  0  0  0  0  0  0  0  0  0  0  0
   -0.9927    1.3930   -0.0846 C   0  0  0  0  0  0  0  0  0  0  0  0
   -1.6373    2.6518    0.0037 N   0  0  0  0  0  0  0  0  0  0  0  0
   -0.9900    3.8471    0.2641 C   0  0  0  0  0  0  0  0  0  0  0  0
    0.2181    3.9727    0.4423 O   0  0  0  0  0  0  0  0  0  0  0  0
   -1.8588    4.9255    0.3564 N   0  0  0  0  0  0  0  0  0  0  0  0
   -1.2963    6.1992    0.6448 C   0  0  0  0  0  0  0  0  0  0  0  0
   -0.2114    6.6964   -0.0903 C   0  0  0  0  0  0  0  0  0  0  0  0
    0.4441    7.8742    0.3026 C   0  0  0  0  0  0  0  0  0  0  0  0
    1.6366    8.3823   -0.4809 C   0  0  0  0  0  0  0  0  0  0  0  0
    2.9451    7.7839    0.0123 C   0  0  0  0  0  0  0  0  0  0  0  0
    1.5320    8.1072   -1.8151 F   0  0  0  0  0  0  0  0  0  0  0  0
    1.7526    9.7420   -0.4075 F   0  0  0  0  0  0  0  0  0  0  0  0
   -0.0103    8.5492    1.4472 C   0  0  0  0  0  0  0  0  0  0  0  0
   -1.1171    8.0764    2.1592 C   0  0  0  0  0  0  0  0  0  0  0  0
   -1.7657    6.9189    1.7412 C   0  0  0  0  0  0  0  0  0  0  0  0
   -2.7971    6.4449    2.4568 F   0  0  0  0  0  0  0  0  0  0  0  0
   -1.7623    0.2323   -0.0881 C   0  0  0  0  0  0  0  0  0  0  0  0
   -1.1394   -1.0248   -0.0743 C   0  0  0  0  0  0  0  0  0  0  0  0
    0.2596   -1.1445   -0.0126 C   0  0  0  0  0  0  0  0  0  0  0  0
    0.8858   -2.3752    0.1170 O   0  0  0  0  0  0  0  0  0  0  0  0
    0.3051   -3.3258    0.9444 C   0  0  0  0  0  0  0  0  0  0  0  0
   -0.3604   -2.9899    2.1205 C   0  0  0  0  0  0  0  0  0  0  0  0
   -0.9666   -4.0025    2.8279 C   0  0  0  0  0  0  0  0  0  0  0  0
   -0.8929   -5.2961    2.4748 N   0  0  0  0  0  0  0  0  0  0  0  0
   -0.1934   -5.6396    1.3860 C   0  0  0  0  0  0  0  0  0  0  0  0
   -0.0767   -7.0026    1.0559 N   0  0  0  0  0  0  0  0  0  0  0  0
   -0.6584   -8.0192    1.7957 C   0  0  0  0  0  0  0  0  0  0  0  0
   -1.3540   -7.9089    2.7910 O   0  0  0  0  0  0  0  0  0  0  0  0
   -0.3744   -9.4024    1.2866 C   0  0  0  0  0  0  0  0  0  0  0  0
   -1.4263  -10.4830    1.4588 C   0  0  0  0  0  0  0  0  0  0  0  0
   -0.1721  -10.5304    2.2813 C   0  0  0  0  0  0  0  0  0  0  0  0
    0.4257   -4.6755    0.5870 C   0  0  0  0  0  0  0  0  0  0  0  0
    2.9252    0.9916   -0.4806 H   0  0  0  0  0  0  0  0  0  0  0  0
    2.9262   -0.7200   -0.8690 H   0  0  0  0  0  0  0  0  0  0  0  0
    2.9530   -0.1776    0.8421 H   0  0  0  0  0  0  0  0  0  0  0  0
    1.0322    2.1349   -0.2404 H   0  0  0  0  0  0  0  0  0  0  0  0
   -2.6459    2.6664   -0.0439 H   0  0  0  0  0  0  0  0  0  0  0  0
   -2.7164    4.7229    0.8549 H   0  0  0  0  0  0  0  0  0  0  0  0
    0.1502    6.1480   -0.9600 H   0  0  0  0  0  0  0  0  0  0  0  0
    2.9609    6.6958   -0.1076 H   0  0  0  0  0  0  0  0  0  0  0  0
    3.1255    8.0267    1.0645 H   0  0  0  0  0  0  0  0  0  0  0  0
    3.7811    8.1911   -0.5669 H   0  0  0  0  0  0  0  0  0  0  0  0
    0.5013    9.4482    1.7880 H   0  0  0  0  0  0  0  0  0  0  0  0
   -1.4586    8.5896    3.0525 H   0  0  0  0  0  0  0  0  0  0  0  0
   -2.8473    0.2749   -0.0638 H   0  0  0  0  0  0  0  0  0  0  0  0
   -1.7652   -1.9141   -0.0696 H   0  0  0  0  0  0  0  0  0  0  0  0
   -0.4441   -1.9688    2.4718 H   0  0  0  0  0  0  0  0  0  0  0  0
   -1.5550   -3.8051    3.7187 H   0  0  0  0  0  0  0  0  0  0  0  0
    0.4761   -7.2389    0.2484 H   0  0  0  0  0  0  0  0  0  0  0  0
    0.2169   -9.4616    0.3775 H   0  0  0  0  0  0  0  0  0  0  0  0
   -1.5477  -11.2244    0.6794 H   0  0  0  0  0  0  0  0  0  0  0  0
   -2.3504  -10.2256    1.9686 H   0  0  0  0  0  0  0  0  0  0  0  0
    0.5504  -11.3046    2.0554 H   0  0  0  0  0  0  0  0  0  0  0  0
   -0.2581  -10.3037    3.3402 H   0  0  0  0  0  0  0  0  0  0  0  0
    0.9853   -4.9478   -0.3033 H   0  0  0  0  0  0  0  0  0  0  0  0
  1  2  1  0  0  0  0
  1 36  1  0  0  0  0
  1 37  1  0  0  0  0
  1 38  1  0  0  0  0
  2  3  1  0  0  0  0
  2 22  2  0  0  0  0
  3  4  2  0  0  0  0
  3 39  1  0  0  0  0
  4  5  1  0  0  0  0
  4 20  1  0  0  0  0
  5  6  1  0  0  0  0
  5 40  1  0  0  0  0
  6  7  2  0  0  0  0
  6  8  1  0  0  0  0
  8  9  1  0  0  0  0
  8 41  1  0  0  0  0
  9 10  1  0  0  0  0
  9 18  2  0  0  0  0
 10 11  2  0  0  0  0
 10 42  1  0  0  0  0
 11 12  1  0  0  0  0
 11 16  1  0  0  0  0
 12 13  1  0  0  0  0
 12 14  1  0  0  0  0
 12 15  1  0  0  0  0
 13 43  1  0  0  0  0
 13 44  1  0  0  0  0
 13 45  1  0  0  0  0
 16 17  2  0  0  0  0
 16 46  1  0  0  0  0
 17 18  1  0  0  0  0
 17 47  1  0  0  0  0
 18 19  1  0  0  0  0
 20 21  2  0  0  0  0
 20 48  1  0  0  0  0
 21 22  1  0  0  0  0
 21 49  1  0  0  0  0
 22 23  1  0  0  0  0
 23 24  1  0  0  0  0
 24 25  1  0  0  0  0
 24 35  2  0  0  0  0
 25 26  2  0  0  0  0
 25 50  1  0  0  0  0
 26 27  1  0  0  0  0
 26 51  1  0  0  0  0
 27 28  2  0  0  0  0
 28 29  1  0  0  0  0
 28 35  1  0  0  0  0
 29 30  1  0  0  0  0
 29 52  1  0  0  0  0
 30 31  2  0  0  0  0
 30 32  1  0  0  0  0
 32 33  1  0  0  0  0
 32 34  1  0  0  0  0
 32 53  1  0  0  0  0
 33 34  1  0  0  0  0
 33 54  1  0  0  0  0
 33 55  1  0  0  0  0
 34 56  1  0  0  0  0
 34 57  1  0  0  0  0
 35 58  1  0  0  0  0
M  END
$$$$
