CHEMBL1241768
 OpenBabel04072215363D

 37 40  0  0  1  0  0  0  0  0999 V2000
    1.0499    0.3690    0.0762 N   0  0  0  0  0  0  0  0  0  0  0  0
    2.4255    0.1861    0.0611 C   0  0  0  0  0  0  0  0  0  0  0  0
    3.1673    1.3143    0.0593 N   0  0  0  0  0  0  0  0  0  0  0  0
    4.5086    1.2108    0.0351 C   0  0  0  0  0  0  0  0  0  0  0  0
    5.2451    0.0911    0.0310 N   0  0  0  0  0  0  0  0  0  0  0  0
    4.4698   -1.0083    0.0272 C   0  0  0  0  0  0  0  0  0  0  0  0
    3.0847   -1.0535    0.0283 C   0  0  0  0  0  0  0  0  0  0  0  0
    2.7723   -2.4486   -0.0435 C   0  0  0  0  0  0  0  0  0  0  0  0
    1.4719   -3.1141   -0.1715 C   0  0  0  0  0  0  0  0  0  0  0  0
    0.4410   -2.5397   -0.9293 C   0  0  0  0  0  0  0  0  0  0  0  0
   -0.7994   -3.1718   -1.0564 C   0  0  0  0  0  0  0  0  0  0  0  0
   -1.0012   -4.4185   -0.4719 C   0  0  0  0  0  0  0  0  0  0  0  0
   -2.5214   -5.2079   -0.6585 Cl  0  0  0  0  0  0  0  0  0  0  0  0
    0.0317   -5.0239    0.2443 C   0  0  0  0  0  0  0  0  0  0  0  0
   -0.1040   -6.2692    0.7945 O   0  0  0  0  0  0  0  0  0  0  0  0
    1.2560   -4.3761    0.4070 C   0  0  0  0  0  0  0  0  0  0  0  0
    3.8913   -3.1979   -0.0229 N   0  0  0  0  0  0  0  0  0  0  0  0
    4.9016   -2.3066   -0.0139 N   0  0  0  0  0  0  0  0  0  0  0  0
    6.2864   -2.7308   -0.1457 C   0  0  2  0  0  0  0  0  0  0  0  0
    6.4874   -4.0203   -0.9208 C   0  0  0  0  0  0  0  0  0  0  0  0
    6.4687   -5.0808    0.1599 C   0  0  0  0  0  0  0  0  0  0  0  0
    6.9931   -4.4708    1.3472 O   0  0  0  0  0  0  0  0  0  0  0  0
    6.9359   -3.0421    1.1928 C   0  0  0  0  0  0  0  0  0  0  0  0
    0.8126    1.3318    0.2901 H   0  0  0  0  0  0  0  0  0  0  0  0
    0.5167   -0.3362    0.5679 H   0  0  0  0  0  0  0  0  0  0  0  0
    5.0577    2.1482    0.0039 H   0  0  0  0  0  0  0  0  0  0  0  0
    0.5946   -1.5995   -1.4553 H   0  0  0  0  0  0  0  0  0  0  0  0
   -1.5898   -2.6922   -1.6275 H   0  0  0  0  0  0  0  0  0  0  0  0
   -0.9757   -6.6114    0.5217 H   0  0  0  0  0  0  0  0  0  0  0  0
    2.0492   -4.8693    0.9670 H   0  0  0  0  0  0  0  0  0  0  0  0
    6.8075   -1.9071   -0.6488 H   0  0  0  0  0  0  0  0  0  0  0  0
    7.4809   -4.0066   -1.3860 H   0  0  0  0  0  0  0  0  0  0  0  0
    5.7552   -4.2101   -1.7115 H   0  0  0  0  0  0  0  0  0  0  0  0
    7.0877   -5.9450   -0.1029 H   0  0  0  0  0  0  0  0  0  0  0  0
    5.4580   -5.4360    0.3737 H   0  0  0  0  0  0  0  0  0  0  0  0
    7.9735   -2.6902    1.2039 H   0  0  0  0  0  0  0  0  0  0  0  0
    6.4214   -2.6077    2.0550 H   0  0  0  0  0  0  0  0  0  0  0  0
  1  2  1  0  0  0  0
  1 24  1  0  0  0  0
  1 25  1  0  0  0  0
  2  3  1  0  0  0  0
  2  7  2  0  0  0  0
  3  4  2  0  0  0  0
  4  5  1  0  0  0  0
  4 26  1  0  0  0  0
  5  6  2  0  0  0  0
  6  7  1  0  0  0  0
  6 18  1  0  0  0  0
  7  8  1  0  0  0  0
  8  9  1  0  0  0  0
  8 17  2  0  0  0  0
  9 10  1  0  0  0  0
  9 16  2  0  0  0  0
 10 11  2  0  0  0  0
 10 27  1  0  0  0  0
 11 12  1  0  0  0  0
 11 28  1  0  0  0  0
 12 13  1  0  0  0  0
 12 14  2  0  0  0  0
 14 15  1  0  0  0  0
 14 16  1  0  0  0  0
 15 29  1  0  0  0  0
 16 30  1  0  0  0  0
 17 18  1  0  0  0  0
 18 19  1  0  0  0  0
 19 20  1  0  0  0  0
 19 23  1  0  0  0  0
 19 31  1  6  0  0  0
 20 21  1  0  0  0  0
 20 32  1  0  0  0  0
 20 33  1  0  0  0  0
 21 22  1  0  0  0  0
 21 34  1  0  0  0  0
 21 35  1  0  0  0  0
 22 23  1  0  0  0  0
 23 36  1  0  0  0  0
 23 37  1  0  0  0  0
M  END
$$$$
