CHEMBL3612326
 OpenBabel04072215363D

 44 47  0  0  0  0  0  0  0  0999 V2000
    1.1155    0.4739   -0.6119 O   0  0  0  0  0  0  0  0  0  0  0  0
    2.1853    0.0975   -0.1480 C   0  0  0  0  0  0  0  0  0  0  0  0
    2.7066   -1.1731   -0.3326 N   0  0  0  0  0  0  0  0  0  0  0  0
    2.0735   -2.2220   -1.0457 C   0  0  0  0  0  0  0  0  0  0  0  0
    0.9825   -2.0247   -1.8976 C   0  0  0  0  0  0  0  0  0  0  0  0
    0.3356   -3.1062   -2.5045 C   0  0  0  0  0  0  0  0  0  0  0  0
    0.7935   -4.4074   -2.2963 C   0  0  0  0  0  0  0  0  0  0  0  0
   -0.0815   -5.7890   -2.9997 S   0  0  0  0  0  0  0  0  0  0  0  0
    0.7818   -6.0223   -4.5356 C   0  0  0  0  0  0  0  0  0  0  0  0
    0.7420   -5.0579   -5.5427 C   0  0  0  0  0  0  0  0  0  0  0  0
    1.3883   -5.3063   -6.7368 C   0  0  0  0  0  0  0  0  0  0  0  0
    2.0715   -6.4250   -7.0289 N   0  0  0  0  0  0  0  0  0  0  0  0
    2.1068   -7.3706   -6.0522 C   0  0  0  0  0  0  0  0  0  0  0  0
    2.7767   -8.6230   -6.1732 C   0  0  0  0  0  0  0  0  0  0  0  0
    2.6564   -9.3959   -5.0430 C   0  0  0  0  0  0  0  0  0  0  0  0
    1.7323   -8.6202   -3.8362 S   0  0  0  0  0  0  0  0  0  0  0  0
    1.4820   -7.2140   -4.8105 C   0  0  0  0  0  0  0  0  0  0  0  0
    1.9056   -4.6107   -1.4768 C   0  0  0  0  0  0  0  0  0  0  0  0
    2.5470   -3.5257   -0.8622 C   0  0  0  0  0  0  0  0  0  0  0  0
    3.0013    0.8854    0.6528 N   0  0  0  0  0  0  0  0  0  0  0  0
    2.7021    2.1883    1.1209 C   0  0  0  0  0  0  0  0  0  0  0  0
    1.5022    2.8511    0.8598 C   0  0  0  0  0  0  0  0  0  0  0  0
    1.2793    4.1430    1.3375 C   0  0  0  0  0  0  0  0  0  0  0  0
    2.2399    4.7951    2.1104 C   0  0  0  0  0  0  0  0  0  0  0  0
    1.8566    6.3982    2.6156 Cl  0  0  0  0  0  0  0  0  0  0  0  0
    3.4351    4.1447    2.4294 C   0  0  0  0  0  0  0  0  0  0  0  0
    4.4997    4.7231    3.3240 C   0  0  0  0  0  0  0  0  0  0  0  0
    4.2781    5.9676    3.8170 F   0  0  0  0  0  0  0  0  0  0  0  0
    4.7088    3.9327    4.4179 F   0  0  0  0  0  0  0  0  0  0  0  0
    5.7090    4.7887    2.6947 F   0  0  0  0  0  0  0  0  0  0  0  0
    3.6561    2.8427    1.9081 C   0  0  0  0  0  0  0  0  0  0  0  0
    3.4953   -1.4363    0.2384 H   0  0  0  0  0  0  0  0  0  0  0  0
    0.5900   -1.0354   -2.1087 H   0  0  0  0  0  0  0  0  0  0  0  0
   -0.5383   -2.9134   -3.1208 H   0  0  0  0  0  0  0  0  0  0  0  0
    0.2067   -4.1242   -5.4085 H   0  0  0  0  0  0  0  0  0  0  0  0
    1.3648   -4.5681   -7.5352 H   0  0  0  0  0  0  0  0  0  0  0  0
    3.3196   -8.9305   -7.0574 H   0  0  0  0  0  0  0  0  0  0  0  0
    3.0660  -10.3818   -4.8698 H   0  0  0  0  0  0  0  0  0  0  0  0
    2.2640   -5.6197   -1.2857 H   0  0  0  0  0  0  0  0  0  0  0  0
    3.3939   -3.7274   -0.2117 H   0  0  0  0  0  0  0  0  0  0  0  0
    3.9124    0.5193    0.8753 H   0  0  0  0  0  0  0  0  0  0  0  0
    0.7028    2.4011    0.2804 H   0  0  0  0  0  0  0  0  0  0  0  0
    0.3361    4.6313    1.0989 H   0  0  0  0  0  0  0  0  0  0  0  0
    4.5965    2.3437    2.1464 H   0  0  0  0  0  0  0  0  0  0  0  0
  1  2  2  0  0  0  0
  2  3  1  0  0  0  0
  2 20  1  0  0  0  0
  3  4  1  0  0  0  0
  3 32  1  0  0  0  0
  4  5  1  0  0  0  0
  4 19  2  0  0  0  0
  5  6  2  0  0  0  0
  5 33  1  0  0  0  0
  6  7  1  0  0  0  0
  6 34  1  0  0  0  0
  7  8  1  0  0  0  0
  7 18  2  0  0  0  0
  8  9  1  0  0  0  0
  9 10  1  0  0  0  0
  9 17  2  0  0  0  0
 10 11  2  0  0  0  0
 10 35  1  0  0  0  0
 11 12  1  0  0  0  0
 11 36  1  0  0  0  0
 12 13  2  0  0  0  0
 13 14  1  0  0  0  0
 13 17  1  0  0  0  0
 14 15  2  0  0  0  0
 14 37  1  0  0  0  0
 15 16  1  0  0  0  0
 15 38  1  0  0  0  0
 16 17  1  0  0  0  0
 18 19  1  0  0  0  0
 18 39  1  0  0  0  0
 19 40  1  0  0  0  0
 20 21  1  0  0  0  0
 20 41  1  0  0  0  0
 21 22  1  0  0  0  0
 21 31  2  0  0  0  0
 22 23  2  0  0  0  0
 22 42  1  0  0  0  0
 23 24  1  0  0  0  0
 23 43  1  0  0  0  0
 24 25  1  0  0  0  0
 24 26  2  0  0  0  0
 26 27  1  0  0  0  0
 26 31  1  0  0  0  0
 27 28  1  0  0  0  0
 27 29  1  0  0  0  0
 27 30  1  0  0  0  0
 31 44  1  0  0  0  0
M  END
$$$$
