CHEMBL3892923
 OpenBabel04072215373D

 57 60  0  0  0  0  0  0  0  0999 V2000
    2.5458    0.0448   -0.2404 C   0  0  0  0  0  0  0  0  0  0  0  0
    1.0462    0.0242   -0.1306 C   0  0  0  0  0  0  0  0  0  0  0  0
    0.3932    1.2701   -0.0554 C   0  0  0  0  0  0  0  0  0  0  0  0
   -0.9996    1.3813    0.0060 C   0  0  0  0  0  0  0  0  0  0  0  0
   -1.6539    2.6393   -0.0070 N   0  0  0  0  0  0  0  0  0  0  0  0
   -1.0844    3.7826   -0.5429 C   0  0  0  0  0  0  0  0  0  0  0  0
   -0.0307    3.8076   -1.1727 O   0  0  0  0  0  0  0  0  0  0  0  0
   -1.8170    4.9294   -0.2537 N   0  0  0  0  0  0  0  0  0  0  0  0
   -1.3145    6.1800   -0.6955 C   0  0  0  0  0  0  0  0  0  0  0  0
   -0.8914    6.3555   -2.0172 C   0  0  0  0  0  0  0  0  0  0  0  0
   -0.2642    7.5344   -2.3921 C   0  0  0  0  0  0  0  0  0  0  0  0
    0.1602    7.6898   -3.6526 F   0  0  0  0  0  0  0  0  0  0  0  0
   -0.0379    8.5470   -1.4673 C   0  0  0  0  0  0  0  0  0  0  0  0
   -0.4769    8.3967   -0.1432 C   0  0  0  0  0  0  0  0  0  0  0  0
   -0.1653    9.4644    0.8811 C   0  0  0  0  0  0  0  0  0  0  0  0
    1.1718    9.2133    1.5640 C   0  0  0  0  0  0  0  0  0  0  0  0
   -0.1195   10.7112    0.3273 F   0  0  0  0  0  0  0  0  0  0  0  0
   -1.1215    9.5361    1.8533 F   0  0  0  0  0  0  0  0  0  0  0  0
   -1.1527    7.2178    0.2276 C   0  0  0  0  0  0  0  0  0  0  0  0
   -1.7527    0.2152    0.0966 C   0  0  0  0  0  0  0  0  0  0  0  0
   -1.1166   -1.0360    0.0710 C   0  0  0  0  0  0  0  0  0  0  0  0
    0.2762   -1.1467   -0.0832 C   0  0  0  0  0  0  0  0  0  0  0  0
    0.9094   -2.3799   -0.1012 O   0  0  0  0  0  0  0  0  0  0  0  0
    0.3054   -3.4132   -0.8259 C   0  0  0  0  0  0  0  0  0  0  0  0
    0.5653   -4.7174   -0.4385 C   0  0  0  0  0  0  0  0  0  0  0  0
   -0.0398   -5.7072   -1.1936 C   0  0  0  0  0  0  0  0  0  0  0  0
    0.2345   -7.0641   -0.9051 N   0  0  0  0  0  0  0  0  0  0  0  0
   -0.3435   -8.1255   -1.5859 C   0  0  0  0  0  0  0  0  0  0  0  0
   -1.2963   -8.0720   -2.3418 O   0  0  0  0  0  0  0  0  0  0  0  0
    0.2472   -9.4820   -1.3482 C   0  0  0  0  0  0  0  0  0  0  0  0
    0.2598  -10.0888    0.0341 C   0  0  0  0  0  0  0  0  0  0  0  0
    1.5550   -9.7817   -0.6642 C   0  0  0  0  0  0  0  0  0  0  0  0
   -0.8391   -5.4141   -2.2217 N   0  0  0  0  0  0  0  0  0  0  0  0
   -1.0149   -4.1261   -2.5221 C   0  0  0  0  0  0  0  0  0  0  0  0
   -0.4618   -3.0968   -1.8827 N   0  0  0  0  0  0  0  0  0  0  0  0
    2.8912    1.0209   -0.6092 H   0  0  0  0  0  0  0  0  0  0  0  0
    2.9083   -0.7002   -0.9529 H   0  0  0  0  0  0  0  0  0  0  0  0
    3.0006   -0.1163    0.7404 H   0  0  0  0  0  0  0  0  0  0  0  0
    1.0111    2.1651   -0.0521 H   0  0  0  0  0  0  0  0  0  0  0  0
   -2.6594    2.6410    0.0790 H   0  0  0  0  0  0  0  0  0  0  0  0
   -2.2530    4.9106    0.6580 H   0  0  0  0  0  0  0  0  0  0  0  0
   -1.0108    5.5707   -2.7558 H   0  0  0  0  0  0  0  0  0  0  0  0
    0.4912    9.4397   -1.7870 H   0  0  0  0  0  0  0  0  0  0  0  0
    2.0008    9.2371    0.8482 H   0  0  0  0  0  0  0  0  0  0  0  0
    1.1844    8.2495    2.0837 H   0  0  0  0  0  0  0  0  0  0  0  0
    1.3602    9.9922    2.3106 H   0  0  0  0  0  0  0  0  0  0  0  0
   -1.4725    7.0900    1.2595 H   0  0  0  0  0  0  0  0  0  0  0  0
   -2.8360    0.2458    0.1571 H   0  0  0  0  0  0  0  0  0  0  0  0
   -1.7313   -1.9294    0.1395 H   0  0  0  0  0  0  0  0  0  0  0  0
    1.1997   -4.9304    0.4115 H   0  0  0  0  0  0  0  0  0  0  0  0
    0.9269   -7.2649   -0.2044 H   0  0  0  0  0  0  0  0  0  0  0  0
   -0.0064  -10.1623   -2.1603 H   0  0  0  0  0  0  0  0  0  0  0  0
   -0.0467  -11.1255    0.1208 H   0  0  0  0  0  0  0  0  0  0  0  0
   -0.0339   -9.4731    0.8761 H   0  0  0  0  0  0  0  0  0  0  0  0
    2.1303  -10.6217   -1.0434 H   0  0  0  0  0  0  0  0  0  0  0  0
    2.1748   -8.9827   -0.2830 H   0  0  0  0  0  0  0  0  0  0  0  0
   -1.6666   -3.9021   -3.3593 H   0  0  0  0  0  0  0  0  0  0  0  0
  1  2  1  0  0  0  0
  1 36  1  0  0  0  0
  1 37  1  0  0  0  0
  1 38  1  0  0  0  0
  2  3  1  0  0  0  0
  2 22  2  0  0  0  0
  3  4  2  0  0  0  0
  3 39  1  0  0  0  0
  4  5  1  0  0  0  0
  4 20  1  0  0  0  0
  5  6  1  0  0  0  0
  5 40  1  0  0  0  0
  6  7  2  0  0  0  0
  6  8  1  0  0  0  0
  8  9  1  0  0  0  0
  8 41  1  0  0  0  0
  9 10  1  0  0  0  0
  9 19  2  0  0  0  0
 10 11  2  0  0  0  0
 10 42  1  0  0  0  0
 11 12  1  0  0  0  0
 11 13  1  0  0  0  0
 13 14  2  0  0  0  0
 13 43  1  0  0  0  0
 14 15  1  0  0  0  0
 14 19  1  0  0  0  0
 15 16  1  0  0  0  0
 15 17  1  0  0  0  0
 15 18  1  0  0  0  0
 16 44  1  0  0  0  0
 16 45  1  0  0  0  0
 16 46  1  0  0  0  0
 19 47  1  0  0  0  0
 20 21  2  0  0  0  0
 20 48  1  0  0  0  0
 21 22  1  0  0  0  0
 21 49  1  0  0  0  0
 22 23  1  0  0  0  0
 23 24  1  0  0  0  0
 24 25  1  0  0  0  0
 24 35  2  0  0  0  0
 25 26  2  0  0  0  0
 25 50  1  0  0  0  0
 26 27  1  0  0  0  0
 26 33  1  0  0  0  0
 27 28  1  0  0  0  0
 27 51  1  0  0  0  0
 28 29  2  0  0  0  0
 28 30  1  0  0  0  0
 30 31  1  0  0  0  0
 30 32  1  0  0  0  0
 30 52  1  0  0  0  0
 31 32  1  0  0  0  0
 31 53  1  0  0  0  0
 31 54  1  0  0  0  0
 32 55  1  0  0  0  0
 32 56  1  0  0  0  0
 33 34  2  0  0  0  0
 34 35  1  0  0  0  0
 34 57  1  0  0  0  0
M  END
$$$$
