CHEMBL3690528
 OpenBabel04072215373D

 50 53  0  0  0  0  0  0  0  0999 V2000
    1.0721   -0.0059   -0.4582 C   0  0  0  0  0  0  0  0  0  0  0  0
    2.5500    0.0669   -0.2437 C   0  0  0  0  0  0  0  0  0  0  0  0
    3.3362   -1.0612   -0.3084 C   0  0  0  0  0  0  0  0  0  0  0  0
    4.6726   -1.0504   -0.1601 N   0  0  0  0  0  0  0  0  0  0  0  0
    5.2398    0.1381    0.0539 C   0  0  0  0  0  0  0  0  0  0  0  0
    6.6123    0.1620    0.1748 N   0  0  0  0  0  0  0  0  0  0  0  0
    4.5820    1.2918    0.1846 N   0  0  0  0  0  0  0  0  0  0  0  0
    3.2440    1.2428    0.0149 C   0  0  0  0  0  0  0  0  0  0  0  0
    2.5412    2.5374    0.1107 C   0  0  0  0  0  0  0  0  0  0  0  0
    2.2292    3.2116    1.3869 C   0  0  0  0  0  0  0  0  0  0  0  0
    1.7272    4.4688    1.3663 C   0  0  0  0  0  0  0  0  0  0  0  0
    1.3387    5.0071    0.1247 N   0  0  0  0  0  0  0  0  0  0  0  0
    0.5356    6.1101   -0.2294 C   0  0  0  0  0  0  0  0  0  0  0  0
    0.9967    7.1864   -1.1829 C   0  0  0  0  0  0  0  0  0  0  0  0
    2.3545    7.4197   -1.4261 C   0  0  0  0  0  0  0  0  0  0  0  0
    2.7503    8.1695   -2.5385 C   0  0  0  0  0  0  0  0  0  0  0  0
    1.7997    8.7048   -3.4151 C   0  0  0  0  0  0  0  0  0  0  0  0
    0.4388    8.5361   -3.1778 C   0  0  0  0  0  0  0  0  0  0  0  0
   -0.5725    9.0404   -4.0420 N   0  0  0  0  0  0  0  0  0  0  0  0
   -0.3827    9.7049   -5.2333 C   0  0  0  0  0  0  0  0  0  0  0  0
    0.6870    9.9405   -5.7860 O   0  0  0  0  0  0  0  0  0  0  0  0
   -1.5695   10.1545   -5.7777 N   0  0  0  0  0  0  0  0  0  0  0  0
   -1.5147   10.9240   -7.0348 C   0  0  0  0  0  0  0  0  0  0  0  0
   -1.3920   10.0998   -8.3237 C   0  0  0  0  0  0  0  0  0  0  0  0
   -1.5471    8.7753   -8.0967 F   0  0  0  0  0  0  0  0  0  0  0  0
   -2.3679   10.4628   -9.1950 F   0  0  0  0  0  0  0  0  0  0  0  0
   -0.2110   10.2873   -8.9477 F   0  0  0  0  0  0  0  0  0  0  0  0
    0.0508    7.8020   -2.0454 C   0  0  0  0  0  0  0  0  0  0  0  0
   -0.5703    5.3168   -0.5810 C   0  0  0  0  0  0  0  0  0  0  0  0
   -0.1041    4.2275   -1.3021 N   0  0  0  0  0  0  0  0  0  0  0  0
    1.1702    4.1396   -0.9509 C   0  0  0  0  0  0  0  0  0  0  0  0
    2.0866    3.0670   -1.0483 C   0  0  0  0  0  0  0  0  0  0  0  0
    0.7414   -1.0368   -0.6261 H   0  0  0  0  0  0  0  0  0  0  0  0
    0.7828    0.5680   -1.3446 H   0  0  0  0  0  0  0  0  0  0  0  0
    0.5339    0.3753    0.4155 H   0  0  0  0  0  0  0  0  0  0  0  0
    2.9092   -2.0430   -0.4934 H   0  0  0  0  0  0  0  0  0  0  0  0
    6.9495   -0.7438    0.4683 H   0  0  0  0  0  0  0  0  0  0  0  0
    6.9025    0.9695    0.7055 H   0  0  0  0  0  0  0  0  0  0  0  0
    2.3884    2.6638    2.3112 H   0  0  0  0  0  0  0  0  0  0  0  0
    1.4615    5.0186    2.2598 H   0  0  0  0  0  0  0  0  0  0  0  0
    3.1263    6.9668   -0.8101 H   0  0  0  0  0  0  0  0  0  0  0  0
    3.8043    8.3052   -2.7666 H   0  0  0  0  0  0  0  0  0  0  0  0
    2.1650    9.2318   -4.2885 H   0  0  0  0  0  0  0  0  0  0  0  0
   -1.5256    8.8891   -3.7498 H   0  0  0  0  0  0  0  0  0  0  0  0
   -2.3866    9.5949   -5.6066 H   0  0  0  0  0  0  0  0  0  0  0  0
   -0.6764   11.6249   -6.9792 H   0  0  0  0  0  0  0  0  0  0  0  0
   -2.4311   11.5267   -7.0659 H   0  0  0  0  0  0  0  0  0  0  0  0
   -1.0085    7.6269   -1.8747 H   0  0  0  0  0  0  0  0  0  0  0  0
   -1.6029    5.6233   -0.6602 H   0  0  0  0  0  0  0  0  0  0  0  0
    2.3027    2.6509   -2.0251 H   0  0  0  0  0  0  0  0  0  0  0  0
  1  2  1  0  0  0  0
  1 33  1  0  0  0  0
  1 34  1  0  0  0  0
  1 35  1  0  0  0  0
  2  3  1  0  0  0  0
  2  8  2  0  0  0  0
  3  4  2  0  0  0  0
  3 36  1  0  0  0  0
  4  5  1  0  0  0  0
  5  6  1  0  0  0  0
  5  7  2  0  0  0  0
  6 37  1  0  0  0  0
  6 38  1  0  0  0  0
  7  8  1  0  0  0  0
  8  9  1  0  0  0  0
  9 10  1  0  0  0  0
  9 32  2  0  0  0  0
 10 11  2  0  0  0  0
 10 39  1  0  0  0  0
 11 12  1  0  0  0  0
 11 40  1  0  0  0  0
 12 13  1  0  0  0  0
 12 31  1  0  0  0  0
 13 14  1  0  0  0  0
 13 29  2  0  0  0  0
 14 15  1  0  0  0  0
 14 28  2  0  0  0  0
 15 16  2  0  0  0  0
 15 41  1  0  0  0  0
 16 17  1  0  0  0  0
 16 42  1  0  0  0  0
 17 18  2  0  0  0  0
 17 43  1  0  0  0  0
 18 19  1  0  0  0  0
 18 28  1  0  0  0  0
 19 20  1  0  0  0  0
 19 44  1  0  0  0  0
 20 21  2  0  0  0  0
 20 22  1  0  0  0  0
 22 23  1  0  0  0  0
 22 45  1  0  0  0  0
 23 24  1  0  0  0  0
 23 46  1  0  0  0  0
 23 47  1  0  0  0  0
 24 25  1  0  0  0  0
 24 26  1  0  0  0  0
 24 27  1  0  0  0  0
 28 48  1  0  0  0  0
 29 30  1  0  0  0  0
 29 49  1  0  0  0  0
 30 31  2  0  0  0  0
 31 32  1  0  0  0  0
 32 50  1  0  0  0  0
M  END
$$$$
