CHEMBL2333163
 OpenBabel04072215363D

119124  0  0  0  0  0  0  0  0999 V2000
   -7.1356   -0.2274    0.6901 O   0  0  0  0  0  0  0  0  0  0  0  0
   -7.4227   -0.7364   -0.3818 C   0  0  0  0  0  0  0  0  0  0  0  0
   -8.4929   -0.3622   -1.1730 N   0  0  0  0  0  0  0  0  0  0  0  0
   -9.3413    0.7553   -0.8237 C   0  0  0  0  0  0  0  0  0  0  0  0
  -10.4323    1.0716   -1.8534 C   0  0  0  0  0  0  0  0  0  0  0  0
   -9.9165    1.4475   -3.2248 C   0  0  0  0  0  0  0  0  0  0  0  0
   -9.1132    2.5806   -3.4228 C   0  0  0  0  0  0  0  0  0  0  0  0
   -8.6442    2.9096   -4.7012 C   0  0  0  0  0  0  0  0  0  0  0  0
   -8.9818    2.1097   -5.7913 C   0  0  0  0  0  0  0  0  0  0  0  0
   -8.5235    2.4304   -7.0390 O   0  0  0  0  0  0  0  0  0  0  0  0
   -9.7893    0.9864   -5.6108 C   0  0  0  0  0  0  0  0  0  0  0  0
  -10.2768   -0.1352   -7.0602 Br  0  0  0  0  0  0  0  0  0  0  0  0
  -10.2591    0.6616   -4.3347 C   0  0  0  0  0  0  0  0  0  0  0  0
   -6.5959   -1.8966   -0.9492 C   0  0  0  0  0  0  0  0  0  0  0  0
   -5.5193   -2.4761   -0.0591 C   0  0  0  0  0  0  0  0  0  0  0  0
   -4.1322   -1.9016   -0.2585 C   0  0  0  0  0  0  0  0  0  0  0  0
   -3.1789   -2.5299   -1.0642 C   0  0  0  0  0  0  0  0  0  0  0  0
   -1.8339   -2.1454   -0.9940 C   0  0  0  0  0  0  0  0  0  0  0  0
   -0.5546   -3.1305   -1.9902 Br  0  0  0  0  0  0  0  0  0  0  0  0
   -1.4366   -1.0856   -0.1718 C   0  0  0  0  0  0  0  0  0  0  0  0
   -0.1144   -0.7547   -0.0230 O   0  0  0  0  0  0  0  0  0  0  0  0
   -2.4006   -0.3617    0.5314 C   0  0  0  0  0  0  0  0  0  0  0  0
   -1.9746    0.7366    1.2642 O   0  0  0  0  0  0  0  0  0  0  0  0
   -2.7793    1.1745    2.2936 C   0  0  0  0  0  0  0  0  0  0  0  0
   -3.2955    0.2567    3.2117 C   0  0  0  0  0  0  0  0  0  0  0  0
   -4.2487    0.6620    4.1296 C   0  0  0  0  0  0  0  0  0  0  0  0
   -4.6219    2.0110    4.2282 C   0  0  0  0  0  0  0  0  0  0  0  0
   -5.7173    2.3317    5.2036 C   0  0  0  0  0  0  0  0  0  0  0  0
   -5.7083    3.6855    5.9132 C   0  0  0  0  0  0  0  0  0  0  0  0
   -6.8611    3.8796    6.7896 N   0  0  0  0  0  0  0  0  0  0  0  0
   -7.4167    2.8802    7.5674 C   0  0  0  0  0  0  0  0  0  0  0  0
   -7.0876    1.7038    7.5768 O   0  0  0  0  0  0  0  0  0  0  0  0
   -8.5786    3.2986    8.4544 C   0  0  0  0  0  0  0  0  0  0  0  0
   -8.9103    2.3604    9.6034 C   0  0  0  0  0  0  0  0  0  0  0  0
   -8.2812    2.6500   10.9586 C   0  0  0  0  0  0  0  0  0  0  0  0
   -8.0872    1.5750   11.8330 C   0  0  0  0  0  0  0  0  0  0  0  0
   -7.5695    1.7863   13.1096 C   0  0  0  0  0  0  0  0  0  0  0  0
   -7.2879    0.2786   14.2308 Br  0  0  0  0  0  0  0  0  0  0  0  0
   -7.2370    3.0779   13.5500 C   0  0  0  0  0  0  0  0  0  0  0  0
   -6.6870    3.2352   14.7994 O   0  0  0  0  0  0  0  0  0  0  0  0
   -7.4163    4.2030   12.7268 C   0  0  0  0  0  0  0  0  0  0  0  0
   -7.0214    5.6200   13.0762 C   0  0  0  0  0  0  0  0  0  0  0  0
   -7.7969    6.6721   12.5315 C   0  0  0  0  0  0  0  0  0  0  0  0
   -7.2788    7.9654   12.3491 C   0  0  0  0  0  0  0  0  0  0  0  0
   -7.9947    8.9870   11.5037 C   0  0  0  0  0  0  0  0  0  0  0  0
   -8.8451    9.9293   12.3019 C   0  0  0  0  0  0  0  0  0  0  0  0
   -8.5412   11.1244   12.7314 N   0  0  0  0  0  0  0  0  0  0  0  0
   -7.2615   11.5283   12.3579 O   0  0  0  0  0  0  0  0  0  0  0  0
  -10.2611    9.4627   12.6329 C   0  0  0  0  0  0  0  0  0  0  0  0
  -10.7116    8.4081   12.2264 O   0  0  0  0  0  0  0  0  0  0  0  0
  -10.9025   10.3970   13.3968 N   0  0  0  0  0  0  0  0  0  0  0  0
  -12.2145   10.2312   13.9419 C   0  0  0  0  0  0  0  0  0  0  0  0
  -12.6150   11.5039   14.6781 C   0  0  0  0  0  0  0  0  0  0  0  0
  -13.9717   11.3825   15.3078 C   0  0  0  0  0  0  0  0  0  0  0  0
  -14.1045   10.8188   16.5959 C   0  0  0  0  0  0  0  0  0  0  0  0
  -15.3655   10.7132   17.1664 C   0  0  0  0  0  0  0  0  0  0  0  0
  -16.4945   11.1435   16.4727 C   0  0  0  0  0  0  0  0  0  0  0  0
  -17.7256   11.0473   17.0547 O   0  0  0  0  0  0  0  0  0  0  0  0
  -16.3667   11.6781   15.1881 C   0  0  0  0  0  0  0  0  0  0  0  0
  -17.8762   12.2551   14.1957 Br  0  0  0  0  0  0  0  0  0  0  0  0
  -15.1068   11.7857   14.6126 C   0  0  0  0  0  0  0  0  0  0  0  0
   -6.0665    8.2931   12.9428 C   0  0  0  0  0  0  0  0  0  0  0  0
   -5.4384    7.3663   13.7636 C   0  0  0  0  0  0  0  0  0  0  0  0
   -4.0427    8.0047   14.8843 Br  0  0  0  0  0  0  0  0  0  0  0  0
   -5.8578    6.0241   13.7746 C   0  0  0  0  0  0  0  0  0  0  0  0
   -5.0334    5.1569   14.4433 O   0  0  0  0  0  0  0  0  0  0  0  0
   -7.9601    3.9401   11.4267 C   0  0  0  0  0  0  0  0  0  0  0  0
   -9.2196    4.3884    8.1323 N   0  0  0  0  0  0  0  0  0  0  0  0
  -10.3075    4.5988    8.9858 O   0  0  0  0  0  0  0  0  0  0  0  0
   -4.0253    2.9490    3.3809 C   0  0  0  0  0  0  0  0  0  0  0  0
   -3.1055    2.5297    2.4112 C   0  0  0  0  0  0  0  0  0  0  0  0
   -2.3697    3.8402    1.2550 Br  0  0  0  0  0  0  0  0  0  0  0  0
   -3.7453   -0.7710    0.4655 C   0  0  0  0  0  0  0  0  0  0  0  0
   -6.9021   -2.3253   -2.1379 N   0  0  0  0  0  0  0  0  0  0  0  0
   -6.1007   -3.4064   -2.5187 O   0  0  0  0  0  0  0  0  0  0  0  0
   -8.6160   -0.8688   -2.0496 H   0  0  0  0  0  0  0  0  0  0  0  0
   -8.7015    1.6288   -0.6504 H   0  0  0  0  0  0  0  0  0  0  0  0
   -9.8140    0.5101    0.1347 H   0  0  0  0  0  0  0  0  0  0  0  0
  -11.0542    1.8971   -1.4813 H   0  0  0  0  0  0  0  0  0  0  0  0
  -11.1021    0.2058   -1.9375 H   0  0  0  0  0  0  0  0  0  0  0  0
   -8.8426    3.2195   -2.5853 H   0  0  0  0  0  0  0  0  0  0  0  0
   -8.0202    3.7897   -4.8230 H   0  0  0  0  0  0  0  0  0  0  0  0
   -7.9694    3.2255   -6.9815 H   0  0  0  0  0  0  0  0  0  0  0  0
  -10.8972   -0.2098   -4.2054 H   0  0  0  0  0  0  0  0  0  0  0  0
   -5.4759   -3.5618   -0.1973 H   0  0  0  0  0  0  0  0  0  0  0  0
   -5.8089   -2.3581    0.9937 H   0  0  0  0  0  0  0  0  0  0  0  0
   -3.4772   -3.3453   -1.7196 H   0  0  0  0  0  0  0  0  0  0  0  0
    0.4096   -1.3736   -0.5625 H   0  0  0  0  0  0  0  0  0  0  0  0
   -3.0340   -0.7962    3.1525 H   0  0  0  0  0  0  0  0  0  0  0  0
   -4.7240   -0.0925    4.7555 H   0  0  0  0  0  0  0  0  0  0  0  0
   -5.6224    1.5654    5.9770 H   0  0  0  0  0  0  0  0  0  0  0  0
   -6.6838    2.1773    4.7071 H   0  0  0  0  0  0  0  0  0  0  0  0
   -5.7226    4.5099    5.1903 H   0  0  0  0  0  0  0  0  0  0  0  0
   -4.8032    3.7970    6.5202 H   0  0  0  0  0  0  0  0  0  0  0  0
   -7.2464    4.8127    6.9000 H   0  0  0  0  0  0  0  0  0  0  0  0
   -8.6128    1.3471    9.3013 H   0  0  0  0  0  0  0  0  0  0  0  0
   -9.9971    2.3107    9.7252 H   0  0  0  0  0  0  0  0  0  0  0  0
   -8.3386    0.5650   11.5127 H   0  0  0  0  0  0  0  0  0  0  0  0
   -6.6617    2.3568   15.2277 H   0  0  0  0  0  0  0  0  0  0  0  0
   -8.8048    6.4560   12.1738 H   0  0  0  0  0  0  0  0  0  0  0  0
   -8.6182    8.4794   10.7582 H   0  0  0  0  0  0  0  0  0  0  0  0
   -7.2634    9.5582   10.9201 H   0  0  0  0  0  0  0  0  0  0  0  0
   -7.3326   12.5019   12.4196 H   0  0  0  0  0  0  0  0  0  0  0  0
  -10.2991   11.1504   13.7299 H   0  0  0  0  0  0  0  0  0  0  0  0
  -12.1873    9.3571   14.6046 H   0  0  0  0  0  0  0  0  0  0  0  0
  -12.9061    9.9987   13.1236 H   0  0  0  0  0  0  0  0  0  0  0  0
  -12.6021   12.3565   14.0025 H   0  0  0  0  0  0  0  0  0  0  0  0
  -11.8746   11.7416   15.4604 H   0  0  0  0  0  0  0  0  0  0  0  0
  -13.2310   10.4800   17.1355 H   0  0  0  0  0  0  0  0  0  0  0  0
  -15.4519   10.2820   18.1595 H   0  0  0  0  0  0  0  0  0  0  0  0
  -17.6250   10.7006   17.9555 H   0  0  0  0  0  0  0  0  0  0  0  0
  -15.0040   12.1843   13.5973 H   0  0  0  0  0  0  0  0  0  0  0  0
   -5.6276    9.2765   12.7894 H   0  0  0  0  0  0  0  0  0  0  0  0
   -5.4340    4.2709   14.4119 H   0  0  0  0  0  0  0  0  0  0  0  0
   -8.1253    4.7780   10.7492 H   0  0  0  0  0  0  0  0  0  0  0  0
  -10.6883    5.4353    8.6573 H   0  0  0  0  0  0  0  0  0  0  0  0
   -4.2938    3.9993    3.4473 H   0  0  0  0  0  0  0  0  0  0  0  0
   -4.5118   -0.2490    1.0337 H   0  0  0  0  0  0  0  0  0  0  0  0
   -6.4066   -3.6057   -3.4079 H   0  0  0  0  0  0  0  0  0  0  0  0
  1  2  2  0  0  0  0
  2  3  1  0  0  0  0
  2 14  1  0  0  0  0
  3  4  1  0  0  0  0
  3 76  1  0  0  0  0
  4  5  1  0  0  0  0
  4 77  1  0  0  0  0
  4 78  1  0  0  0  0
  5  6  1  0  0  0  0
  5 79  1  0  0  0  0
  5 80  1  0  0  0  0
  6  7  1  0  0  0  0
  6 13  2  0  0  0  0
  7  8  2  0  0  0  0
  7 81  1  0  0  0  0
  8  9  1  0  0  0  0
  8 82  1  0  0  0  0
  9 10  1  0  0  0  0
  9 11  2  0  0  0  0
 10 83  1  0  0  0  0
 11 12  1  0  0  0  0
 11 13  1  0  0  0  0
 13 84  1  0  0  0  0
 14 15  1  0  0  0  0
 14 74  2  0  0  0  0
 15 16  1  0  0  0  0
 15 85  1  0  0  0  0
 15 86  1  0  0  0  0
 16 17  1  0  0  0  0
 16 73  2  0  0  0  0
 17 18  2  0  0  0  0
 17 87  1  0  0  0  0
 18 19  1  0  0  0  0
 18 20  1  0  0  0  0
 20 21  1  0  0  0  0
 20 22  2  0  0  0  0
 21 88  1  0  0  0  0
 22 23  1  0  0  0  0
 22 73  1  0  0  0  0
 23 24  1  0  0  0  0
 24 25  1  0  0  0  0
 24 71  2  0  0  0  0
 25 26  2  0  0  0  0
 25 89  1  0  0  0  0
 26 27  1  0  0  0  0
 26 90  1  0  0  0  0
 27 28  1  0  0  0  0
 27 70  2  0  0  0  0
 28 29  1  0  0  0  0
 28 91  1  0  0  0  0
 28 92  1  0  0  0  0
 29 30  1  0  0  0  0
 29 93  1  0  0  0  0
 29 94  1  0  0  0  0
 30 31  1  0  0  0  0
 30 95  1  0  0  0  0
 31 32  2  0  0  0  0
 31 33  1  0  0  0  0
 33 34  1  0  0  0  0
 33 68  2  0  0  0  0
 34 35  1  0  0  0  0
 34 96  1  0  0  0  0
 34 97  1  0  0  0  0
 35 36  1  0  0  0  0
 35 67  2  0  0  0  0
 36 37  2  0  0  0  0
 36 98  1  0  0  0  0
 37 38  1  0  0  0  0
 37 39  1  0  0  0  0
 39 40  1  0  0  0  0
 39 41  2  0  0  0  0
 40 99  1  0  0  0  0
 41 42  1  0  0  0  0
 41 67  1  0  0  0  0
 42 43  1  0  0  0  0
 42 65  2  0  0  0  0
 43 44  2  0  0  0  0
 43100  1  0  0  0  0
 44 45  1  0  0  0  0
 44 62  1  0  0  0  0
 45 46  1  0  0  0  0
 45101  1  0  0  0  0
 45102  1  0  0  0  0
 46 47  2  0  0  0  0
 46 49  1  0  0  0  0
 47 48  1  0  0  0  0
 48103  1  0  0  0  0
 49 50  2  0  0  0  0
 49 51  1  0  0  0  0
 51 52  1  0  0  0  0
 51104  1  0  0  0  0
 52 53  1  0  0  0  0
 52105  1  0  0  0  0
 52106  1  0  0  0  0
 53 54  1  0  0  0  0
 53107  1  0  0  0  0
 53108  1  0  0  0  0
 54 55  1  0  0  0  0
 54 61  2  0  0  0  0
 55 56  2  0  0  0  0
 55109  1  0  0  0  0
 56 57  1  0  0  0  0
 56110  1  0  0  0  0
 57 58  1  0  0  0  0
 57 59  2  0  0  0  0
 58111  1  0  0  0  0
 59 60  1  0  0  0  0
 59 61  1  0  0  0  0
 61112  1  0  0  0  0
 62 63  2  0  0  0  0
 62113  1  0  0  0  0
 63 64  1  0  0  0  0
 63 65  1  0  0  0  0
 65 66  1  0  0  0  0
 66114  1  0  0  0  0
 67115  1  0  0  0  0
 68 69  1  0  0  0  0
 69116  1  0  0  0  0
 70 71  1  0  0  0  0
 70117  1  0  0  0  0
 71 72  1  0  0  0  0
 73118  1  0  0  0  0
 74 75  1  0  0  0  0
 75119  1  0  0  0  0
M  END
$$$$
