CHEMBL234624
 OpenBabel04072215363D

 50 53  0  0  0  0  0  0  0  0999 V2000
    6.3844    1.5928   -1.1103 C   0  0  0  0  0  0  0  0  0  0  0  0
    5.2691    0.7534   -0.6606 N   0  0  0  0  0  0  0  0  0  0  0  0
    4.9798   -0.2682   -1.6671 C   0  0  0  0  0  0  0  0  0  0  0  0
    5.5994    0.1656    0.6519 C   0  0  0  0  0  0  0  0  0  0  0  0
    4.4683   -0.6673    1.2816 C   0  0  0  0  0  0  0  0  0  0  0  0
    4.8355   -1.1692    2.6583 C   0  0  0  0  0  0  0  0  0  0  0  0
    5.1026   -0.2639    3.6894 C   0  0  0  0  0  0  0  0  0  0  0  0
    5.4176   -0.7195    4.9674 C   0  0  0  0  0  0  0  0  0  0  0  0
    5.4617   -2.0885    5.2522 C   0  0  0  0  0  0  0  0  0  0  0  0
    5.7567   -2.5734    6.5357 N   0  0  0  0  0  0  0  0  0  0  0  0
    5.4899   -1.9408    7.7465 C   0  0  0  0  0  0  0  0  0  0  0  0
    6.2711   -2.2513    8.7874 N   0  0  0  0  0  0  0  0  0  0  0  0
    5.9326   -1.6866    9.9685 C   0  0  0  0  0  0  0  0  0  0  0  0
    4.8694   -0.8238   10.1630 C   0  0  0  0  0  0  0  0  0  0  0  0
    4.5419   -0.3005   11.7677 Cl  0  0  0  0  0  0  0  0  0  0  0  0
    4.1450   -0.5098    9.0256 C   0  0  0  0  0  0  0  0  0  0  0  0
    3.0001    0.4328    8.9032 C   0  0  0  0  0  0  0  0  0  0  0  0
    2.0488    0.2465    7.8749 C   0  0  0  0  0  0  0  0  0  0  0  0
    1.0150    1.1563    7.6107 C   0  0  0  0  0  0  0  0  0  0  0  0
    0.8811    2.2264    8.4881 C   0  0  0  0  0  0  0  0  0  0  0  0
    0.0296    3.3058    8.4748 N   0  0  0  0  0  0  0  0  0  0  0  0
   -0.0047    3.8649    9.7246 C   0  0  0  0  0  0  0  0  0  0  0  0
    1.1068    3.4085   10.3982 C   0  0  0  0  0  0  0  0  0  0  0  0
    1.6969    2.3873    9.6024 C   0  0  0  0  0  0  0  0  0  0  0  0
    2.8183    1.5454    9.7457 C   0  0  0  0  0  0  0  0  0  0  0  0
    4.4650   -1.0881    7.8378 N   0  0  0  0  0  0  0  0  0  0  0  0
    5.2062   -2.9930    4.2185 C   0  0  0  0  0  0  0  0  0  0  0  0
    4.8883   -2.5414    2.9337 C   0  0  0  0  0  0  0  0  0  0  0  0
    6.1439    2.0770   -2.0631 H   0  0  0  0  0  0  0  0  0  0  0  0
    7.3074    1.0152   -1.2378 H   0  0  0  0  0  0  0  0  0  0  0  0
    6.5767    2.3971   -0.3912 H   0  0  0  0  0  0  0  0  0  0  0  0
    4.8125    0.1916   -2.6480 H   0  0  0  0  0  0  0  0  0  0  0  0
    4.0551   -0.8045   -1.4296 H   0  0  0  0  0  0  0  0  0  0  0  0
    5.7933   -0.9962   -1.7630 H   0  0  0  0  0  0  0  0  0  0  0  0
    5.8337    0.9944    1.3320 H   0  0  0  0  0  0  0  0  0  0  0  0
    6.5088   -0.4468    0.5846 H   0  0  0  0  0  0  0  0  0  0  0  0
    4.2311   -1.5267    0.6448 H   0  0  0  0  0  0  0  0  0  0  0  0
    3.5502   -0.0716    1.3619 H   0  0  0  0  0  0  0  0  0  0  0  0
    5.0613    0.8088    3.5150 H   0  0  0  0  0  0  0  0  0  0  0  0
    5.6280    0.0125    5.7413 H   0  0  0  0  0  0  0  0  0  0  0  0
    6.6083   -3.1096    6.6051 H   0  0  0  0  0  0  0  0  0  0  0  0
    6.5786   -1.9647   10.7986 H   0  0  0  0  0  0  0  0  0  0  0  0
    2.1206   -0.6292    7.2280 H   0  0  0  0  0  0  0  0  0  0  0  0
    0.3332    1.0011    6.7824 H   0  0  0  0  0  0  0  0  0  0  0  0
   -0.5169    3.6014    7.6780 H   0  0  0  0  0  0  0  0  0  0  0  0
   -0.7787    4.5678    9.9992 H   0  0  0  0  0  0  0  0  0  0  0  0
    1.4165    3.7136   11.3889 H   0  0  0  0  0  0  0  0  0  0  0  0
    3.5176    1.7859   10.5350 H   0  0  0  0  0  0  0  0  0  0  0  0
    5.2107   -4.0630    4.4186 H   0  0  0  0  0  0  0  0  0  0  0  0
    4.6662   -3.2702    2.1578 H   0  0  0  0  0  0  0  0  0  0  0  0
  1  2  1  0  0  0  0
  1 29  1  0  0  0  0
  1 30  1  0  0  0  0
  1 31  1  0  0  0  0
  2  3  1  0  0  0  0
  2  4  1  0  0  0  0
  3 32  1  0  0  0  0
  3 33  1  0  0  0  0
  3 34  1  0  0  0  0
  4  5  1  0  0  0  0
  4 35  1  0  0  0  0
  4 36  1  0  0  0  0
  5  6  1  0  0  0  0
  5 37  1  0  0  0  0
  5 38  1  0  0  0  0
  6  7  1  0  0  0  0
  6 28  2  0  0  0  0
  7  8  2  0  0  0  0
  7 39  1  0  0  0  0
  8  9  1  0  0  0  0
  8 40  1  0  0  0  0
  9 10  1  0  0  0  0
  9 27  2  0  0  0  0
 10 11  1  0  0  0  0
 10 41  1  0  0  0  0
 11 12  1  0  0  0  0
 11 26  2  0  0  0  0
 12 13  2  0  0  0  0
 13 14  1  0  0  0  0
 13 42  1  0  0  0  0
 14 15  1  0  0  0  0
 14 16  2  0  0  0  0
 16 17  1  0  0  0  0
 16 26  1  0  0  0  0
 17 18  1  0  0  0  0
 17 25  2  0  0  0  0
 18 19  2  0  0  0  0
 18 43  1  0  0  0  0
 19 20  1  0  0  0  0
 19 44  1  0  0  0  0
 20 21  1  0  0  0  0
 20 24  2  0  0  0  0
 21 22  1  0  0  0  0
 21 45  1  0  0  0  0
 22 23  2  0  0  0  0
 22 46  1  0  0  0  0
 23 24  1  0  0  0  0
 23 47  1  0  0  0  0
 24 25  1  0  0  0  0
 25 48  1  0  0  0  0
 27 28  1  0  0  0  0
 27 49  1  0  0  0  0
 28 50  1  0  0  0  0
M  END
$$$$
