CHEMBL254704
 OpenBabel04072215363D

 48 52  0  0  0  0  0  0  0  0999 V2000
    2.1824    3.5209   -1.2443 N   0  0  0  0  0  0  0  0  0  0  0  0
    0.8185    3.2783   -1.0476 C   0  0  0  0  0  0  0  0  0  0  0  0
    0.4000    2.1259   -0.3878 C   0  0  0  0  0  0  0  0  0  0  0  0
   -0.9451    1.9377   -0.0342 C   0  0  0  0  0  0  0  0  0  0  0  0
   -1.9023    2.9281   -0.2741 C   0  0  0  0  0  0  0  0  0  0  0  0
   -3.2687    2.8049    0.1161 N   0  0  0  0  0  0  0  0  0  0  0  0
   -3.7764    1.8883    1.0476 C   0  0  0  0  0  0  0  0  0  0  0  0
   -3.0730    1.1104    1.6798 O   0  0  0  0  0  0  0  0  0  0  0  0
   -5.1482    1.9418    1.1822 N   0  0  0  0  0  0  0  0  0  0  0  0
   -5.9811    0.9098    1.7919 C   0  0  0  0  0  0  0  0  0  0  0  0
   -5.4831   -0.3501    2.0835 C   0  0  0  0  0  0  0  0  0  0  0  0
   -6.1108   -1.4614    1.4805 C   0  0  0  0  0  0  0  0  0  0  0  0
   -7.0205   -1.2265    0.4343 C   0  0  0  0  0  0  0  0  0  0  0  0
   -7.4754    0.0606    0.3365 C   0  0  0  0  0  0  0  0  0  0  0  0
   -7.3084    0.8668    1.4545 C   0  0  0  0  0  0  0  0  0  0  0  0
   -8.2465    2.0071    1.3175 C   0  0  0  0  0  0  0  0  0  0  0  0
   -8.8482    2.5901    2.1907 O   0  0  0  0  0  0  0  0  0  0  0  0
   -8.3665    2.1265   -0.0955 C   0  0  0  0  0  0  0  0  0  0  0  0
   -7.9040    0.9678   -0.7337 C   0  0  0  0  0  0  0  0  0  0  0  0
   -7.2798    1.3173   -1.8742 N   0  0  0  0  0  0  0  0  0  0  0  0
   -7.4932    2.6776   -1.9602 N   0  0  0  0  0  0  0  0  0  0  0  0
   -8.2044    3.2141   -0.9022 C   0  0  0  0  0  0  0  0  0  0  0  0
   -8.4828    4.5992   -0.5509 C   0  0  0  0  0  0  0  0  0  0  0  0
   -7.5678    5.6480   -0.6672 C   0  0  0  0  0  0  0  0  0  0  0  0
   -7.9430    6.9472   -0.2864 C   0  0  0  0  0  0  0  0  0  0  0  0
   -9.2217    7.1863    0.2166 C   0  0  0  0  0  0  0  0  0  0  0  0
   -9.6536    8.4397    0.5293 O   0  0  0  0  0  0  0  0  0  0  0  0
  -10.1081    6.1433    0.4149 C   0  0  0  0  0  0  0  0  0  0  0  0
   -9.7338    4.8582    0.0401 C   0  0  0  0  0  0  0  0  0  0  0  0
   -1.4850    4.0887   -0.9364 C   0  0  0  0  0  0  0  0  0  0  0  0
   -0.1305    4.2716   -1.2864 C   0  0  0  0  0  0  0  0  0  0  0  0
    2.7509    2.6789   -1.3053 H   0  0  0  0  0  0  0  0  0  0  0  0
    2.3957    4.1856   -1.9804 H   0  0  0  0  0  0  0  0  0  0  0  0
    1.1172    1.3499   -0.1300 H   0  0  0  0  0  0  0  0  0  0  0  0
   -1.1909    1.0076    0.4410 H   0  0  0  0  0  0  0  0  0  0  0  0
   -3.8778    3.5575   -0.1620 H   0  0  0  0  0  0  0  0  0  0  0  0
   -5.6210    2.5094    0.4932 H   0  0  0  0  0  0  0  0  0  0  0  0
   -4.5432   -0.4877    2.6094 H   0  0  0  0  0  0  0  0  0  0  0  0
   -5.7629   -2.4665    1.7074 H   0  0  0  0  0  0  0  0  0  0  0  0
   -7.3195   -2.0129   -0.2464 H   0  0  0  0  0  0  0  0  0  0  0  0
   -7.0179    3.1900   -2.6963 H   0  0  0  0  0  0  0  0  0  0  0  0
   -6.5550    5.4795   -1.0184 H   0  0  0  0  0  0  0  0  0  0  0  0
   -7.2294    7.7605   -0.3778 H   0  0  0  0  0  0  0  0  0  0  0  0
   -9.0022    9.0857    0.2141 H   0  0  0  0  0  0  0  0  0  0  0  0
  -11.0864    6.3187    0.8526 H   0  0  0  0  0  0  0  0  0  0  0  0
  -10.4321    4.0433    0.2326 H   0  0  0  0  0  0  0  0  0  0  0  0
   -2.1773    4.8932   -1.1531 H   0  0  0  0  0  0  0  0  0  0  0  0
    0.1789    5.2131   -1.7372 H   0  0  0  0  0  0  0  0  0  0  0  0
  1  2  1  0  0  0  0
  1 32  1  0  0  0  0
  1 33  1  0  0  0  0
  2  3  1  0  0  0  0
  2 31  2  0  0  0  0
  3  4  2  0  0  0  0
  3 34  1  0  0  0  0
  4  5  1  0  0  0  0
  4 35  1  0  0  0  0
  5  6  1  0  0  0  0
  5 30  2  0  0  0  0
  6  7  1  0  0  0  0
  6 36  1  0  0  0  0
  7  8  2  0  0  0  0
  7  9  1  0  0  0  0
  9 10  1  0  0  0  0
  9 37  1  0  0  0  0
 10 11  1  0  0  0  0
 10 15  2  0  0  0  0
 11 12  2  0  0  0  0
 11 38  1  0  0  0  0
 12 13  1  0  0  0  0
 12 39  1  0  0  0  0
 13 14  2  0  0  0  0
 13 40  1  0  0  0  0
 14 15  1  0  0  0  0
 14 19  1  0  0  0  0
 15 16  1  0  0  0  0
 16 17  2  0  0  0  0
 16 18  1  0  0  0  0
 18 19  1  0  0  0  0
 18 22  2  0  0  0  0
 19 20  2  0  0  0  0
 20 21  1  0  0  0  0
 21 22  1  0  0  0  0
 21 41  1  0  0  0  0
 22 23  1  0  0  0  0
 23 24  1  0  0  0  0
 23 29  2  0  0  0  0
 24 25  2  0  0  0  0
 24 42  1  0  0  0  0
 25 26  1  0  0  0  0
 25 43  1  0  0  0  0
 26 27  1  0  0  0  0
 26 28  2  0  0  0  0
 27 44  1  0  0  0  0
 28 29  1  0  0  0  0
 28 45  1  0  0  0  0
 29 46  1  0  0  0  0
 30 31  1  0  0  0  0
 30 47  1  0  0  0  0
 31 48  1  0  0  0  0
M  END
$$$$
