CHEMBL3216699
 OpenBabel04072215363D

 74 76  0  0  1  0  0  0  0  0999 V2000
    2.0238   -1.2801   -3.5040 Cl  0  0  0  0  0  0  0  0  0  0  0  0
   -0.5194    2.2339    2.0104 Cl  0  0  0  0  0  0  0  0  0  0  0  0
    1.1858   -0.3565    0.0231 N   0  0  0  0  0  0  0  0  0  0  0  0
    2.6432   -0.2554    0.0583 C   0  0  3  0  0  0  0  0  0  0  0  0
    3.2339   -1.3522    0.9551 C   0  0  0  0  0  0  0  0  0  0  0  0
    4.7718   -1.3640    0.8562 C   0  0  0  0  0  0  0  0  0  0  0  0
    5.3403    0.0334    0.9372 C   0  0  0  0  0  0  0  0  0  0  0  0
    4.5543    1.1697    0.8324 C   0  0  0  0  0  0  0  0  0  0  0  0
    5.4013    2.2467    0.9920 C   0  0  0  0  0  0  0  0  0  0  0  0
    5.1446    3.6300    1.0005 C   0  0  0  0  0  0  0  0  0  0  0  0
    6.2333    4.5160    1.1765 C   0  0  0  0  0  0  0  0  0  0  0  0
    6.0335    5.8678    1.2117 O   0  0  0  0  0  0  0  0  0  0  0  0
    7.0744    6.7706    1.3913 C   0  0  0  0  0  0  0  0  0  0  0  0
    6.6055    8.2239    1.4101 C   0  0  0  0  0  0  0  0  0  0  0  0
    7.8013    9.1455    1.5651 C   0  0  0  0  0  0  0  0  0  0  0  0
    8.1230   10.0683    0.5546 C   0  0  0  0  0  0  0  0  0  0  0  0
    9.2426   10.9003    0.6832 C   0  0  0  0  0  0  0  0  0  0  0  0
   10.0523   10.8209    1.8215 C   0  0  0  0  0  0  0  0  0  0  0  0
   11.1363   11.6138    1.9553 O   0  0  0  0  0  0  0  0  0  0  0  0
    9.7364    9.9131    2.8354 C   0  0  0  0  0  0  0  0  0  0  0  0
    8.6184    9.0813    2.7117 C   0  0  0  0  0  0  0  0  0  0  0  0
    7.5336    3.9746    1.3141 C   0  0  0  0  0  0  0  0  0  0  0  0
    7.7609    2.6060    1.2856 C   0  0  0  0  0  0  0  0  0  0  0  0
    6.6780    1.7280    1.1336 C   0  0  0  0  0  0  0  0  0  0  0  0
    6.6515    0.3563    1.0983 N   0  0  0  0  0  0  0  0  0  0  0  0
    7.7327   -0.6565    1.1993 C   0  0  0  0  0  0  0  0  0  0  0  0
    8.8511   -0.2679    2.1575 C   0  0  0  0  0  0  0  0  0  0  0  0
    9.9205   -1.3364    2.3685 C   0  0  0  0  0  0  0  0  0  0  0  0
   11.0016   -0.7238    3.2713 C   0  0  0  0  0  0  0  0  0  0  0  0
   12.1878   -1.6522    3.5006 C   0  0  0  0  0  0  0  0  0  0  0  0
   13.1870   -0.9582    4.3856 C   0  0  0  0  0  0  0  0  0  0  0  0
   13.5335   -1.4890    5.6355 C   0  0  0  0  0  0  0  0  0  0  0  0
   14.4460   -0.8040    6.4404 C   0  0  0  0  0  0  0  0  0  0  0  0
   15.0010    0.3982    5.9974 C   0  0  0  0  0  0  0  0  0  0  0  0
   14.6348    0.8985    4.7469 C   0  0  0  0  0  0  0  0  0  0  0  0
   13.7470    0.2161    3.9762 N   0  0  0  0  0  0  0  0  0  0  0  0
    3.0742    1.1458    0.5716 C   0  0  0  0  0  0  0  0  0  0  0  0
    1.2395   -0.3170   -2.9129 H   0  0  0  0  0  0  0  0  0  0  0  0
    0.2125    1.0731    2.0790 H   0  0  0  0  0  0  0  0  0  0  0  0
    0.9186   -1.2812   -0.3883 H   0  0  0  0  0  0  0  0  0  0  0  0
    0.8047    0.3867   -0.6056 H   0  0  0  0  0  0  0  0  0  0  0  0
    3.0460   -0.4113   -0.9681 H   0  0  0  0  0  0  0  0  0  0  0  0
    2.8607   -2.3617    0.6755 H   0  0  0  0  0  0  0  0  0  0  0  0
    2.9210   -1.1444    2.0026 H   0  0  0  0  0  0  0  0  0  0  0  0
    5.1101   -1.8053   -0.1045 H   0  0  0  0  0  0  0  0  0  0  0  0
    5.1314   -1.9989    1.6931 H   0  0  0  0  0  0  0  0  0  0  0  0
    4.1366    4.0078    0.8823 H   0  0  0  0  0  0  0  0  0  0  0  0
    7.8045    6.6540    0.5585 H   0  0  0  0  0  0  0  0  0  0  0  0
    7.5762    6.5482    2.3583 H   0  0  0  0  0  0  0  0  0  0  0  0
    5.8956    8.3857    2.2487 H   0  0  0  0  0  0  0  0  0  0  0  0
    6.0764    8.4339    0.4553 H   0  0  0  0  0  0  0  0  0  0  0  0
    7.5152   10.1399   -0.3375 H   0  0  0  0  0  0  0  0  0  0  0  0
    9.4766   11.6035   -0.1064 H   0  0  0  0  0  0  0  0  0  0  0  0
   11.3956   12.2525    1.2743 H   0  0  0  0  0  0  0  0  0  0  0  0
   10.3607    9.8466    3.7185 H   0  0  0  0  0  0  0  0  0  0  0  0
    8.3989    8.3831    3.5089 H   0  0  0  0  0  0  0  0  0  0  0  0
    8.4015    4.6052    1.4461 H   0  0  0  0  0  0  0  0  0  0  0  0
    8.7805    2.3397    1.3863 H   0  0  0  0  0  0  0  0  0  0  0  0
    8.1441   -0.8649    0.1897 H   0  0  0  0  0  0  0  0  0  0  0  0
    7.3106   -1.6070    1.5850 H   0  0  0  0  0  0  0  0  0  0  0  0
    8.4165    0.0287    3.1376 H   0  0  0  0  0  0  0  0  0  0  0  0
    9.4184    0.5378    1.7003 H   0  0  0  0  0  0  0  0  0  0  0  0
   10.3654   -1.6105    1.3853 H   0  0  0  0  0  0  0  0  0  0  0  0
    9.4836   -2.2431    2.8380 H   0  0  0  0  0  0  0  0  0  0  0  0
   10.5461   -0.4588    4.2520 H   0  0  0  0  0  0  0  0  0  0  0  0
   11.3806    0.2106    2.7963 H   0  0  0  0  0  0  0  0  0  0  0  0
   12.6688   -1.8974    2.5292 H   0  0  0  0  0  0  0  0  0  0  0  0
   11.8272   -2.5935    3.9680 H   0  0  0  0  0  0  0  0  0  0  0  0
   13.0980   -2.4166    5.9843 H   0  0  0  0  0  0  0  0  0  0  0  0
   14.7192   -1.2031    7.4080 H   0  0  0  0  0  0  0  0  0  0  0  0
   15.7060    0.9372    6.6166 H   0  0  0  0  0  0  0  0  0  0  0  0
   15.0531    1.8305    4.3895 H   0  0  0  0  0  0  0  0  0  0  0  0
    2.8113    1.8833   -0.2172 H   0  0  0  0  0  0  0  0  0  0  0  0
    2.5600    1.4249    1.5137 H   0  0  0  0  0  0  0  0  0  0  0  0
  1 38  1  0  0  0  0
  2 39  1  0  0  0  0
  3  4  1  0  0  0  0
  3 40  1  0  0  0  0
  3 41  1  0  0  0  0
  4  5  1  0  0  0  0
  4 37  1  0  0  0  0
  4 42  1  0  0  0  0
  5  6  1  0  0  0  0
  5 43  1  0  0  0  0
  5 44  1  0  0  0  0
  6  7  1  0  0  0  0
  6 45  1  0  0  0  0
  6 46  1  0  0  0  0
  7  8  2  0  0  0  0
  7 25  1  0  0  0  0
  8  9  1  0  0  0  0
  8 37  1  0  0  0  0
  9 10  1  0  0  0  0
  9 24  2  0  0  0  0
 10 11  2  0  0  0  0
 10 47  1  0  0  0  0
 11 12  1  0  0  0  0
 11 22  1  0  0  0  0
 12 13  1  0  0  0  0
 13 14  1  0  0  0  0
 13 48  1  0  0  0  0
 13 49  1  0  0  0  0
 14 15  1  0  0  0  0
 14 50  1  0  0  0  0
 14 51  1  0  0  0  0
 15 16  1  0  0  0  0
 15 21  2  0  0  0  0
 16 17  2  0  0  0  0
 16 52  1  0  0  0  0
 17 18  1  0  0  0  0
 17 53  1  0  0  0  0
 18 19  1  0  0  0  0
 18 20  2  0  0  0  0
 19 54  1  0  0  0  0
 20 21  1  0  0  0  0
 20 55  1  0  0  0  0
 21 56  1  0  0  0  0
 22 23  2  0  0  0  0
 22 57  1  0  0  0  0
 23 24  1  0  0  0  0
 23 58  1  0  0  0  0
 24 25  1  0  0  0  0
 25 26  1  0  0  0  0
 26 27  1  0  0  0  0
 26 59  1  0  0  0  0
 26 60  1  0  0  0  0
 27 28  1  0  0  0  0
 27 61  1  0  0  0  0
 27 62  1  0  0  0  0
 28 29  1  0  0  0  0
 28 63  1  0  0  0  0
 28 64  1  0  0  0  0
 29 30  1  0  0  0  0
 29 65  1  0  0  0  0
 29 66  1  0  0  0  0
 30 31  1  0  0  0  0
 30 67  1  0  0  0  0
 30 68  1  0  0  0  0
 31 32  1  0  0  0  0
 31 36  2  0  0  0  0
 32 33  2  0  0  0  0
 32 69  1  0  0  0  0
 33 34  1  0  0  0  0
 33 70  1  0  0  0  0
 34 35  2  0  0  0  0
 34 71  1  0  0  0  0
 35 36  1  0  0  0  0
 35 72  1  0  0  0  0
 37 73  1  0  0  0  0
 37 74  1  0  0  0  0
M  END
$$$$
