CHEMBL361886
 OpenBabel04072215363D

 82 86  0  0  0  0  0  0  0  0999 V2000
    0.6534   -6.2041    1.4239 C   0  0  0  0  0  0  0  0  0  0  0  0
    0.6790   -4.7609    1.2304 N   0  0  0  0  0  0  0  0  0  0  0  0
   -0.6387   -4.2456    0.8261 C   0  0  0  0  0  0  0  0  0  0  0  0
   -0.5636   -2.7236    0.5760 C   0  0  0  0  0  0  0  0  0  0  0  0
   -0.1384   -1.9342    1.7537 N   0  0  0  0  0  0  0  0  0  0  0  0
   -1.1426   -1.8962    2.8327 C   0  0  0  0  0  0  0  0  0  0  0  0
   -2.4800   -1.2782    2.3922 C   0  0  0  0  0  0  0  0  0  0  0  0
   -3.4933   -1.2475    3.5360 C   0  0  0  0  0  0  0  0  0  0  0  0
   -3.7527   -2.6008    3.9876 N   0  0  0  0  0  0  0  0  0  0  0  0
   -4.1069   -2.8168    5.2992 C   0  0  0  0  0  0  0  0  0  0  0  0
   -3.7518   -4.0108    5.9213 C   0  0  0  0  0  0  0  0  0  0  0  0
   -3.8549   -4.1618    7.2777 C   0  0  0  0  0  0  0  0  0  0  0  0
   -3.4115   -5.2694    7.9020 N   0  0  0  0  0  0  0  0  0  0  0  0
   -3.4518   -5.3681    9.2452 C   0  0  0  0  0  0  0  0  0  0  0  0
   -2.9645   -6.5484    9.8007 N   0  0  0  0  0  0  0  0  0  0  0  0
   -2.0586   -7.4130    9.0534 C   0  0  0  0  0  0  0  0  0  0  0  0
   -0.6710   -6.8338    8.8297 C   0  0  0  0  0  0  0  0  0  0  0  0
    0.1620   -7.9108    8.0852 C   0  0  0  0  0  0  0  0  0  0  0  0
    1.5310   -7.4864    7.8054 N   0  0  0  0  0  0  0  0  0  0  0  0
    2.2676   -7.1714    9.0419 C   0  0  0  0  0  0  0  0  0  0  0  0
    3.6623   -6.6208    8.7060 C   0  0  0  0  0  0  0  0  0  0  0  0
    4.5004   -7.5447    7.9183 N   0  0  0  0  0  0  0  0  0  0  0  0
    4.9673   -8.6553    8.7457 C   0  0  0  0  0  0  0  0  0  0  0  0
    3.7273   -8.0232    6.7490 C   0  0  0  0  0  0  0  0  0  0  0  0
    2.2913   -8.5184    7.0649 C   0  0  0  0  0  0  0  0  0  0  0  0
   -3.9284   -4.2988   10.0676 C   0  0  0  0  0  0  0  0  0  0  0  0
   -3.9506   -4.2820   11.5450 C   0  0  0  0  0  0  0  0  0  0  0  0
   -2.9913   -4.9568   12.3117 C   0  0  0  0  0  0  0  0  0  0  0  0
   -3.2202   -5.2208   13.6597 C   0  0  0  0  0  0  0  0  0  0  0  0
   -4.3423   -4.6955   14.2950 C   0  0  0  0  0  0  0  0  0  0  0  0
   -5.1998   -3.8517   13.5980 C   0  0  0  0  0  0  0  0  0  0  0  0
   -5.0087   -3.6524   12.2335 C   0  0  0  0  0  0  0  0  0  0  0  0
   -4.4433   -3.1889    9.3864 C   0  0  0  0  0  0  0  0  0  0  0  0
   -4.4065   -3.0968    8.0148 C   0  0  0  0  0  0  0  0  0  0  0  0
   -4.8306   -1.9805    7.3111 C   0  0  0  0  0  0  0  0  0  0  0  0
   -4.6591   -1.8028    5.9965 N   0  0  0  0  0  0  0  0  0  0  0  0
    1.1404   -2.5099    2.2441 C   0  0  0  0  0  0  0  0  0  0  0  0
    1.1387   -4.0509    2.4394 C   0  0  0  0  0  0  0  0  0  0  0  0
    0.3475   -6.7052    0.4985 H   0  0  0  0  0  0  0  0  0  0  0  0
   -0.0299   -6.5087    2.2236 H   0  0  0  0  0  0  0  0  0  0  0  0
    1.6566   -6.5745    1.6615 H   0  0  0  0  0  0  0  0  0  0  0  0
   -1.3988   -4.4688    1.5867 H   0  0  0  0  0  0  0  0  0  0  0  0
   -0.9626   -4.7318   -0.1012 H   0  0  0  0  0  0  0  0  0  0  0  0
   -1.5151   -2.3645    0.1736 H   0  0  0  0  0  0  0  0  0  0  0  0
    0.1561   -2.5366   -0.2327 H   0  0  0  0  0  0  0  0  0  0  0  0
   -0.7454   -1.2849    3.6544 H   0  0  0  0  0  0  0  0  0  0  0  0
   -1.3194   -2.8943    3.2488 H   0  0  0  0  0  0  0  0  0  0  0  0
   -2.9203   -1.8585    1.5748 H   0  0  0  0  0  0  0  0  0  0  0  0
   -2.3123   -0.2605    2.0186 H   0  0  0  0  0  0  0  0  0  0  0  0
   -4.4126   -0.7518    3.2026 H   0  0  0  0  0  0  0  0  0  0  0  0
   -3.0732   -0.6544    4.3587 H   0  0  0  0  0  0  0  0  0  0  0  0
   -3.7467   -3.3769    3.3393 H   0  0  0  0  0  0  0  0  0  0  0  0
   -3.3109   -4.8122    5.3265 H   0  0  0  0  0  0  0  0  0  0  0  0
   -3.6378   -7.0171   10.4182 H   0  0  0  0  0  0  0  0  0  0  0  0
   -2.4606   -7.7435    8.0869 H   0  0  0  0  0  0  0  0  0  0  0  0
   -1.8658   -8.2787    9.6979 H   0  0  0  0  0  0  0  0  0  0  0  0
   -0.2473   -6.6020    9.8148 H   0  0  0  0  0  0  0  0  0  0  0  0
   -0.6947   -5.8997    8.2573 H   0  0  0  0  0  0  0  0  0  0  0  0
   -0.3508   -8.1341    7.1385 H   0  0  0  0  0  0  0  0  0  0  0  0
    0.1762   -8.8505    8.6533 H   0  0  0  0  0  0  0  0  0  0  0  0
    2.3368   -8.0583    9.6854 H   0  0  0  0  0  0  0  0  0  0  0  0
    1.7615   -6.3982    9.6238 H   0  0  0  0  0  0  0  0  0  0  0  0
    4.1700   -6.3339    9.6339 H   0  0  0  0  0  0  0  0  0  0  0  0
    3.5373   -5.6892    8.1371 H   0  0  0  0  0  0  0  0  0  0  0  0
    5.5125   -8.2764    9.6165 H   0  0  0  0  0  0  0  0  0  0  0  0
    5.6684   -9.2764    8.1798 H   0  0  0  0  0  0  0  0  0  0  0  0
    4.1595   -9.2987    9.1083 H   0  0  0  0  0  0  0  0  0  0  0  0
    4.2871   -8.8080    6.2256 H   0  0  0  0  0  0  0  0  0  0  0  0
    3.6490   -7.1914    6.0360 H   0  0  0  0  0  0  0  0  0  0  0  0
    2.3433   -9.4533    7.6404 H   0  0  0  0  0  0  0  0  0  0  0  0
    1.7914   -8.7589    6.1175 H   0  0  0  0  0  0  0  0  0  0  0  0
   -2.1155   -5.3813   11.8301 H   0  0  0  0  0  0  0  0  0  0  0  0
   -2.5632   -5.9044   14.1894 H   0  0  0  0  0  0  0  0  0  0  0  0
   -4.5575   -4.9602   15.3258 H   0  0  0  0  0  0  0  0  0  0  0  0
   -6.0541   -3.4038   14.0998 H   0  0  0  0  0  0  0  0  0  0  0  0
   -5.7515   -3.0609   11.6988 H   0  0  0  0  0  0  0  0  0  0  0  0
   -4.8468   -2.3448    9.9540 H   0  0  0  0  0  0  0  0  0  0  0  0
   -5.3127   -1.1460    7.8234 H   0  0  0  0  0  0  0  0  0  0  0  0
    1.4468   -2.0199    3.1768 H   0  0  0  0  0  0  0  0  0  0  0  0
    1.9199   -2.2571    1.5122 H   0  0  0  0  0  0  0  0  0  0  0  0
    0.5077   -4.3084    3.3001 H   0  0  0  0  0  0  0  0  0  0  0  0
    2.1602   -4.3671    2.6829 H   0  0  0  0  0  0  0  0  0  0  0  0
  1  2  1  0  0  0  0
  1 39  1  0  0  0  0
  1 40  1  0  0  0  0
  1 41  1  0  0  0  0
  2  3  1  0  0  0  0
  2 38  1  0  0  0  0
  3  4  1  0  0  0  0
  3 42  1  0  0  0  0
  3 43  1  0  0  0  0
  4  5  1  0  0  0  0
  4 44  1  0  0  0  0
  4 45  1  0  0  0  0
  5  6  1  0  0  0  0
  5 37  1  0  0  0  0
  6  7  1  0  0  0  0
  6 46  1  0  0  0  0
  6 47  1  0  0  0  0
  7  8  1  0  0  0  0
  7 48  1  0  0  0  0
  7 49  1  0  0  0  0
  8  9  1  0  0  0  0
  8 50  1  0  0  0  0
  8 51  1  0  0  0  0
  9 10  1  0  0  0  0
  9 52  1  0  0  0  0
 10 11  1  0  0  0  0
 10 36  2  0  0  0  0
 11 12  2  0  0  0  0
 11 53  1  0  0  0  0
 12 13  1  0  0  0  0
 12 34  1  0  0  0  0
 13 14  2  0  0  0  0
 14 15  1  0  0  0  0
 14 26  1  0  0  0  0
 15 16  1  0  0  0  0
 15 54  1  0  0  0  0
 16 17  1  0  0  0  0
 16 55  1  0  0  0  0
 16 56  1  0  0  0  0
 17 18  1  0  0  0  0
 17 57  1  0  0  0  0
 17 58  1  0  0  0  0
 18 19  1  0  0  0  0
 18 59  1  0  0  0  0
 18 60  1  0  0  0  0
 19 20  1  0  0  0  0
 19 25  1  0  0  0  0
 20 21  1  0  0  0  0
 20 61  1  0  0  0  0
 20 62  1  0  0  0  0
 21 22  1  0  0  0  0
 21 63  1  0  0  0  0
 21 64  1  0  0  0  0
 22 23  1  0  0  0  0
 22 24  1  0  0  0  0
 23 65  1  0  0  0  0
 23 66  1  0  0  0  0
 23 67  1  0  0  0  0
 24 25  1  0  0  0  0
 24 68  1  0  0  0  0
 24 69  1  0  0  0  0
 25 70  1  0  0  0  0
 25 71  1  0  0  0  0
 26 27  1  0  0  0  0
 26 33  2  0  0  0  0
 27 28  1  0  0  0  0
 27 32  2  0  0  0  0
 28 29  2  0  0  0  0
 28 72  1  0  0  0  0
 29 30  1  0  0  0  0
 29 73  1  0  0  0  0
 30 31  2  0  0  0  0
 30 74  1  0  0  0  0
 31 32  1  0  0  0  0
 31 75  1  0  0  0  0
 32 76  1  0  0  0  0
 33 34  1  0  0  0  0
 33 77  1  0  0  0  0
 34 35  2  0  0  0  0
 35 36  1  0  0  0  0
 35 78  1  0  0  0  0
 37 38  1  0  0  0  0
 37 79  1  0  0  0  0
 37 80  1  0  0  0  0
 38 81  1  0  0  0  0
 38 82  1  0  0  0  0
M  END
$$$$
