CHEMBL4069008
 OpenBabel04072215383D

 43 46  0  0  0  0  0  0  0  0999 V2000
   -1.0915    2.2135   -3.3755 C   0  0  0  0  0  0  0  0  0  0  0  0
   -1.3414    1.0426   -2.4904 C   0  0  0  0  0  0  0  0  0  0  0  0
   -1.7420   -0.0905   -3.0893 N   0  0  0  0  0  0  0  0  0  0  0  0
   -1.9059   -0.9483   -2.0779 N   0  0  0  0  0  0  0  0  0  0  0  0
   -1.6240   -0.4267   -0.8516 C   0  0  0  0  0  0  0  0  0  0  0  0
   -1.7195   -1.1042    0.3061 N   0  0  0  0  0  0  0  0  0  0  0  0
   -1.3778   -0.3610    1.3737 C   0  0  0  0  0  0  0  0  0  0  0  0
   -0.9616    0.9620    1.3330 C   0  0  0  0  0  0  0  0  0  0  0  0
   -0.8708    1.6424    0.1004 C   0  0  0  0  0  0  0  0  0  0  0  0
   -0.3939    3.0347    0.0405 C   0  0  0  0  0  0  0  0  0  0  0  0
    0.5301    3.4250   -0.9265 C   0  0  0  0  0  0  0  0  0  0  0  0
    0.9317    4.7532   -1.0670 C   0  0  0  0  0  0  0  0  0  0  0  0
    0.4987    5.7364   -0.1795 C   0  0  0  0  0  0  0  0  0  0  0  0
    0.9115    7.0859   -0.2733 N   0  0  0  0  0  0  0  0  0  0  0  0
    1.5407    7.6352   -1.3805 C   0  0  0  0  0  0  0  0  0  0  0  0
    1.6791    7.0709   -2.4605 O   0  0  0  0  0  0  0  0  0  0  0  0
    2.0605    8.8988   -1.1185 N   0  0  0  0  0  0  0  0  0  0  0  0
    2.7978    9.5695   -2.1273 C   0  0  0  0  0  0  0  0  0  0  0  0
    2.3435    9.6139   -3.4544 C   0  0  0  0  0  0  0  0  0  0  0  0
    3.1426   10.1530   -4.4641 C   0  0  0  0  0  0  0  0  0  0  0  0
    4.4024   10.6519   -4.1490 C   0  0  0  0  0  0  0  0  0  0  0  0
    4.8310   10.6408   -2.8250 C   0  0  0  0  0  0  0  0  0  0  0  0
    6.0550   11.0985   -2.5295 F   0  0  0  0  0  0  0  0  0  0  0  0
    4.0320   10.1296   -1.8050 C   0  0  0  0  0  0  0  0  0  0  0  0
   -0.3366    5.3500    0.8697 C   0  0  0  0  0  0  0  0  0  0  0  0
   -0.7899    4.0194    0.9663 C   0  0  0  0  0  0  0  0  0  0  0  0
   -1.2300    0.8935   -1.0595 C   0  0  0  0  0  0  0  0  0  0  0  0
   -1.4217    2.0105   -4.4014 H   0  0  0  0  0  0  0  0  0  0  0  0
   -0.0243    2.4371   -3.4484 H   0  0  0  0  0  0  0  0  0  0  0  0
   -1.6314    3.0967   -3.0249 H   0  0  0  0  0  0  0  0  0  0  0  0
   -2.2179   -1.8897   -2.2764 H   0  0  0  0  0  0  0  0  0  0  0  0
   -1.4438   -0.8827    2.3257 H   0  0  0  0  0  0  0  0  0  0  0  0
   -0.6824    1.4551    2.2619 H   0  0  0  0  0  0  0  0  0  0  0  0
    0.9648    2.6926   -1.6005 H   0  0  0  0  0  0  0  0  0  0  0  0
    1.6055    4.9682   -1.8894 H   0  0  0  0  0  0  0  0  0  0  0  0
    0.5584    7.7231    0.4194 H   0  0  0  0  0  0  0  0  0  0  0  0
    2.3831    9.0221   -0.1694 H   0  0  0  0  0  0  0  0  0  0  0  0
    1.3739    9.1964   -3.7203 H   0  0  0  0  0  0  0  0  0  0  0  0
    2.7917   10.1492   -5.4928 H   0  0  0  0  0  0  0  0  0  0  0  0
    5.0571   11.0328   -4.9258 H   0  0  0  0  0  0  0  0  0  0  0  0
    4.4259   10.1054   -0.7958 H   0  0  0  0  0  0  0  0  0  0  0  0
   -0.6619    6.0677    1.6182 H   0  0  0  0  0  0  0  0  0  0  0  0
   -1.4643    3.7649    1.7822 H   0  0  0  0  0  0  0  0  0  0  0  0
  1  2  1  0  0  0  0
  1 28  1  0  0  0  0
  1 29  1  0  0  0  0
  1 30  1  0  0  0  0
  2  3  2  0  0  0  0
  2 27  1  0  0  0  0
  3  4  1  0  0  0  0
  4  5  1  0  0  0  0
  4 31  1  0  0  0  0
  5  6  1  0  0  0  0
  5 27  2  0  0  0  0
  6  7  2  0  0  0  0
  7  8  1  0  0  0  0
  7 32  1  0  0  0  0
  8  9  2  0  0  0  0
  8 33  1  0  0  0  0
  9 10  1  0  0  0  0
  9 27  1  0  0  0  0
 10 11  1  0  0  0  0
 10 26  2  0  0  0  0
 11 12  2  0  0  0  0
 11 34  1  0  0  0  0
 12 13  1  0  0  0  0
 12 35  1  0  0  0  0
 13 14  1  0  0  0  0
 13 25  2  0  0  0  0
 14 15  1  0  0  0  0
 14 36  1  0  0  0  0
 15 16  2  0  0  0  0
 15 17  1  0  0  0  0
 17 18  1  0  0  0  0
 17 37  1  0  0  0  0
 18 19  1  0  0  0  0
 18 24  2  0  0  0  0
 19 20  2  0  0  0  0
 19 38  1  0  0  0  0
 20 21  1  0  0  0  0
 20 39  1  0  0  0  0
 21 22  2  0  0  0  0
 21 40  1  0  0  0  0
 22 23  1  0  0  0  0
 22 24  1  0  0  0  0
 24 41  1  0  0  0  0
 25 26  1  0  0  0  0
 25 42  1  0  0  0  0
 26 43  1  0  0  0  0
M  END
$$$$
