CHEMBL201659
 OpenBabel04072215363D

 43 45  0  0  0  0  0  0  0  0999 V2000
    3.8148   -0.9314   -0.1407 C   0  0  0  0  0  0  0  0  0  0  0  0
    2.5655   -0.0928    0.1286 C   0  0  0  0  0  0  0  0  0  0  0  0
    1.6340   -0.7822    1.1274 C   0  0  0  0  0  0  0  0  0  0  0  0
    2.9181    1.3104    0.5833 C   0  0  0  0  0  0  0  0  0  0  0  0
    2.5291    2.3980   -0.2028 C   0  0  0  0  0  0  0  0  0  0  0  0
    2.7996    3.7072    0.2013 C   0  0  0  0  0  0  0  0  0  0  0  0
    3.4651    3.9668    1.3990 C   0  0  0  0  0  0  0  0  0  0  0  0
    3.7377    5.2679    1.8766 N   0  0  0  0  0  0  0  0  0  0  0  0
    3.4033    6.4712    1.2682 C   0  0  0  0  0  0  0  0  0  0  0  0
    2.8336    6.5496    0.1840 O   0  0  0  0  0  0  0  0  0  0  0  0
    3.7617    7.6757    2.0103 C   0  0  0  0  0  0  0  0  0  0  0  0
    4.6137    7.6251    3.5026 S   0  0  0  0  0  0  0  0  0  0  0  0
    4.5132    9.3278    3.6095 C   0  0  0  0  0  0  0  0  0  0  0  0
    3.9161    9.9364    2.6096 N   0  0  0  0  0  0  0  0  0  0  0  0
    3.4831    9.0007    1.6773 C   0  0  0  0  0  0  0  0  0  0  0  0
    2.7155    9.4822    0.4744 C   0  0  0  0  0  0  0  0  0  0  0  0
    3.0314   10.9154    0.0375 C   0  0  0  0  0  0  0  0  0  0  0  0
    2.2300   11.3168   -1.1562 C   0  0  0  0  0  0  0  0  0  0  0  0
    0.9655   11.9460   -1.1930 C   0  0  0  0  0  0  0  0  0  0  0  0
    0.5310   12.1466   -2.4399 N   0  0  0  0  0  0  0  0  0  0  0  0
    1.5279   11.6364   -3.2566 O   0  0  0  0  0  0  0  0  0  0  0  0
    2.5319   11.1470   -2.4870 C   0  0  0  0  0  0  0  0  0  0  0  0
    3.8754    2.8814    2.1805 C   0  0  0  0  0  0  0  0  0  0  0  0
    3.6073    1.5666    1.7766 C   0  0  0  0  0  0  0  0  0  0  0  0
    3.5385   -1.9193   -0.5247 H   0  0  0  0  0  0  0  0  0  0  0  0
    4.4136   -1.0781    0.7638 H   0  0  0  0  0  0  0  0  0  0  0  0
    4.4524   -0.4484   -0.8901 H   0  0  0  0  0  0  0  0  0  0  0  0
    2.0175   -0.0244   -0.8211 H   0  0  0  0  0  0  0  0  0  0  0  0
    2.1083   -0.9179    2.1047 H   0  0  0  0  0  0  0  0  0  0  0  0
    1.3351   -1.7687    0.7588 H   0  0  0  0  0  0  0  0  0  0  0  0
    0.7224   -0.1916    1.2785 H   0  0  0  0  0  0  0  0  0  0  0  0
    1.9973    2.2437   -1.1391 H   0  0  0  0  0  0  0  0  0  0  0  0
    2.4601    4.4983   -0.4578 H   0  0  0  0  0  0  0  0  0  0  0  0
    4.2050    5.3331    2.7698 H   0  0  0  0  0  0  0  0  0  0  0  0
    4.9170    9.8674    4.4565 H   0  0  0  0  0  0  0  0  0  0  0  0
    1.6450    9.3907    0.6994 H   0  0  0  0  0  0  0  0  0  0  0  0
    2.9185    8.8278   -0.3800 H   0  0  0  0  0  0  0  0  0  0  0  0
    4.1000   11.0042   -0.1978 H   0  0  0  0  0  0  0  0  0  0  0  0
    2.8339   11.6189    0.8556 H   0  0  0  0  0  0  0  0  0  0  0  0
    0.3398   12.2633   -0.3700 H   0  0  0  0  0  0  0  0  0  0  0  0
    3.3628   10.7179   -3.0277 H   0  0  0  0  0  0  0  0  0  0  0  0
    4.4036    3.0360    3.1184 H   0  0  0  0  0  0  0  0  0  0  0  0
    3.9342    0.7441    2.4089 H   0  0  0  0  0  0  0  0  0  0  0  0
  1  2  1  0  0  0  0
  1 25  1  0  0  0  0
  1 26  1  0  0  0  0
  1 27  1  0  0  0  0
  2  3  1  0  0  0  0
  2  4  1  0  0  0  0
  2 28  1  0  0  0  0
  3 29  1  0  0  0  0
  3 30  1  0  0  0  0
  3 31  1  0  0  0  0
  4  5  1  0  0  0  0
  4 24  2  0  0  0  0
  5  6  2  0  0  0  0
  5 32  1  0  0  0  0
  6  7  1  0  0  0  0
  6 33  1  0  0  0  0
  7  8  1  0  0  0  0
  7 23  2  0  0  0  0
  8  9  1  0  0  0  0
  8 34  1  0  0  0  0
  9 10  2  0  0  0  0
  9 11  1  0  0  0  0
 11 12  1  0  0  0  0
 11 15  2  0  0  0  0
 12 13  1  0  0  0  0
 13 14  2  0  0  0  0
 13 35  1  0  0  0  0
 14 15  1  0  0  0  0
 15 16  1  0  0  0  0
 16 17  1  0  0  0  0
 16 36  1  0  0  0  0
 16 37  1  0  0  0  0
 17 18  1  0  0  0  0
 17 38  1  0  0  0  0
 17 39  1  0  0  0  0
 18 19  1  0  0  0  0
 18 22  2  0  0  0  0
 19 20  2  0  0  0  0
 19 40  1  0  0  0  0
 20 21  1  0  0  0  0
 21 22  1  0  0  0  0
 22 41  1  0  0  0  0
 23 24  1  0  0  0  0
 23 42  1  0  0  0  0
 24 43  1  0  0  0  0
M  END
$$$$
