CHEMBL45015
 OpenBabel04072215383D

 35 37  0  0  0  0  0  0  0  0999 V2000
    2.1176    1.2197    1.2224 C   0  0  0  0  0  0  0  0  0  0  0  0
    0.9903    0.4511    0.6020 C   0  0  0  0  0  0  0  0  0  0  0  0
   -0.0718    1.0797   -0.0438 C   0  0  0  0  0  0  0  0  0  0  0  0
   -1.0957    0.3192   -0.6209 C   0  0  0  0  0  0  0  0  0  0  0  0
   -2.2498    0.9901   -1.3056 C   0  0  0  0  0  0  0  0  0  0  0  0
   -1.0266   -1.0853   -0.5744 C   0  0  0  0  0  0  0  0  0  0  0  0
    0.0554   -1.7434    0.0278 C   0  0  0  0  0  0  0  0  0  0  0  0
    0.1252   -3.1457   -0.0068 N   0  0  0  0  0  0  0  0  0  0  0  0
    1.2026   -4.0003    0.2333 C   0  0  0  0  0  0  0  0  0  0  0  0
    2.3082   -3.5608    0.8455 N   0  0  0  0  0  0  0  0  0  0  0  0
    3.3326   -4.4088    1.0029 C   0  0  0  0  0  0  0  0  0  0  0  0
    3.2915   -5.7075    0.5837 C   0  0  0  0  0  0  0  0  0  0  0  0
    2.1196   -6.1067   -0.0343 C   0  0  0  0  0  0  0  0  0  0  0  0
    1.9985   -7.4504   -0.5066 N   0  0  0  0  0  0  0  0  0  0  0  0
    2.9276   -8.4669   -0.3277 C   0  0  0  0  0  0  0  0  0  0  0  0
    2.3927   -9.5920   -0.9077 C   0  0  0  0  0  0  0  0  0  0  0  0
    1.1805   -9.3190   -1.4640 N   0  0  0  0  0  0  0  0  0  0  0  0
    0.9730   -8.0443   -1.2195 C   0  0  0  0  0  0  0  0  0  0  0  0
   -0.4050   -7.2158   -1.7926 Cl  0  0  0  0  0  0  0  0  0  0  0  0
    1.0790   -5.2608   -0.2052 N   0  0  0  0  0  0  0  0  0  0  0  0
    1.0233   -0.9477    0.6507 C   0  0  0  0  0  0  0  0  0  0  0  0
    1.9777    2.2987    1.1191 H   0  0  0  0  0  0  0  0  0  0  0  0
    3.0612    0.9522    0.7329 H   0  0  0  0  0  0  0  0  0  0  0  0
    2.1938    0.9838    2.2890 H   0  0  0  0  0  0  0  0  0  0  0  0
   -0.1025    2.1653   -0.0972 H   0  0  0  0  0  0  0  0  0  0  0  0
   -2.1640    2.0809   -1.2584 H   0  0  0  0  0  0  0  0  0  0  0  0
   -3.1911    0.7069   -0.8243 H   0  0  0  0  0  0  0  0  0  0  0  0
   -2.2805    0.7019   -2.3611 H   0  0  0  0  0  0  0  0  0  0  0  0
   -1.8220   -1.6659   -1.0367 H   0  0  0  0  0  0  0  0  0  0  0  0
   -0.5642   -3.6214   -0.5706 H   0  0  0  0  0  0  0  0  0  0  0  0
    4.2073   -3.9892    1.4891 H   0  0  0  0  0  0  0  0  0  0  0  0
    4.1560   -6.3341    0.7391 H   0  0  0  0  0  0  0  0  0  0  0  0
    3.8621   -8.3354    0.1948 H   0  0  0  0  0  0  0  0  0  0  0  0
    2.8267  -10.5830   -0.9516 H   0  0  0  0  0  0  0  0  0  0  0  0
    1.8509   -1.4003    1.1856 H   0  0  0  0  0  0  0  0  0  0  0  0
  1  2  1  0  0  0  0
  1 22  1  0  0  0  0
  1 23  1  0  0  0  0
  1 24  1  0  0  0  0
  2  3  1  0  0  0  0
  2 21  2  0  0  0  0
  3  4  2  0  0  0  0
  3 25  1  0  0  0  0
  4  5  1  0  0  0  0
  4  6  1  0  0  0  0
  5 26  1  0  0  0  0
  5 27  1  0  0  0  0
  5 28  1  0  0  0  0
  6  7  2  0  0  0  0
  6 29  1  0  0  0  0
  7  8  1  0  0  0  0
  7 21  1  0  0  0  0
  8  9  1  0  0  0  0
  8 30  1  0  0  0  0
  9 10  1  0  0  0  0
  9 20  2  0  0  0  0
 10 11  2  0  0  0  0
 11 12  1  0  0  0  0
 11 31  1  0  0  0  0
 12 13  2  0  0  0  0
 12 32  1  0  0  0  0
 13 14  1  0  0  0  0
 13 20  1  0  0  0  0
 14 15  1  0  0  0  0
 14 18  1  0  0  0  0
 15 16  2  0  0  0  0
 15 33  1  0  0  0  0
 16 17  1  0  0  0  0
 16 34  1  0  0  0  0
 17 18  2  0  0  0  0
 18 19  1  0  0  0  0
 21 35  1  0  0  0  0
M  END
$$$$
