CHEMBL272822
 OpenBabel04072215363D

 57 61  0  0  0  0  0  0  0  0999 V2000
   10.7769   -1.2831    1.2481 C   0  0  0  0  0  0  0  0  0  0  0  0
    9.9601   -1.7955    2.3062 O   0  0  0  0  0  0  0  0  0  0  0  0
    9.1206   -2.8239    1.9610 C   0  0  0  0  0  0  0  0  0  0  0  0
    9.4785   -3.7417    0.9608 C   0  0  0  0  0  0  0  0  0  0  0  0
    8.6123   -4.7145    0.4913 C   0  0  0  0  0  0  0  0  0  0  0  0
    9.0294   -5.4768   -0.5319 N   0  0  0  0  0  0  0  0  0  0  0  0
    8.1863   -6.4040   -1.0212 C   0  0  0  0  0  0  0  0  0  0  0  0
    6.9163   -6.6120   -0.5340 C   0  0  0  0  0  0  0  0  0  0  0  0
    6.4667   -5.7845    0.4930 C   0  0  0  0  0  0  0  0  0  0  0  0
    5.1740   -5.8843    0.9735 O   0  0  0  0  0  0  0  0  0  0  0  0
    4.1466   -6.0980    0.0746 C   0  0  0  0  0  0  0  0  0  0  0  0
    3.0836   -6.8781    0.5164 C   0  0  0  0  0  0  0  0  0  0  0  0
    1.9833   -7.1183   -0.3205 C   0  0  0  0  0  0  0  0  0  0  0  0
    1.9002   -6.5669   -1.6092 C   0  0  0  0  0  0  0  0  0  0  0  0
    3.0005   -5.8006   -2.0461 C   0  0  0  0  0  0  0  0  0  0  0  0
    4.0970   -5.5516   -1.2083 C   0  0  0  0  0  0  0  0  0  0  0  0
    3.1024   -5.2350   -3.2953 O   0  0  0  0  0  0  0  0  0  0  0  0
    1.8346   -5.0772   -3.9274 C   0  0  0  0  0  0  0  0  0  0  0  0
    1.0283   -6.3626   -3.8772 C   0  0  0  0  0  0  0  0  0  0  0  0
    0.7556   -6.7425   -2.4820 N   0  0  0  0  0  0  0  0  0  0  0  0
   -0.5087   -7.0947   -1.9823 C   0  0  0  0  0  0  0  0  0  0  0  0
   -0.7192   -7.2606   -0.7824 O   0  0  0  0  0  0  0  0  0  0  0  0
   -1.5254   -7.2059   -2.9156 N   0  0  0  0  0  0  0  0  0  0  0  0
   -2.8990   -7.4214   -2.6282 C   0  0  0  0  0  0  0  0  0  0  0  0
   -3.4524   -7.3265   -1.3382 C   0  0  0  0  0  0  0  0  0  0  0  0
   -4.7930   -7.6402   -1.1101 C   0  0  0  0  0  0  0  0  0  0  0  0
   -5.5969   -8.0253   -2.1692 C   0  0  0  0  0  0  0  0  0  0  0  0
   -6.8737   -8.3581   -1.9440 F   0  0  0  0  0  0  0  0  0  0  0  0
   -5.0912   -8.0696   -3.4622 C   0  0  0  0  0  0  0  0  0  0  0  0
   -3.7448   -7.7606   -3.6921 C   0  0  0  0  0  0  0  0  0  0  0  0
    7.3398   -4.8348    1.0739 C   0  0  0  0  0  0  0  0  0  0  0  0
    7.0226   -3.9976    2.1697 C   0  0  0  0  0  0  0  0  0  0  0  0
    7.8945   -2.9866    2.6150 C   0  0  0  0  0  0  0  0  0  0  0  0
    7.3706   -2.2748    3.6589 O   0  0  0  0  0  0  0  0  0  0  0  0
    8.0064   -1.0804    4.0866 C   0  0  0  0  0  0  0  0  0  0  0  0
   10.8717   -0.2014    1.3817 H   0  0  0  0  0  0  0  0  0  0  0  0
   10.3534   -1.4403    0.2481 H   0  0  0  0  0  0  0  0  0  0  0  0
   11.7756   -1.7271    1.3095 H   0  0  0  0  0  0  0  0  0  0  0  0
   10.4607   -3.6977    0.4974 H   0  0  0  0  0  0  0  0  0  0  0  0
    8.5674   -6.9834   -1.8568 H   0  0  0  0  0  0  0  0  0  0  0  0
    6.2867   -7.3769   -0.9741 H   0  0  0  0  0  0  0  0  0  0  0  0
    3.0991   -7.3087    1.5147 H   0  0  0  0  0  0  0  0  0  0  0  0
    1.2085   -7.7701    0.0756 H   0  0  0  0  0  0  0  0  0  0  0  0
    4.8970   -4.9142   -1.5742 H   0  0  0  0  0  0  0  0  0  0  0  0
    2.0212   -4.7982   -4.9705 H   0  0  0  0  0  0  0  0  0  0  0  0
    1.2967   -4.2433   -3.4546 H   0  0  0  0  0  0  0  0  0  0  0  0
    1.5870   -7.1932   -4.3246 H   0  0  0  0  0  0  0  0  0  0  0  0
    0.1151   -6.2166   -4.4556 H   0  0  0  0  0  0  0  0  0  0  0  0
   -1.2602   -7.3772   -3.8704 H   0  0  0  0  0  0  0  0  0  0  0  0
   -2.8644   -7.0117   -0.4860 H   0  0  0  0  0  0  0  0  0  0  0  0
   -5.1998   -7.5962   -0.1038 H   0  0  0  0  0  0  0  0  0  0  0  0
   -5.7447   -8.3567   -4.2798 H   0  0  0  0  0  0  0  0  0  0  0  0
   -3.3717   -7.8066   -4.7112 H   0  0  0  0  0  0  0  0  0  0  0  0
    6.0658   -4.1153    2.6781 H   0  0  0  0  0  0  0  0  0  0  0  0
    7.2967   -0.5515    4.7326 H   0  0  0  0  0  0  0  0  0  0  0  0
    8.2305   -0.4072    3.2544 H   0  0  0  0  0  0  0  0  0  0  0  0
    8.8944   -1.3012    4.6869 H   0  0  0  0  0  0  0  0  0  0  0  0
  1  2  1  0  0  0  0
  1 36  1  0  0  0  0
  1 37  1  0  0  0  0
  1 38  1  0  0  0  0
  2  3  1  0  0  0  0
  3  4  1  0  0  0  0
  3 33  2  0  0  0  0
  4  5  2  0  0  0  0
  4 39  1  0  0  0  0
  5  6  1  0  0  0  0
  5 31  1  0  0  0  0
  6  7  2  0  0  0  0
  7  8  1  0  0  0  0
  7 40  1  0  0  0  0
  8  9  2  0  0  0  0
  8 41  1  0  0  0  0
  9 10  1  0  0  0  0
  9 31  1  0  0  0  0
 10 11  1  0  0  0  0
 11 12  1  0  0  0  0
 11 16  2  0  0  0  0
 12 13  2  0  0  0  0
 12 42  1  0  0  0  0
 13 14  1  0  0  0  0
 13 43  1  0  0  0  0
 14 15  2  0  0  0  0
 14 20  1  0  0  0  0
 15 16  1  0  0  0  0
 15 17  1  0  0  0  0
 16 44  1  0  0  0  0
 17 18  1  0  0  0  0
 18 19  1  0  0  0  0
 18 45  1  0  0  0  0
 18 46  1  0  0  0  0
 19 20  1  0  0  0  0
 19 47  1  0  0  0  0
 19 48  1  0  0  0  0
 20 21  1  0  0  0  0
 21 22  2  0  0  0  0
 21 23  1  0  0  0  0
 23 24  1  0  0  0  0
 23 49  1  0  0  0  0
 24 25  1  0  0  0  0
 24 30  2  0  0  0  0
 25 26  2  0  0  0  0
 25 50  1  0  0  0  0
 26 27  1  0  0  0  0
 26 51  1  0  0  0  0
 27 28  1  0  0  0  0
 27 29  2  0  0  0  0
 29 30  1  0  0  0  0
 29 52  1  0  0  0  0
 30 53  1  0  0  0  0
 31 32  2  0  0  0  0
 32 33  1  0  0  0  0
 32 54  1  0  0  0  0
 33 34  1  0  0  0  0
 34 35  1  0  0  0  0
 35 55  1  0  0  0  0
 35 56  1  0  0  0  0
 35 57  1  0  0  0  0
M  END
$$$$
