CHEMBL176309
 OpenBabel04072215363D

 36 39  0  0  0  0  0  0  0  0999 V2000
    1.1885    0.2794    0.0579 N   0  0  0  0  0  0  0  0  0  0  0  0
    2.5643    0.0892    0.0292 C   0  0  0  0  0  0  0  0  0  0  0  0
    3.2965    1.2166    0.0746 N   0  0  0  0  0  0  0  0  0  0  0  0
    4.6332    1.1120    0.0760 C   0  0  0  0  0  0  0  0  0  0  0  0
    5.3611   -0.0069    0.0611 N   0  0  0  0  0  0  0  0  0  0  0  0
    4.6083   -1.1234    0.0059 C   0  0  0  0  0  0  0  0  0  0  0  0
    3.2117   -1.1618   -0.0394 C   0  0  0  0  0  0  0  0  0  0  0  0
    2.8326   -2.5420   -0.1560 C   0  0  0  0  0  0  0  0  0  0  0  0
    1.5257   -3.1948   -0.2532 C   0  0  0  0  0  0  0  0  0  0  0  0
    0.4663   -2.5900   -0.9414 C   0  0  0  0  0  0  0  0  0  0  0  0
   -0.7953   -3.1906   -1.0003 C   0  0  0  0  0  0  0  0  0  0  0  0
   -0.9996   -4.4401   -0.4218 C   0  0  0  0  0  0  0  0  0  0  0  0
    0.0579   -5.0770    0.2201 C   0  0  0  0  0  0  0  0  0  0  0  0
   -0.1734   -6.6487    0.8840 Cl  0  0  0  0  0  0  0  0  0  0  0  0
    1.3064   -4.4583    0.3219 C   0  0  0  0  0  0  0  0  0  0  0  0
    4.0120   -3.2689   -0.2070 C   0  0  0  0  0  0  0  0  0  0  0  0
    5.0940   -2.4199   -0.0863 N   0  0  0  0  0  0  0  0  0  0  0  0
    6.4604   -2.8359   -0.0871 C   0  0  0  0  0  0  0  0  0  0  0  0
    6.8362   -4.0124   -0.7561 C   0  0  0  0  0  0  0  0  0  0  0  0
    8.1777   -4.4038   -0.7909 C   0  0  0  0  0  0  0  0  0  0  0  0
    9.1463   -3.6459   -0.1363 C   0  0  0  0  0  0  0  0  0  0  0  0
    8.7774   -2.4921    0.5508 C   0  0  0  0  0  0  0  0  0  0  0  0
    7.4418   -2.0824    0.5703 C   0  0  0  0  0  0  0  0  0  0  0  0
    0.9883    1.2423    0.3060 H   0  0  0  0  0  0  0  0  0  0  0  0
    0.6956   -0.4179    0.5998 H   0  0  0  0  0  0  0  0  0  0  0  0
    5.1878    2.0462    0.0962 H   0  0  0  0  0  0  0  0  0  0  0  0
    0.6075   -1.6421   -1.4557 H   0  0  0  0  0  0  0  0  0  0  0  0
   -1.6112   -2.6845   -1.5111 H   0  0  0  0  0  0  0  0  0  0  0  0
   -1.9752   -4.9146   -0.4859 H   0  0  0  0  0  0  0  0  0  0  0  0
    2.1046   -4.9735    0.8502 H   0  0  0  0  0  0  0  0  0  0  0  0
    4.1612   -4.3383   -0.2802 H   0  0  0  0  0  0  0  0  0  0  0  0
    6.1171   -4.6115   -1.3077 H   0  0  0  0  0  0  0  0  0  0  0  0
    8.4684   -5.2950   -1.3416 H   0  0  0  0  0  0  0  0  0  0  0  0
   10.1887   -3.9520   -0.1647 H   0  0  0  0  0  0  0  0  0  0  0  0
    9.5298   -1.9060    1.0732 H   0  0  0  0  0  0  0  0  0  0  0  0
    7.1904   -1.1875    1.1337 H   0  0  0  0  0  0  0  0  0  0  0  0
  1  2  1  0  0  0  0
  1 24  1  0  0  0  0
  1 25  1  0  0  0  0
  2  3  1  0  0  0  0
  2  7  2  0  0  0  0
  3  4  2  0  0  0  0
  4  5  1  0  0  0  0
  4 26  1  0  0  0  0
  5  6  2  0  0  0  0
  6  7  1  0  0  0  0
  6 17  1  0  0  0  0
  7  8  1  0  0  0  0
  8  9  1  0  0  0  0
  8 16  2  0  0  0  0
  9 10  1  0  0  0  0
  9 15  2  0  0  0  0
 10 11  2  0  0  0  0
 10 27  1  0  0  0  0
 11 12  1  0  0  0  0
 11 28  1  0  0  0  0
 12 13  2  0  0  0  0
 12 29  1  0  0  0  0
 13 14  1  0  0  0  0
 13 15  1  0  0  0  0
 15 30  1  0  0  0  0
 16 17  1  0  0  0  0
 16 31  1  0  0  0  0
 17 18  1  0  0  0  0
 18 19  1  0  0  0  0
 18 23  2  0  0  0  0
 19 20  2  0  0  0  0
 19 32  1  0  0  0  0
 20 21  1  0  0  0  0
 20 33  1  0  0  0  0
 21 22  2  0  0  0  0
 21 34  1  0  0  0  0
 22 23  1  0  0  0  0
 22 35  1  0  0  0  0
 23 36  1  0  0  0  0
M  END
$$$$
