CHEMBL3589749
 OpenBabel04072215363D

 43 46  0  0  0  0  0  0  0  0999 V2000
    2.3967   -1.0186   -0.5036 O   0  0  0  0  0  0  0  0  0  0  0  0
    1.9934   -0.1510    0.2627 C   0  0  0  0  0  0  0  0  0  0  0  0
    0.6664    0.1856    0.3966 N   0  0  0  0  0  0  0  0  0  0  0  0
   -0.4018   -0.2949   -0.3987 C   0  0  0  0  0  0  0  0  0  0  0  0
   -0.2433   -1.1209   -1.5274 C   0  0  0  0  0  0  0  0  0  0  0  0
   -1.3514   -1.5085   -2.2836 C   0  0  0  0  0  0  0  0  0  0  0  0
   -2.6246   -1.0979   -1.9069 C   0  0  0  0  0  0  0  0  0  0  0  0
   -3.9897   -1.5681   -2.8406 Cl  0  0  0  0  0  0  0  0  0  0  0  0
   -2.7965   -0.2998   -0.7805 C   0  0  0  0  0  0  0  0  0  0  0  0
   -1.6882    0.1020   -0.0316 C   0  0  0  0  0  0  0  0  0  0  0  0
    2.8103    0.6253    1.0837 N   0  0  0  0  0  0  0  0  0  0  0  0
    4.2172    0.6701    0.9761 C   0  0  0  0  0  0  0  0  0  0  0  0
    4.8441    0.1636   -0.1468 C   0  0  0  0  0  0  0  0  0  0  0  0
    6.2162    0.1509   -0.2291 C   0  0  0  0  0  0  0  0  0  0  0  0
    7.0273    0.8156    0.6934 C   0  0  0  0  0  0  0  0  0  0  0  0
    8.4174    0.9089    0.4336 N   0  0  0  0  0  0  0  0  0  0  0  0
    8.7063    1.2548   -0.7953 C   0  0  0  0  0  0  0  0  0  0  0  0
    7.9880    2.3555   -1.6228 C   0  0  0  0  0  0  0  0  0  0  0  0
    7.6453    3.4428   -1.2165 O   0  0  0  0  0  0  0  0  0  0  0  0
    7.7616    1.7988   -2.8650 N   0  0  0  0  0  0  0  0  0  0  0  0
    8.2480    0.4958   -2.9081 C   0  0  0  0  0  0  0  0  0  0  0  0
    7.7821   -0.5077   -3.7382 C   0  0  0  0  0  0  0  0  0  0  0  0
    8.1490   -1.8206   -3.4194 C   0  0  0  0  0  0  0  0  0  0  0  0
    9.0121   -2.0864   -2.3410 C   0  0  0  0  0  0  0  0  0  0  0  0
    9.3039   -3.3589   -2.0438 F   0  0  0  0  0  0  0  0  0  0  0  0
    9.4738   -1.0755   -1.5044 C   0  0  0  0  0  0  0  0  0  0  0  0
    9.0451    0.2078   -1.7899 C   0  0  0  0  0  0  0  0  0  0  0  0
    6.4161    1.3143    1.8391 C   0  0  0  0  0  0  0  0  0  0  0  0
    5.0117    1.2324    1.9873 C   0  0  0  0  0  0  0  0  0  0  0  0
    0.4312    0.8354    1.1259 H   0  0  0  0  0  0  0  0  0  0  0  0
    0.7308   -1.4519   -1.8677 H   0  0  0  0  0  0  0  0  0  0  0  0
   -1.2149   -2.1370   -3.1609 H   0  0  0  0  0  0  0  0  0  0  0  0
   -3.7891    0.0226   -0.4799 H   0  0  0  0  0  0  0  0  0  0  0  0
   -1.8471    0.7256    0.8440 H   0  0  0  0  0  0  0  0  0  0  0  0
    2.3981    1.0705    1.8874 H   0  0  0  0  0  0  0  0  0  0  0  0
    4.3121   -0.2348   -1.0020 H   0  0  0  0  0  0  0  0  0  0  0  0
    6.6259   -0.3839   -1.0708 H   0  0  0  0  0  0  0  0  0  0  0  0
    7.1370    2.2263   -3.5339 H   0  0  0  0  0  0  0  0  0  0  0  0
    7.0340   -0.3168   -4.5017 H   0  0  0  0  0  0  0  0  0  0  0  0
    7.7072   -2.6591   -3.9532 H   0  0  0  0  0  0  0  0  0  0  0  0
   10.0102   -1.3082   -0.5928 H   0  0  0  0  0  0  0  0  0  0  0  0
    7.0248    1.7603    2.6206 H   0  0  0  0  0  0  0  0  0  0  0  0
    4.5634    1.6115    2.9011 H   0  0  0  0  0  0  0  0  0  0  0  0
  1  2  2  0  0  0  0
  2  3  1  0  0  0  0
  2 11  1  0  0  0  0
  3  4  1  0  0  0  0
  3 30  1  0  0  0  0
  4  5  1  0  0  0  0
  4 10  2  0  0  0  0
  5  6  2  0  0  0  0
  5 31  1  0  0  0  0
  6  7  1  0  0  0  0
  6 32  1  0  0  0  0
  7  8  1  0  0  0  0
  7  9  2  0  0  0  0
  9 10  1  0  0  0  0
  9 33  1  0  0  0  0
 10 34  1  0  0  0  0
 11 12  1  0  0  0  0
 11 35  1  0  0  0  0
 12 13  1  0  0  0  0
 12 29  2  0  0  0  0
 13 14  2  0  0  0  0
 13 36  1  0  0  0  0
 14 15  1  0  0  0  0
 14 37  1  0  0  0  0
 15 16  1  0  0  0  0
 15 28  2  0  0  0  0
 16 17  2  0  0  0  0
 17 18  1  0  0  0  0
 17 27  1  0  0  0  0
 18 19  2  0  0  0  0
 18 20  1  0  0  0  0
 20 21  1  0  0  0  0
 20 38  1  0  0  0  0
 21 22  1  0  0  0  0
 21 27  2  0  0  0  0
 22 23  2  0  0  0  0
 22 39  1  0  0  0  0
 23 24  1  0  0  0  0
 23 40  1  0  0  0  0
 24 25  1  0  0  0  0
 24 26  2  0  0  0  0
 26 27  1  0  0  0  0
 26 41  1  0  0  0  0
 28 29  1  0  0  0  0
 28 42  1  0  0  0  0
 29 43  1  0  0  0  0
M  END
$$$$
