CHEMBL4469216
 OpenBabel04072215383D

 57 60  0  0  0  0  0  0  0  0999 V2000
   10.7236  -11.0141   -0.2047 C   0  0  0  0  0  0  0  0  0  0  0  0
    9.4031  -11.1703    0.5265 C   0  0  0  0  0  0  0  0  0  0  0  0
    8.4337  -10.3825   -0.1762 O   0  0  0  0  0  0  0  0  0  0  0  0
    8.3390   -9.0920    0.2220 C   0  0  0  0  0  0  0  0  0  0  0  0
    8.7214   -8.6192    1.2788 O   0  0  0  0  0  0  0  0  0  0  0  0
    7.7666   -8.2827   -0.8772 C   0  0  0  0  0  0  0  0  0  0  0  0
    7.9050   -8.6803   -2.2126 C   0  0  0  0  0  0  0  0  0  0  0  0
    7.4157   -7.8676   -3.2346 C   0  0  0  0  0  0  0  0  0  0  0  0
    6.7636   -6.6628   -2.9410 C   0  0  0  0  0  0  0  0  0  0  0  0
    6.3282   -5.7839   -3.9650 N   0  0  0  0  0  0  0  0  0  0  0  0
    5.7661   -6.2305   -5.1883 C   0  0  0  0  0  0  0  0  0  0  0  0
    5.8043   -5.3998   -6.2899 C   0  0  0  0  0  0  0  0  0  0  0  0
    5.2075   -5.8743   -7.4344 C   0  0  0  0  0  0  0  0  0  0  0  0
    4.5814   -7.0586   -7.5069 N   0  0  0  0  0  0  0  0  0  0  0  0
    4.5373   -7.7708   -6.3737 C   0  0  0  0  0  0  0  0  0  0  0  0
    3.6797   -9.3237   -6.4159 S   0  0  0  0  0  0  0  0  0  0  0  0
    3.1789   -9.4305   -4.6670 C   0  0  0  0  0  0  0  0  0  0  0  0
    2.2791   -8.2729   -4.2545 C   0  0  0  0  0  0  0  0  0  0  0  0
    1.4851   -7.7420   -5.0331 O   0  0  0  0  0  0  0  0  0  0  0  0
    2.2559   -7.8378   -2.8306 C   0  0  0  0  0  0  0  0  0  0  0  0
    3.3204   -8.0197   -1.9451 C   0  0  0  0  0  0  0  0  0  0  0  0
    3.2206   -7.5793   -0.6140 C   0  0  0  0  0  0  0  0  0  0  0  0
    2.0693   -6.9308   -0.1276 C   0  0  0  0  0  0  0  0  0  0  0  0
    1.9641   -6.4550    1.2745 C   0  0  0  0  0  0  0  0  0  0  0  0
    3.0885   -6.0106    1.9968 C   0  0  0  0  0  0  0  0  0  0  0  0
    2.9786   -5.5497    3.3142 C   0  0  0  0  0  0  0  0  0  0  0  0
    1.7373   -5.5108    3.9405 C   0  0  0  0  0  0  0  0  0  0  0  0
    0.6086   -5.9427    3.2545 C   0  0  0  0  0  0  0  0  0  0  0  0
    0.7244   -6.4159    1.9434 C   0  0  0  0  0  0  0  0  0  0  0  0
    1.0175   -6.7451   -1.0402 C   0  0  0  0  0  0  0  0  0  0  0  0
    1.1034   -7.1921   -2.3640 C   0  0  0  0  0  0  0  0  0  0  0  0
    5.1240   -7.4117   -5.2225 N   0  0  0  0  0  0  0  0  0  0  0  0
    6.6773   -6.2483   -1.6067 C   0  0  0  0  0  0  0  0  0  0  0  0
    7.1673   -7.0570   -0.5770 C   0  0  0  0  0  0  0  0  0  0  0  0
   11.5096  -11.6172    0.2540 H   0  0  0  0  0  0  0  0  0  0  0  0
   11.0397   -9.9647   -0.2120 H   0  0  0  0  0  0  0  0  0  0  0  0
   10.6119  -11.3100   -1.2542 H   0  0  0  0  0  0  0  0  0  0  0  0
    9.4865  -10.8828    1.5801 H   0  0  0  0  0  0  0  0  0  0  0  0
    9.0724  -12.2135    0.4921 H   0  0  0  0  0  0  0  0  0  0  0  0
    8.4145   -9.6054   -2.4752 H   0  0  0  0  0  0  0  0  0  0  0  0
    7.5555   -8.1845   -4.2659 H   0  0  0  0  0  0  0  0  0  0  0  0
    7.0753   -5.1189   -4.1463 H   0  0  0  0  0  0  0  0  0  0  0  0
    6.2893   -4.4339   -6.2745 H   0  0  0  0  0  0  0  0  0  0  0  0
    5.2125   -5.2956   -8.3535 H   0  0  0  0  0  0  0  0  0  0  0  0
    4.0779   -9.5112   -4.0555 H   0  0  0  0  0  0  0  0  0  0  0  0
    2.6041  -10.3529   -4.5330 H   0  0  0  0  0  0  0  0  0  0  0  0
    4.2549   -8.4738   -2.2579 H   0  0  0  0  0  0  0  0  0  0  0  0
    4.0692   -7.7557    0.0426 H   0  0  0  0  0  0  0  0  0  0  0  0
    4.0740   -6.0011    1.5370 H   0  0  0  0  0  0  0  0  0  0  0  0
    3.8650   -5.2157    3.8472 H   0  0  0  0  0  0  0  0  0  0  0  0
    1.6493   -5.1454    4.9599 H   0  0  0  0  0  0  0  0  0  0  0  0
   -0.3660   -5.9163    3.7353 H   0  0  0  0  0  0  0  0  0  0  0  0
   -0.1803   -6.7645    1.4509 H   0  0  0  0  0  0  0  0  0  0  0  0
    0.1069   -6.2298   -0.7422 H   0  0  0  0  0  0  0  0  0  0  0  0
    0.2588   -7.0290   -3.0320 H   0  0  0  0  0  0  0  0  0  0  0  0
    6.2046   -5.2998   -1.3631 H   0  0  0  0  0  0  0  0  0  0  0  0
    7.0868   -6.7265    0.4564 H   0  0  0  0  0  0  0  0  0  0  0  0
  1  2  1  0  0  0  0
  1 35  1  0  0  0  0
  1 36  1  0  0  0  0
  1 37  1  0  0  0  0
  2  3  1  0  0  0  0
  2 38  1  0  0  0  0
  2 39  1  0  0  0  0
  3  4  1  0  0  0  0
  4  5  2  0  0  0  0
  4  6  1  0  0  0  0
  6  7  1  0  0  0  0
  6 34  2  0  0  0  0
  7  8  2  0  0  0  0
  7 40  1  0  0  0  0
  8  9  1  0  0  0  0
  8 41  1  0  0  0  0
  9 10  1  0  0  0  0
  9 33  2  0  0  0  0
 10 11  1  0  0  0  0
 10 42  1  0  0  0  0
 11 12  1  0  0  0  0
 11 32  2  0  0  0  0
 12 13  2  0  0  0  0
 12 43  1  0  0  0  0
 13 14  1  0  0  0  0
 13 44  1  0  0  0  0
 14 15  2  0  0  0  0
 15 16  1  0  0  0  0
 15 32  1  0  0  0  0
 16 17  1  0  0  0  0
 17 18  1  0  0  0  0
 17 45  1  0  0  0  0
 17 46  1  0  0  0  0
 18 19  2  0  0  0  0
 18 20  1  0  0  0  0
 20 21  1  0  0  0  0
 20 31  2  0  0  0  0
 21 22  2  0  0  0  0
 21 47  1  0  0  0  0
 22 23  1  0  0  0  0
 22 48  1  0  0  0  0
 23 24  1  0  0  0  0
 23 30  2  0  0  0  0
 24 25  1  0  0  0  0
 24 29  2  0  0  0  0
 25 26  2  0  0  0  0
 25 49  1  0  0  0  0
 26 27  1  0  0  0  0
 26 50  1  0  0  0  0
 27 28  2  0  0  0  0
 27 51  1  0  0  0  0
 28 29  1  0  0  0  0
 28 52  1  0  0  0  0
 29 53  1  0  0  0  0
 30 31  1  0  0  0  0
 30 54  1  0  0  0  0
 31 55  1  0  0  0  0
 33 34  1  0  0  0  0
 33 56  1  0  0  0  0
 34 57  1  0  0  0  0
M  END
$$$$
