CHEMBL3937949
 OpenBabel04072215373D

 31 33  0  0  0  0  0  0  0  0999 V2000
    1.0960    0.2027   -0.1863 O   0  0  0  0  0  0  0  0  0  0  0  0
    2.2967    0.0811   -0.0235 C   0  0  0  0  0  0  0  0  0  0  0  0
    3.1086   -0.5551   -0.8959 O   0  0  0  0  0  0  0  0  0  0  0  0
    3.0063    0.5651    1.1832 C   0  0  0  0  0  0  0  0  0  0  0  0
    2.3557    0.4591    2.4087 C   0  0  0  0  0  0  0  0  0  0  0  0
    2.9903    0.8960    3.5729 C   0  0  0  0  0  0  0  0  0  0  0  0
    4.2582    1.4941    3.5450 C   0  0  0  0  0  0  0  0  0  0  0  0
    4.9823    1.8475    4.7074 N   0  0  0  0  0  0  0  0  0  0  0  0
    4.5834    1.7801    6.0662 C   0  0  0  0  0  0  0  0  0  0  0  0
    3.2739    1.6638    6.3814 N   0  0  0  0  0  0  0  0  0  0  0  0
    2.8557    1.4034    7.6487 N   0  0  0  0  0  0  0  0  0  0  0  0
    3.7732    1.2992    8.6195 C   0  0  0  0  0  0  0  0  0  0  0  0
    5.1279    1.4912    8.4011 C   0  0  0  0  0  0  0  0  0  0  0  0
    6.0423    1.4360    9.4653 C   0  0  0  0  0  0  0  0  0  0  0  0
    7.4046    1.6149    9.2393 C   0  0  0  0  0  0  0  0  0  0  0  0
    7.8686    1.8142    7.9449 C   0  0  0  0  0  0  0  0  0  0  0  0
    6.9669    1.8605    6.8772 C   0  0  0  0  0  0  0  0  0  0  0  0
    5.5693    1.7279    7.0819 C   0  0  0  0  0  0  0  0  0  0  0  0
    4.8992    1.5904    2.2980 C   0  0  0  0  0  0  0  0  0  0  0  0
    4.2815    1.1356    1.1242 C   0  0  0  0  0  0  0  0  0  0  0  0
    3.9953   -0.7567   -0.5459 H   0  0  0  0  0  0  0  0  0  0  0  0
    1.3591    0.0274    2.4736 H   0  0  0  0  0  0  0  0  0  0  0  0
    2.4453    0.7541    4.5005 H   0  0  0  0  0  0  0  0  0  0  0  0
    5.6726    2.5703    4.5582 H   0  0  0  0  0  0  0  0  0  0  0  0
    3.3704    1.0417    9.5928 H   0  0  0  0  0  0  0  0  0  0  0  0
    5.6959    1.2592   10.4819 H   0  0  0  0  0  0  0  0  0  0  0  0
    8.1005    1.5906   10.0743 H   0  0  0  0  0  0  0  0  0  0  0  0
    8.9340    1.9320    7.7645 H   0  0  0  0  0  0  0  0  0  0  0  0
    7.3714    1.9994    5.8764 H   0  0  0  0  0  0  0  0  0  0  0  0
    5.9017    2.0064    2.2328 H   0  0  0  0  0  0  0  0  0  0  0  0
    4.7990    1.2519    0.1758 H   0  0  0  0  0  0  0  0  0  0  0  0
  1  2  2  0  0  0  0
  2  3  1  0  0  0  0
  2  4  1  0  0  0  0
  3 21  1  0  0  0  0
  4  5  1  0  0  0  0
  4 20  2  0  0  0  0
  5  6  2  0  0  0  0
  5 22  1  0  0  0  0
  6  7  1  0  0  0  0
  6 23  1  0  0  0  0
  7  8  1  0  0  0  0
  7 19  2  0  0  0  0
  8  9  1  0  0  0  0
  8 24  1  0  0  0  0
  9 10  1  0  0  0  0
  9 18  2  0  0  0  0
 10 11  2  0  0  0  0
 11 12  1  0  0  0  0
 12 13  2  0  0  0  0
 12 25  1  0  0  0  0
 13 14  1  0  0  0  0
 13 18  1  0  0  0  0
 14 15  2  0  0  0  0
 14 26  1  0  0  0  0
 15 16  1  0  0  0  0
 15 27  1  0  0  0  0
 16 17  2  0  0  0  0
 16 28  1  0  0  0  0
 17 18  1  0  0  0  0
 17 29  1  0  0  0  0
 19 20  1  0  0  0  0
 19 30  1  0  0  0  0
 20 31  1  0  0  0  0
M  END
$$$$
