CHEMBL3982668
 OpenBabel04072215373D

 67 70  0  0  0  0  0  0  0  0999 V2000
    0.6424    0.7727   -4.6699 C   0  0  0  0  0  0  0  0  0  0  0  0
    1.9261    0.2451   -4.7518 O   0  0  0  0  0  0  0  0  0  0  0  0
    2.8234    0.2116   -3.7217 C   0  0  0  0  0  0  0  0  0  0  0  0
    2.4614    0.6815   -2.4445 C   0  0  0  0  0  0  0  0  0  0  0  0
    3.3536    0.6454   -1.3696 C   0  0  0  0  0  0  0  0  0  0  0  0
    3.0132    1.0843   -0.1360 O   0  0  0  0  0  0  0  0  0  0  0  0
    1.7771    1.5921    0.2163 C   0  0  0  0  0  0  0  0  0  0  0  0
    4.6297    0.1217   -1.5884 C   0  0  0  0  0  0  0  0  0  0  0  0
    5.0417   -0.4011   -2.8415 C   0  0  0  0  0  0  0  0  0  0  0  0
    6.2873   -1.1417   -2.9325 N   0  0  0  0  0  0  0  0  0  0  0  0
    6.7701   -1.8543   -1.6877 C   0  0  0  0  0  0  0  0  0  0  0  0
    5.7507   -2.6987   -0.8633 C   0  0  0  0  0  0  0  0  0  0  0  0
    6.4064   -3.3839    0.2983 N   0  0  0  0  0  0  0  0  0  0  0  0
    7.2094   -4.5877   -0.0289 C   0  0  0  0  0  0  0  0  0  0  0  0
    6.3102   -5.7708   -0.4404 C   0  0  0  0  0  0  0  0  0  0  0  0
    5.3574   -6.0721    0.5650 O   0  0  0  0  0  0  0  0  0  0  0  0
    4.5579   -4.9373    0.8473 C   0  0  0  0  0  0  0  0  0  0  0  0
    5.4321   -3.7702    1.3411 C   0  0  0  0  0  0  0  0  0  0  0  0
    7.3192   -1.0677   -3.9873 C   0  0  0  0  0  0  0  0  0  0  0  0
    7.9820   -2.2776   -4.1801 C   0  0  0  0  0  0  0  0  0  0  0  0
    9.2555   -2.3351   -4.5920 C   0  0  0  0  0  0  0  0  0  0  0  0
    9.9017   -1.2149   -5.0042 C   0  0  0  0  0  0  0  0  0  0  0  0
   11.2198   -1.3216   -5.1246 N   0  0  0  0  0  0  0  0  0  0  0  0
   11.9507   -0.3422   -5.6320 C   0  0  0  0  0  0  0  0  0  0  0  0
   11.2942    0.6647   -6.3284 C   0  0  0  0  0  0  0  0  0  0  0  0
   12.0223    0.9466   -7.6420 C   0  0  0  0  0  0  0  0  0  0  0  0
   13.1138    0.1614   -8.0662 C   0  0  0  0  0  0  0  0  0  0  0  0
   13.3865    0.3850   -9.3504 N   0  0  0  0  0  0  0  0  0  0  0  0
   12.5477    1.3011   -9.7828 N   0  0  0  0  0  0  0  0  0  0  0  0
   12.4840    1.6334  -11.2005 C   0  0  0  0  0  0  0  0  0  0  0  0
   11.7162    1.7041   -8.7713 C   0  0  0  0  0  0  0  0  0  0  0  0
    9.9494    0.9262   -6.0242 N   0  0  0  0  0  0  0  0  0  0  0  0
    9.2420   -0.0032   -5.2336 C   0  0  0  0  0  0  0  0  0  0  0  0
    7.8954    0.1209   -4.6445 C   0  0  0  0  0  0  0  0  0  0  0  0
    4.1229   -0.3316   -3.9184 C   0  0  0  0  0  0  0  0  0  0  0  0
    1.9312   -1.8847    1.7107 Cl  0  0  0  0  0  0  0  0  0  0  0  0
    0.1260    0.6807   -5.6462 H   0  0  0  0  0  0  0  0  0  0  0  0
    0.6955    1.8510   -4.4073 H   0  0  0  0  0  0  0  0  0  0  0  0
    0.0375    0.2402   -3.9005 H   0  0  0  0  0  0  0  0  0  0  0  0
    1.4680    1.0758   -2.2822 H   0  0  0  0  0  0  0  0  0  0  0  0
    1.7801    1.8576    1.2920 H   0  0  0  0  0  0  0  0  0  0  0  0
    0.9811    0.8327    0.0459 H   0  0  0  0  0  0  0  0  0  0  0  0
    1.5567    2.5055   -0.3749 H   0  0  0  0  0  0  0  0  0  0  0  0
    5.2969    0.0916   -0.7401 H   0  0  0  0  0  0  0  0  0  0  0  0
    7.3330   -1.1462   -1.0526 H   0  0  0  0  0  0  0  0  0  0  0  0
    7.5300   -2.6077   -1.9102 H   0  0  0  0  0  0  0  0  0  0  0  0
    5.2250   -3.4204   -1.5178 H   0  0  0  0  0  0  0  0  0  0  0  0
    4.9787   -2.0319   -0.4516 H   0  0  0  0  0  0  0  0  0  0  0  0
    7.7722   -4.8966    0.8838 H   0  0  0  0  0  0  0  0  0  0  0  0
    7.9782   -4.3902   -0.7998 H   0  0  0  0  0  0  0  0  0  0  0  0
    6.9595   -6.6630   -0.5748 H   0  0  0  0  0  0  0  0  0  0  0  0
    5.8110   -5.5924   -1.4154 H   0  0  0  0  0  0  0  0  0  0  0  0
    3.8447   -5.2033    1.6541 H   0  0  0  0  0  0  0  0  0  0  0  0
    3.9453   -4.6507   -0.0357 H   0  0  0  0  0  0  0  0  0  0  0  0
    5.9744   -4.1018    2.2550 H   0  0  0  0  0  0  0  0  0  0  0  0
    4.8085   -2.9028    1.6390 H   0  0  0  0  0  0  0  0  0  0  0  0
    7.5642   -3.2110   -3.8450 H   0  0  0  0  0  0  0  0  0  0  0  0
    9.7848   -3.2714   -4.5782 H   0  0  0  0  0  0  0  0  0  0  0  0
   12.9960   -0.5617   -5.7047 H   0  0  0  0  0  0  0  0  0  0  0  0
   13.6397   -0.6457   -7.5828 H   0  0  0  0  0  0  0  0  0  0  0  0
   13.1560    0.9419  -11.7667 H   0  0  0  0  0  0  0  0  0  0  0  0
   12.8039    2.6726  -11.3680 H   0  0  0  0  0  0  0  0  0  0  0  0
   11.4534    1.4524  -11.5710 H   0  0  0  0  0  0  0  0  0  0  0  0
   10.9020    2.4098   -8.8934 H   0  0  0  0  0  0  0  0  0  0  0  0
    7.3968    1.0901   -4.6156 H   0  0  0  0  0  0  0  0  0  0  0  0
    4.3780   -0.7508   -4.8824 H   0  0  0  0  0  0  0  0  0  0  0  0
    2.1085   -0.5558    2.0113 H   0  0  0  0  0  0  0  0  0  0  0  0
  1  2  1  0  0  0  0
  1 37  1  0  0  0  0
  1 38  1  0  0  0  0
  1 39  1  0  0  0  0
  2  3  1  0  0  0  0
  3  4  1  0  0  0  0
  3 35  2  0  0  0  0
  4  5  2  0  0  0  0
  4 40  1  0  0  0  0
  5  6  1  0  0  0  0
  5  8  1  0  0  0  0
  6  7  1  0  0  0  0
  7 41  1  0  0  0  0
  7 42  1  0  0  0  0
  7 43  1  0  0  0  0
  8  9  2  0  0  0  0
  8 44  1  0  0  0  0
  9 10  1  0  0  0  0
  9 35  1  0  0  0  0
 10 11  1  0  0  0  0
 10 19  1  0  0  0  0
 11 12  1  0  0  0  0
 11 45  1  0  0  0  0
 11 46  1  0  0  0  0
 12 13  1  0  0  0  0
 12 47  1  0  0  0  0
 12 48  1  0  0  0  0
 13 14  1  0  0  0  0
 13 18  1  0  0  0  0
 14 15  1  0  0  0  0
 14 49  1  0  0  0  0
 14 50  1  0  0  0  0
 15 16  1  0  0  0  0
 15 51  1  0  0  0  0
 15 52  1  0  0  0  0
 16 17  1  0  0  0  0
 17 18  1  0  0  0  0
 17 53  1  0  0  0  0
 17 54  1  0  0  0  0
 18 55  1  0  0  0  0
 18 56  1  0  0  0  0
 19 20  1  0  0  0  0
 19 34  2  0  0  0  0
 20 21  2  0  0  0  0
 20 57  1  0  0  0  0
 21 22  1  0  0  0  0
 21 58  1  0  0  0  0
 22 23  1  0  0  0  0
 22 33  2  0  0  0  0
 23 24  2  0  0  0  0
 24 25  1  0  0  0  0
 24 59  1  0  0  0  0
 25 26  1  0  0  0  0
 25 32  2  0  0  0  0
 26 27  1  0  0  0  0
 26 31  2  0  0  0  0
 27 28  2  0  0  0  0
 27 60  1  0  0  0  0
 28 29  1  0  0  0  0
 29 30  1  0  0  0  0
 29 31  1  0  0  0  0
 30 61  1  0  0  0  0
 30 62  1  0  0  0  0
 30 63  1  0  0  0  0
 31 64  1  0  0  0  0
 32 33  1  0  0  0  0
 33 34  1  0  0  0  0
 34 65  1  0  0  0  0
 35 66  1  0  0  0  0
 36 67  1  0  0  0  0
M  END
$$$$
