CHEMBL368252
 OpenBabel04072215373D

 52 55  0  0  0  0  0  0  0  0999 V2000
    5.3758   -1.1162   -1.3353 C   0  0  0  0  0  0  0  0  0  0  0  0
    4.2114   -1.0719   -0.5080 O   0  0  0  0  0  0  0  0  0  0  0  0
    4.4267   -0.8769    0.8302 C   0  0  0  0  0  0  0  0  0  0  0  0
    5.5756   -0.2308    1.3181 C   0  0  0  0  0  0  0  0  0  0  0  0
    5.8805   -0.1500    2.6728 C   0  0  0  0  0  0  0  0  0  0  0  0
    7.0620    0.3841    3.0211 N   0  0  0  0  0  0  0  0  0  0  0  0
    7.4013    0.3909    4.3246 C   0  0  0  0  0  0  0  0  0  0  0  0
    6.6122   -0.1360    5.3243 C   0  0  0  0  0  0  0  0  0  0  0  0
    5.3827   -0.6905    4.9706 C   0  0  0  0  0  0  0  0  0  0  0  0
    4.6859   -1.2006    6.0572 O   0  0  0  0  0  0  0  0  0  0  0  0
    3.8877   -2.3136    5.9315 C   0  0  0  0  0  0  0  0  0  0  0  0
    4.1573   -3.3792    5.0812 C   0  0  0  0  0  0  0  0  0  0  0  0
    3.1635   -4.3300    4.8300 C   0  0  0  0  0  0  0  0  0  0  0  0
    1.9161   -4.2758    5.4694 C   0  0  0  0  0  0  0  0  0  0  0  0
    0.8331   -5.1323    5.1318 N   0  0  0  0  0  0  0  0  0  0  0  0
    0.7754   -5.9020    3.9829 C   0  0  0  0  0  0  0  0  0  0  0  0
    1.6374   -5.8891    3.1127 O   0  0  0  0  0  0  0  0  0  0  0  0
   -0.3642   -6.6911    3.8915 N   0  0  0  0  0  0  0  0  0  0  0  0
   -0.5287   -7.6749    2.8742 C   0  0  0  0  0  0  0  0  0  0  0  0
    0.5654   -8.3021    2.2614 C   0  0  0  0  0  0  0  0  0  0  0  0
    0.3924   -9.1960    1.2042 C   0  0  0  0  0  0  0  0  0  0  0  0
   -0.8896   -9.5066    0.7662 C   0  0  0  0  0  0  0  0  0  0  0  0
   -1.9937   -8.9330    1.4001 C   0  0  0  0  0  0  0  0  0  0  0  0
   -1.8168   -8.0296    2.4584 C   0  0  0  0  0  0  0  0  0  0  0  0
    1.7340   -3.3107    6.4651 C   0  0  0  0  0  0  0  0  0  0  0  0
    2.7135   -2.3296    6.6897 C   0  0  0  0  0  0  0  0  0  0  0  0
    4.9622   -0.6571    3.6117 C   0  0  0  0  0  0  0  0  0  0  0  0
    3.7173   -1.1023    3.1122 C   0  0  0  0  0  0  0  0  0  0  0  0
    3.4667   -1.2948    1.7492 C   0  0  0  0  0  0  0  0  0  0  0  0
    2.2676   -1.9159    1.5544 O   0  0  0  0  0  0  0  0  0  0  0  0
    1.9574   -2.5068    0.3063 C   0  0  0  0  0  0  0  0  0  0  0  0
    5.1695   -1.7818   -2.1787 H   0  0  0  0  0  0  0  0  0  0  0  0
    6.2589   -1.5186   -0.8244 H   0  0  0  0  0  0  0  0  0  0  0  0
    5.5836   -0.1164   -1.7293 H   0  0  0  0  0  0  0  0  0  0  0  0
    6.2959    0.2087    0.6319 H   0  0  0  0  0  0  0  0  0  0  0  0
    8.3659    0.8374    4.5484 H   0  0  0  0  0  0  0  0  0  0  0  0
    6.9513   -0.1317    6.3534 H   0  0  0  0  0  0  0  0  0  0  0  0
    5.0822   -3.4344    4.5137 H   0  0  0  0  0  0  0  0  0  0  0  0
    3.3912   -5.0802    4.0803 H   0  0  0  0  0  0  0  0  0  0  0  0
   -0.0034   -5.0581    5.6902 H   0  0  0  0  0  0  0  0  0  0  0  0
   -1.2037   -6.3354    4.3215 H   0  0  0  0  0  0  0  0  0  0  0  0
    1.5832   -8.1047    2.5877 H   0  0  0  0  0  0  0  0  0  0  0  0
    1.2616   -9.6359    0.7238 H   0  0  0  0  0  0  0  0  0  0  0  0
   -1.0245  -10.1837   -0.0740 H   0  0  0  0  0  0  0  0  0  0  0  0
   -2.9957   -9.1795    1.0543 H   0  0  0  0  0  0  0  0  0  0  0  0
   -2.6949   -7.5848    2.9151 H   0  0  0  0  0  0  0  0  0  0  0  0
    0.8109   -3.2632    7.0360 H   0  0  0  0  0  0  0  0  0  0  0  0
    2.5334   -1.5432    7.4186 H   0  0  0  0  0  0  0  0  0  0  0  0
    2.9235   -1.3900    3.7962 H   0  0  0  0  0  0  0  0  0  0  0  0
    1.2131   -3.2888    0.4965 H   0  0  0  0  0  0  0  0  0  0  0  0
    2.8080   -2.9957   -0.1756 H   0  0  0  0  0  0  0  0  0  0  0  0
    1.4937   -1.7602   -0.3434 H   0  0  0  0  0  0  0  0  0  0  0  0
  1  2  1  0  0  0  0
  1 32  1  0  0  0  0
  1 33  1  0  0  0  0
  1 34  1  0  0  0  0
  2  3  1  0  0  0  0
  3  4  1  0  0  0  0
  3 29  2  0  0  0  0
  4  5  2  0  0  0  0
  4 35  1  0  0  0  0
  5  6  1  0  0  0  0
  5 27  1  0  0  0  0
  6  7  2  0  0  0  0
  7  8  1  0  0  0  0
  7 36  1  0  0  0  0
  8  9  2  0  0  0  0
  8 37  1  0  0  0  0
  9 10  1  0  0  0  0
  9 27  1  0  0  0  0
 10 11  1  0  0  0  0
 11 12  1  0  0  0  0
 11 26  2  0  0  0  0
 12 13  2  0  0  0  0
 12 38  1  0  0  0  0
 13 14  1  0  0  0  0
 13 39  1  0  0  0  0
 14 15  1  0  0  0  0
 14 25  2  0  0  0  0
 15 16  1  0  0  0  0
 15 40  1  0  0  0  0
 16 17  2  0  0  0  0
 16 18  1  0  0  0  0
 18 19  1  0  0  0  0
 18 41  1  0  0  0  0
 19 20  1  0  0  0  0
 19 24  2  0  0  0  0
 20 21  2  0  0  0  0
 20 42  1  0  0  0  0
 21 22  1  0  0  0  0
 21 43  1  0  0  0  0
 22 23  2  0  0  0  0
 22 44  1  0  0  0  0
 23 24  1  0  0  0  0
 23 45  1  0  0  0  0
 24 46  1  0  0  0  0
 25 26  1  0  0  0  0
 25 47  1  0  0  0  0
 26 48  1  0  0  0  0
 27 28  2  0  0  0  0
 28 29  1  0  0  0  0
 28 49  1  0  0  0  0
 29 30  1  0  0  0  0
 30 31  1  0  0  0  0
 31 50  1  0  0  0  0
 31 51  1  0  0  0  0
 31 52  1  0  0  0  0
M  END
$$$$
