CHEMBL249994
 OpenBabel04072215363D

 33 36  0  0  0  0  0  0  0  0999 V2000
    0.9598   -0.2775   -0.0508 C   0  0  0  0  0  0  0  0  0  0  0  0
    2.4016   -0.1735   -0.0453 N   0  0  0  0  0  0  0  0  0  0  0  0
    3.0883    1.0108   -0.0542 C   0  0  0  0  0  0  0  0  0  0  0  0
    4.4309    0.7324    0.0462 C   0  0  0  0  0  0  0  0  0  0  0  0
    5.4951    1.6839    0.1051 C   0  0  0  0  0  0  0  0  0  0  0  0
    5.5143    2.9191    0.6335 C   0  0  0  0  0  0  0  0  0  0  0  0
    4.4411    3.7125    1.2805 C   0  0  0  0  0  0  0  0  0  0  0  0
    3.3401    3.3778    1.6661 O   0  0  0  0  0  0  0  0  0  0  0  0
    5.0026    4.9740    1.3798 N   0  0  0  0  0  0  0  0  0  0  0  0
    6.3254    5.0544    1.0222 N   0  0  0  0  0  0  0  0  0  0  0  0
    6.6750    3.8556    0.6152 C   0  0  0  0  0  0  0  0  0  0  0  0
    8.0266    3.5347    0.2729 C   0  0  0  0  0  0  0  0  0  0  0  0
    8.7564    2.3625    0.3642 C   0  0  0  0  0  0  0  0  0  0  0  0
   10.0763    2.4455   -0.0463 N   0  0  0  0  0  0  0  0  0  0  0  0
   10.3876    3.6699   -0.4336 N   0  0  0  0  0  0  0  0  0  0  0  0
    9.1079    4.7384   -0.3023 S   0  0  0  0  0  0  0  0  0  0  0  0
    4.5699   -0.6931    0.0067 C   0  0  0  0  0  0  0  0  0  0  0  0
    5.6604   -1.5888    0.0122 C   0  0  0  0  0  0  0  0  0  0  0  0
    6.9203   -1.1267    0.0397 F   0  0  0  0  0  0  0  0  0  0  0  0
    5.4500   -2.9692   -0.0163 C   0  0  0  0  0  0  0  0  0  0  0  0
    4.1556   -3.4785   -0.0417 C   0  0  0  0  0  0  0  0  0  0  0  0
    3.0491   -2.6226   -0.0497 C   0  0  0  0  0  0  0  0  0  0  0  0
    3.2790   -1.2359   -0.0327 C   0  0  0  0  0  0  0  0  0  0  0  0
    0.5211    0.7235   -0.0492 H   0  0  0  0  0  0  0  0  0  0  0  0
    0.6504   -0.8159    0.8490 H   0  0  0  0  0  0  0  0  0  0  0  0
    0.6546   -0.8146   -0.9517 H   0  0  0  0  0  0  0  0  0  0  0  0
    2.5520    1.9494   -0.1064 H   0  0  0  0  0  0  0  0  0  0  0  0
    6.4020    1.3207   -0.3646 H   0  0  0  0  0  0  0  0  0  0  0  0
    4.5337    5.7607    1.8147 H   0  0  0  0  0  0  0  0  0  0  0  0
    8.3995    1.4115    0.7385 H   0  0  0  0  0  0  0  0  0  0  0  0
    6.3043   -3.6392   -0.0155 H   0  0  0  0  0  0  0  0  0  0  0  0
    3.9990   -4.5550   -0.0558 H   0  0  0  0  0  0  0  0  0  0  0  0
    2.0417   -3.0280   -0.0703 H   0  0  0  0  0  0  0  0  0  0  0  0
  1  2  1  0  0  0  0
  1 24  1  0  0  0  0
  1 25  1  0  0  0  0
  1 26  1  0  0  0  0
  2  3  1  0  0  0  0
  2 23  1  0  0  0  0
  3  4  2  0  0  0  0
  3 27  1  0  0  0  0
  4  5  1  0  0  0  0
  4 17  1  0  0  0  0
  5  6  2  0  0  0  0
  5 28  1  0  0  0  0
  6  7  1  0  0  0  0
  6 11  1  0  0  0  0
  7  8  2  0  0  0  0
  7  9  1  0  0  0  0
  9 10  1  0  0  0  0
  9 29  1  0  0  0  0
 10 11  2  0  0  0  0
 11 12  1  0  0  0  0
 12 13  2  0  0  0  0
 12 16  1  0  0  0  0
 13 14  1  0  0  0  0
 13 30  1  0  0  0  0
 14 15  2  0  0  0  0
 15 16  1  0  0  0  0
 17 18  1  0  0  0  0
 17 23  2  0  0  0  0
 18 19  1  0  0  0  0
 18 20  2  0  0  0  0
 20 21  1  0  0  0  0
 20 31  1  0  0  0  0
 21 22  2  0  0  0  0
 21 32  1  0  0  0  0
 22 23  1  0  0  0  0
 22 33  1  0  0  0  0
M  END
$$$$
