CHEMBL1762521
 OpenBabel04072215363D

 63 67  0  0  0  0  0  0  0  0999 V2000
    2.1873    0.9652   -0.9221 C   0  0  0  0  0  0  0  0  0  0  0  0
    3.4955    0.5597   -0.4057 N   0  0  0  0  0  0  0  0  0  0  0  0
    4.1612    1.4593    0.4584 C   0  0  0  0  0  0  0  0  0  0  0  0
    3.4809    2.3183    1.3362 C   0  0  0  0  0  0  0  0  0  0  0  0
    4.1723    3.1950    2.1807 C   0  0  0  0  0  0  0  0  0  0  0  0
    5.5637    3.2327    2.1636 C   0  0  0  0  0  0  0  0  0  0  0  0
    6.2627    2.3954    1.3017 C   0  0  0  0  0  0  0  0  0  0  0  0
    5.5668    1.5200    0.4628 C   0  0  0  0  0  0  0  0  0  0  0  0
    3.8649   -0.7983   -0.5912 C   0  0  0  0  0  0  0  0  0  0  0  0
    3.4101   -1.5194   -1.6832 C   0  0  0  0  0  0  0  0  0  0  0  0
    3.8595   -2.8066   -1.8168 C   0  0  0  0  0  0  0  0  0  0  0  0
    4.7004   -3.3790   -0.9583 N   0  0  0  0  0  0  0  0  0  0  0  0
    5.0890   -2.6486    0.0970 C   0  0  0  0  0  0  0  0  0  0  0  0
    5.9107   -3.2344    1.0538 N   0  0  0  0  0  0  0  0  0  0  0  0
    6.8565   -4.2570    0.8784 C   0  0  0  0  0  0  0  0  0  0  0  0
    7.5017   -4.4702   -0.3456 C   0  0  0  0  0  0  0  0  0  0  0  0
    8.3934   -5.5267   -0.5491 C   0  0  0  0  0  0  0  0  0  0  0  0
    9.0765   -5.6913   -1.7356 N   0  0  0  0  0  0  0  0  0  0  0  0
    9.4996   -4.5589   -2.5694 C   0  0  0  0  0  0  0  0  0  0  0  0
    8.8766   -4.6731   -3.9648 C   0  0  0  0  0  0  0  0  0  0  0  0
    9.1751   -5.9434   -4.5719 O   0  0  0  0  0  0  0  0  0  0  0  0
    8.6557   -7.0132   -3.7616 C   0  0  0  0  0  0  0  0  0  0  0  0
    9.2634   -7.0119   -2.3476 C   0  0  0  0  0  0  0  0  0  0  0  0
    8.5957   -6.4027    0.5276 C   0  0  0  0  0  0  0  0  0  0  0  0
    7.9950   -6.2310    1.7857 C   0  0  0  0  0  0  0  0  0  0  0  0
    8.2725   -7.0766    2.8396 N   0  0  0  0  0  0  0  0  0  0  0  0
    8.2588   -6.6117    4.2322 C   0  0  0  0  0  0  0  0  0  0  0  0
    9.5783   -7.0067    4.9167 C   0  0  0  0  0  0  0  0  0  0  0  0
    9.8404   -8.4170    4.8068 O   0  0  0  0  0  0  0  0  0  0  0  0
    9.9237   -8.8016    3.4252 C   0  0  0  0  0  0  0  0  0  0  0  0
    8.6146   -8.4971    2.6791 C   0  0  0  0  0  0  0  0  0  0  0  0
    7.1233   -5.1404    1.9281 C   0  0  0  0  0  0  0  0  0  0  0  0
    4.6880   -1.3862    0.3075 N   0  0  0  0  0  0  0  0  0  0  0  0
    1.9629    2.0250   -0.7602 H   0  0  0  0  0  0  0  0  0  0  0  0
    1.3864    0.3743   -0.4627 H   0  0  0  0  0  0  0  0  0  0  0  0
    2.1375    0.8452   -2.0107 H   0  0  0  0  0  0  0  0  0  0  0  0
    2.3973    2.2948    1.4076 H   0  0  0  0  0  0  0  0  0  0  0  0
    3.6208    3.8381    2.8611 H   0  0  0  0  0  0  0  0  0  0  0  0
    6.1010    3.9058    2.8255 H   0  0  0  0  0  0  0  0  0  0  0  0
    7.3489    2.4138    1.2810 H   0  0  0  0  0  0  0  0  0  0  0  0
    6.1363    0.8792   -0.2068 H   0  0  0  0  0  0  0  0  0  0  0  0
    2.7545   -1.1133   -2.4373 H   0  0  0  0  0  0  0  0  0  0  0  0
    3.5498   -3.4303   -2.6505 H   0  0  0  0  0  0  0  0  0  0  0  0
    5.9902   -2.6660    1.8817 H   0  0  0  0  0  0  0  0  0  0  0  0
    7.2900   -3.7906   -1.1651 H   0  0  0  0  0  0  0  0  0  0  0  0
   10.5914   -4.6049   -2.6570 H   0  0  0  0  0  0  0  0  0  0  0  0
    9.2651   -3.5848   -2.1266 H   0  0  0  0  0  0  0  0  0  0  0  0
    9.2845   -3.8923   -4.6153 H   0  0  0  0  0  0  0  0  0  0  0  0
    7.7888   -4.5434   -3.9257 H   0  0  0  0  0  0  0  0  0  0  0  0
    8.8934   -7.9552   -4.2658 H   0  0  0  0  0  0  0  0  0  0  0  0
    7.5635   -6.9243   -3.7175 H   0  0  0  0  0  0  0  0  0  0  0  0
   10.3393   -7.2134   -2.4094 H   0  0  0  0  0  0  0  0  0  0  0  0
    8.8021   -7.8194   -1.7687 H   0  0  0  0  0  0  0  0  0  0  0  0
    9.3205   -7.1994    0.3955 H   0  0  0  0  0  0  0  0  0  0  0  0
    7.4128   -7.0805    4.7466 H   0  0  0  0  0  0  0  0  0  0  0  0
    8.1516   -5.5250    4.3183 H   0  0  0  0  0  0  0  0  0  0  0  0
    9.5289   -6.7572    5.9804 H   0  0  0  0  0  0  0  0  0  0  0  0
   10.4221   -6.4558    4.4835 H   0  0  0  0  0  0  0  0  0  0  0  0
   10.1301   -9.8750    3.3918 H   0  0  0  0  0  0  0  0  0  0  0  0
   10.7721   -8.2819    2.9613 H   0  0  0  0  0  0  0  0  0  0  0  0
    7.8050   -9.0878    3.1181 H   0  0  0  0  0  0  0  0  0  0  0  0
    8.7029   -8.8133    1.6337 H   0  0  0  0  0  0  0  0  0  0  0  0
    6.5842   -5.0008    2.8607 H   0  0  0  0  0  0  0  0  0  0  0  0
  1  2  1  0  0  0  0
  1 34  1  0  0  0  0
  1 35  1  0  0  0  0
  1 36  1  0  0  0  0
  2  3  1  0  0  0  0
  2  9  1  0  0  0  0
  3  4  1  0  0  0  0
  3  8  2  0  0  0  0
  4  5  2  0  0  0  0
  4 37  1  0  0  0  0
  5  6  1  0  0  0  0
  5 38  1  0  0  0  0
  6  7  2  0  0  0  0
  6 39  1  0  0  0  0
  7  8  1  0  0  0  0
  7 40  1  0  0  0  0
  8 41  1  0  0  0  0
  9 10  1  0  0  0  0
  9 33  2  0  0  0  0
 10 11  2  0  0  0  0
 10 42  1  0  0  0  0
 11 12  1  0  0  0  0
 11 43  1  0  0  0  0
 12 13  2  0  0  0  0
 13 14  1  0  0  0  0
 13 33  1  0  0  0  0
 14 15  1  0  0  0  0
 14 44  1  0  0  0  0
 15 16  1  0  0  0  0
 15 32  2  0  0  0  0
 16 17  2  0  0  0  0
 16 45  1  0  0  0  0
 17 18  1  0  0  0  0
 17 24  1  0  0  0  0
 18 19  1  0  0  0  0
 18 23  1  0  0  0  0
 19 20  1  0  0  0  0
 19 46  1  0  0  0  0
 19 47  1  0  0  0  0
 20 21  1  0  0  0  0
 20 48  1  0  0  0  0
 20 49  1  0  0  0  0
 21 22  1  0  0  0  0
 22 23  1  0  0  0  0
 22 50  1  0  0  0  0
 22 51  1  0  0  0  0
 23 52  1  0  0  0  0
 23 53  1  0  0  0  0
 24 25  2  0  0  0  0
 24 54  1  0  0  0  0
 25 26  1  0  0  0  0
 25 32  1  0  0  0  0
 26 27  1  0  0  0  0
 26 31  1  0  0  0  0
 27 28  1  0  0  0  0
 27 55  1  0  0  0  0
 27 56  1  0  0  0  0
 28 29  1  0  0  0  0
 28 57  1  0  0  0  0
 28 58  1  0  0  0  0
 29 30  1  0  0  0  0
 30 31  1  0  0  0  0
 30 59  1  0  0  0  0
 30 60  1  0  0  0  0
 31 61  1  0  0  0  0
 31 62  1  0  0  0  0
 32 63  1  0  0  0  0
M  END
$$$$
