CHEMBL469456
 OpenBabel04072215383D

 53 57  0  0  0  0  0  0  0  0999 V2000
    3.1376    1.0512    4.2016 C   0  0  0  0  0  0  0  0  0  0  0  0
    3.4061    0.1230    3.1307 N   0  0  0  0  0  0  0  0  0  0  0  0
    2.4872   -0.5386    2.3689 C   0  0  0  0  0  0  0  0  0  0  0  0
    3.2102   -1.2774    1.4587 C   0  0  0  0  0  0  0  0  0  0  0  0
    2.7206   -2.1473    0.3932 C   0  0  0  0  0  0  0  0  0  0  0  0
    1.3476   -2.3593    0.1172 C   0  0  0  0  0  0  0  0  0  0  0  0
    1.2715   -3.1985   -0.9710 C   0  0  0  0  0  0  0  0  0  0  0  0
    2.5520   -3.5420   -1.3603 N   0  0  0  0  0  0  0  0  0  0  0  0
    2.9643   -4.4060   -2.4089 C   0  0  0  0  0  0  0  0  0  0  0  0
    1.9878   -5.0016   -3.2072 N   0  0  0  0  0  0  0  0  0  0  0  0
    4.2938   -4.6023   -2.5697 C   0  0  0  0  0  0  0  0  0  0  0  0
    4.8988   -5.4677   -3.5897 C   0  0  0  0  0  0  0  0  0  0  0  0
    5.1600   -4.9597   -4.8624 C   0  0  0  0  0  0  0  0  0  0  0  0
    5.8063   -5.7500   -5.8170 C   0  0  0  0  0  0  0  0  0  0  0  0
    6.2122   -7.0547   -5.5180 C   0  0  0  0  0  0  0  0  0  0  0  0
    6.9346   -7.8536   -6.4384 N   0  0  0  0  0  0  0  0  0  0  0  0
    7.7210   -7.3385   -7.4549 C   0  0  0  0  0  0  0  0  0  0  0  0
    7.9830   -6.1451   -7.6001 O   0  0  0  0  0  0  0  0  0  0  0  0
    8.1796   -8.3294   -8.3106 N   0  0  0  0  0  0  0  0  0  0  0  0
    9.0626   -8.0272   -9.3765 C   0  0  0  0  0  0  0  0  0  0  0  0
   10.1560   -7.1678   -9.1972 C   0  0  0  0  0  0  0  0  0  0  0  0
   11.0035   -6.8607  -10.2663 C   0  0  0  0  0  0  0  0  0  0  0  0
   10.7499   -7.3990  -11.5245 C   0  0  0  0  0  0  0  0  0  0  0  0
    9.6639   -8.2516  -11.6955 C   0  0  0  0  0  0  0  0  0  0  0  0
    9.4020   -8.7420  -12.9139 F   0  0  0  0  0  0  0  0  0  0  0  0
    8.8334   -8.5905  -10.6300 C   0  0  0  0  0  0  0  0  0  0  0  0
    5.8890   -7.5869   -4.2663 C   0  0  0  0  0  0  0  0  0  0  0  0
    5.2469   -6.7936   -3.3021 C   0  0  0  0  0  0  0  0  0  0  0  0
    5.1779   -3.8349   -1.6376 C   0  0  0  0  0  0  0  0  0  0  0  0
    4.8053   -3.0423   -0.6814 N   0  0  0  0  0  0  0  0  0  0  0  0
    3.4569   -2.8900   -0.5180 C   0  0  0  0  0  0  0  0  0  0  0  0
    4.5573   -0.9968    1.7671 C   0  0  0  0  0  0  0  0  0  0  0  0
    4.6804   -0.1431    2.7913 N   0  0  0  0  0  0  0  0  0  0  0  0
    2.0649    1.0666    4.4097 H   0  0  0  0  0  0  0  0  0  0  0  0
    3.4719    2.0430    3.8871 H   0  0  0  0  0  0  0  0  0  0  0  0
    3.6836    0.7250    5.0904 H   0  0  0  0  0  0  0  0  0  0  0  0
    1.4257   -0.4210    2.5281 H   0  0  0  0  0  0  0  0  0  0  0  0
    0.5001   -1.9357    0.6397 H   0  0  0  0  0  0  0  0  0  0  0  0
    0.4084   -3.5746   -1.4998 H   0  0  0  0  0  0  0  0  0  0  0  0
    1.1250   -5.2143   -2.7149 H   0  0  0  0  0  0  0  0  0  0  0  0
    2.3283   -5.7939   -3.7474 H   0  0  0  0  0  0  0  0  0  0  0  0
    4.8824   -3.9399   -5.1223 H   0  0  0  0  0  0  0  0  0  0  0  0
    5.9885   -5.3115   -6.7953 H   0  0  0  0  0  0  0  0  0  0  0  0
    7.1582   -8.7970   -6.1540 H   0  0  0  0  0  0  0  0  0  0  0  0
    7.5203   -9.0800   -8.4667 H   0  0  0  0  0  0  0  0  0  0  0  0
   10.3643   -6.7301   -8.2226 H   0  0  0  0  0  0  0  0  0  0  0  0
   11.8492   -6.1952  -10.1143 H   0  0  0  0  0  0  0  0  0  0  0  0
   11.3831   -7.1531  -12.3717 H   0  0  0  0  0  0  0  0  0  0  0  0
    7.9857   -9.2415  -10.8180 H   0  0  0  0  0  0  0  0  0  0  0  0
    6.1673   -8.6046   -4.0040 H   0  0  0  0  0  0  0  0  0  0  0  0
    5.0426   -7.2138   -2.3189 H   0  0  0  0  0  0  0  0  0  0  0  0
    6.2611   -3.9691   -1.8021 H   0  0  0  0  0  0  0  0  0  0  0  0
    5.4532   -1.3714    1.2891 H   0  0  0  0  0  0  0  0  0  0  0  0
  1  2  1  0  0  0  0
  1 34  1  0  0  0  0
  1 35  1  0  0  0  0
  1 36  1  0  0  0  0
  2  3  1  0  0  0  0
  2 33  1  0  0  0  0
  3  4  2  0  0  0  0
  3 37  1  0  0  0  0
  4  5  1  0  0  0  0
  4 32  1  0  0  0  0
  5  6  1  0  0  0  0
  5 31  2  0  0  0  0
  6  7  2  0  0  0  0
  6 38  1  0  0  0  0
  7  8  1  0  0  0  0
  7 39  1  0  0  0  0
  8  9  1  0  0  0  0
  8 31  1  0  0  0  0
  9 10  1  0  0  0  0
  9 11  2  0  0  0  0
 10 40  1  0  0  0  0
 10 41  1  0  0  0  0
 11 12  1  0  0  0  0
 11 29  1  0  0  0  0
 12 13  1  0  0  0  0
 12 28  2  0  0  0  0
 13 14  2  0  0  0  0
 13 42  1  0  0  0  0
 14 15  1  0  0  0  0
 14 43  1  0  0  0  0
 15 16  1  0  0  0  0
 15 27  2  0  0  0  0
 16 17  1  0  0  0  0
 16 44  1  0  0  0  0
 17 18  2  0  0  0  0
 17 19  1  0  0  0  0
 19 20  1  0  0  0  0
 19 45  1  0  0  0  0
 20 21  1  0  0  0  0
 20 26  2  0  0  0  0
 21 22  2  0  0  0  0
 21 46  1  0  0  0  0
 22 23  1  0  0  0  0
 22 47  1  0  0  0  0
 23 24  2  0  0  0  0
 23 48  1  0  0  0  0
 24 25  1  0  0  0  0
 24 26  1  0  0  0  0
 26 49  1  0  0  0  0
 27 28  1  0  0  0  0
 27 50  1  0  0  0  0
 28 51  1  0  0  0  0
 29 30  2  0  0  0  0
 29 52  1  0  0  0  0
 30 31  1  0  0  0  0
 32 33  2  0  0  0  0
 32 53  1  0  0  0  0
M  END
$$$$
