CHEMBL3297893
 OpenBabel04072215363D

 34 36  0  0  0  0  0  0  0  0999 V2000
    1.2570    0.2560   -0.0472 C   0  0  0  0  0  0  0  0  0  0  0  0
    2.7544    0.2035   -0.0626 C   0  0  0  0  0  0  0  0  0  0  0  0
    3.3074   -1.0254   -0.0767 N   0  0  0  0  0  0  0  0  0  0  0  0
    4.6539   -1.1801   -0.0763 C   0  0  0  0  0  0  0  0  0  0  0  0
    5.2318   -2.4567   -0.0391 N   0  0  0  0  0  0  0  0  0  0  0  0
    4.6055   -3.7116   -0.0907 C   0  0  0  0  0  0  0  0  0  0  0  0
    3.3783   -3.9122   -0.7325 C   0  0  0  0  0  0  0  0  0  0  0  0
    2.7210   -5.1431   -0.6775 C   0  0  0  0  0  0  0  0  0  0  0  0
    3.2803   -6.2130    0.0296 C   0  0  0  0  0  0  0  0  0  0  0  0
    2.5620   -7.5319    0.1340 C   0  0  0  0  0  0  0  0  0  0  0  0
    1.3588   -7.5523   -0.5053 F   0  0  0  0  0  0  0  0  0  0  0  0
    3.2827   -8.5591   -0.3956 F   0  0  0  0  0  0  0  0  0  0  0  0
    2.3031   -7.8836    1.4243 F   0  0  0  0  0  0  0  0  0  0  0  0
    4.5206   -6.0270    0.6591 C   0  0  0  0  0  0  0  0  0  0  0  0
    5.1739   -4.7906    0.5976 C   0  0  0  0  0  0  0  0  0  0  0  0
    5.4293   -0.0164   -0.0647 C   0  0  0  0  0  0  0  0  0  0  0  0
    6.8120    0.3084   -0.0617 C   0  0  0  0  0  0  0  0  0  0  0  0
    6.8852    1.6840   -0.0509 C   0  0  0  0  0  0  0  0  0  0  0  0
    8.0125    2.6366   -0.0465 C   0  0  0  0  0  0  0  0  0  0  0  0
    5.6335    2.2229   -0.0467 O   0  0  0  0  0  0  0  0  0  0  0  0
    4.7431    1.1881   -0.0573 C   0  0  0  0  0  0  0  0  0  0  0  0
    3.4167    1.3679   -0.0554 N   0  0  0  0  0  0  0  0  0  0  0  0
    0.8321   -0.7542   -0.0425 H   0  0  0  0  0  0  0  0  0  0  0  0
    0.8887    0.7778   -0.9349 H   0  0  0  0  0  0  0  0  0  0  0  0
    0.9087    0.7769    0.8489 H   0  0  0  0  0  0  0  0  0  0  0  0
    6.2088   -2.4657    0.2143 H   0  0  0  0  0  0  0  0  0  0  0  0
    2.9130   -3.1044   -1.2924 H   0  0  0  0  0  0  0  0  0  0  0  0
    1.7619   -5.2492   -1.1811 H   0  0  0  0  0  0  0  0  0  0  0  0
    4.9739   -6.8423    1.2208 H   0  0  0  0  0  0  0  0  0  0  0  0
    6.1168   -4.6720    1.1231 H   0  0  0  0  0  0  0  0  0  0  0  0
    7.6514   -0.3712   -0.0745 H   0  0  0  0  0  0  0  0  0  0  0  0
    8.9695    2.1050   -0.0492 H   0  0  0  0  0  0  0  0  0  0  0  0
    7.9775    3.2693    0.8452 H   0  0  0  0  0  0  0  0  0  0  0  0
    7.9772    3.2775   -0.9324 H   0  0  0  0  0  0  0  0  0  0  0  0
  1  2  1  0  0  0  0
  1 23  1  0  0  0  0
  1 24  1  0  0  0  0
  1 25  1  0  0  0  0
  2  3  1  0  0  0  0
  2 22  2  0  0  0  0
  3  4  2  0  0  0  0
  4  5  1  0  0  0  0
  4 16  1  0  0  0  0
  5  6  1  0  0  0  0
  5 26  1  0  0  0  0
  6  7  1  0  0  0  0
  6 15  2  0  0  0  0
  7  8  2  0  0  0  0
  7 27  1  0  0  0  0
  8  9  1  0  0  0  0
  8 28  1  0  0  0  0
  9 10  1  0  0  0  0
  9 14  2  0  0  0  0
 10 11  1  0  0  0  0
 10 12  1  0  0  0  0
 10 13  1  0  0  0  0
 14 15  1  0  0  0  0
 14 29  1  0  0  0  0
 15 30  1  0  0  0  0
 16 17  1  0  0  0  0
 16 21  2  0  0  0  0
 17 18  2  0  0  0  0
 17 31  1  0  0  0  0
 18 19  1  0  0  0  0
 18 20  1  0  0  0  0
 19 32  1  0  0  0  0
 19 33  1  0  0  0  0
 19 34  1  0  0  0  0
 20 21  1  0  0  0  0
 21 22  1  0  0  0  0
M  END
$$$$
