CHEMBL3676373
 OpenBabel04072215373D

 64 66  0  0  0  0  0  0  0  0999 V2000
    4.5682   -1.7553   -1.7513 C   0  0  0  0  0  0  0  0  0  0  0  0
    4.1474   -0.6879   -1.0539 C   0  0  0  0  0  0  0  0  0  0  0  0
    5.1432    0.1572   -0.3377 C   0  0  0  0  0  0  0  0  0  0  0  0
    6.3409    0.0055   -0.5685 O   0  0  0  0  0  0  0  0  0  0  0  0
    4.5977    1.0758    0.5534 N   0  0  0  0  0  0  0  0  0  0  0  0
    5.2985    2.2116    1.0502 C   0  0  0  0  0  0  0  0  0  0  0  0
    6.4356    2.6606    0.3578 C   0  0  0  0  0  0  0  0  0  0  0  0
    7.1566    3.8104    0.7450 C   0  0  0  0  0  0  0  0  0  0  0  0
    8.2420    4.3572    0.0492 C   0  0  0  0  0  0  0  0  0  0  0  0
    8.6180    3.8114   -1.2025 N   0  0  0  0  0  0  0  0  0  0  0  0
    9.3707    4.5109   -2.1678 C   0  0  0  0  0  0  0  0  0  0  0  0
    9.0846    5.8519   -2.4621 C   0  0  0  0  0  0  0  0  0  0  0  0
    9.8958    6.5816   -3.3292 C   0  0  0  0  0  0  0  0  0  0  0  0
   10.9923    5.9631   -3.9241 C   0  0  0  0  0  0  0  0  0  0  0  0
   12.1350    6.9753   -5.0375 Br  0  0  0  0  0  0  0  0  0  0  0  0
   11.2629    4.6171   -3.6901 C   0  0  0  0  0  0  0  0  0  0  0  0
   10.4460    3.9020   -2.8200 C   0  0  0  0  0  0  0  0  0  0  0  0
   10.7237    2.6114   -2.5746 F   0  0  0  0  0  0  0  0  0  0  0  0
    8.8867    5.4573    0.4897 N   0  0  0  0  0  0  0  0  0  0  0  0
    8.4309    6.0213    1.6065 C   0  0  0  0  0  0  0  0  0  0  0  0
    7.3720    5.6146    2.3073 N   0  0  0  0  0  0  0  0  0  0  0  0
    6.7523    4.5212    1.8615 C   0  0  0  0  0  0  0  0  0  0  0  0
    5.6224    4.1036    2.5273 C   0  0  0  0  0  0  0  0  0  0  0  0
    4.8653    2.9651    2.1584 C   0  0  0  0  0  0  0  0  0  0  0  0
    3.7307    2.5894    2.8771 O   0  0  0  0  0  0  0  0  0  0  0  0
    3.4518    3.4508    4.0127 C   0  0  0  0  0  0  0  0  0  0  0  0
    2.2786    3.0324    4.9406 C   0  0  0  0  0  0  0  0  0  0  0  0
    0.9926    2.9562    4.1067 C   0  0  0  0  0  0  0  0  0  0  0  0
    2.6143    1.6725    5.5674 C   0  0  0  0  0  0  0  0  0  0  0  0
    2.1412    4.0592    6.0106 N   0  0  0  0  0  0  0  0  0  0  0  0
    1.1711    4.0720    6.9954 C   0  0  0  0  0  0  0  0  0  0  0  0
    0.3479    3.1756    7.1535 O   0  0  0  0  0  0  0  0  0  0  0  0
    1.2268    5.2845    7.9420 C   0  0  0  0  0  0  0  0  0  0  0  0
    1.7583    6.5138    7.2904 N   0  0  0  0  0  0  0  0  0  0  0  0
    0.8432    6.9913    6.2427 C   0  0  0  0  0  0  0  0  0  0  0  0
    1.8793    7.5695    8.3104 C   0  0  0  0  0  0  0  0  0  0  0  0
    3.8880   -2.3525   -2.3467 H   0  0  0  0  0  0  0  0  0  0  0  0
    5.6180   -2.0511   -1.7633 H   0  0  0  0  0  0  0  0  0  0  0  0
    3.1147   -0.3712   -1.0819 H   0  0  0  0  0  0  0  0  0  0  0  0
    3.6605    0.9302    0.9101 H   0  0  0  0  0  0  0  0  0  0  0  0
    6.7646    2.1541   -0.5461 H   0  0  0  0  0  0  0  0  0  0  0  0
    8.8677    2.8289   -1.1280 H   0  0  0  0  0  0  0  0  0  0  0  0
    8.2374    6.3425   -1.9877 H   0  0  0  0  0  0  0  0  0  0  0  0
    9.6711    7.6293   -3.5086 H   0  0  0  0  0  0  0  0  0  0  0  0
   12.1084    4.1198   -4.1520 H   0  0  0  0  0  0  0  0  0  0  0  0
    8.9581    6.8963    1.9680 H   0  0  0  0  0  0  0  0  0  0  0  0
    5.3383    4.7438    3.3591 H   0  0  0  0  0  0  0  0  0  0  0  0
    3.2248    4.4580    3.6335 H   0  0  0  0  0  0  0  0  0  0  0  0
    4.3431    3.4939    4.6547 H   0  0  0  0  0  0  0  0  0  0  0  0
    1.0939    2.2524    3.2747 H   0  0  0  0  0  0  0  0  0  0  0  0
    0.7449    3.9400    3.6894 H   0  0  0  0  0  0  0  0  0  0  0  0
    0.1342    2.6357    4.7048 H   0  0  0  0  0  0  0  0  0  0  0  0
    2.7629    0.9032    4.8037 H   0  0  0  0  0  0  0  0  0  0  0  0
    1.8259    1.3259    6.2421 H   0  0  0  0  0  0  0  0  0  0  0  0
    3.5348    1.7413    6.1609 H   0  0  0  0  0  0  0  0  0  0  0  0
    2.7220    4.8937    5.9970 H   0  0  0  0  0  0  0  0  0  0  0  0
    1.8840    4.9926    8.7709 H   0  0  0  0  0  0  0  0  0  0  0  0
    0.2204    5.4576    8.3431 H   0  0  0  0  0  0  0  0  0  0  0  0
    0.7235    6.2533    5.4441 H   0  0  0  0  0  0  0  0  0  0  0  0
    1.2555    7.8887    5.7672 H   0  0  0  0  0  0  0  0  0  0  0  0
   -0.1504    7.2337    6.6361 H   0  0  0  0  0  0  0  0  0  0  0  0
    2.5411    7.2564    9.1255 H   0  0  0  0  0  0  0  0  0  0  0  0
    0.9078    7.8385    8.7448 H   0  0  0  0  0  0  0  0  0  0  0  0
    2.3196    8.4746    7.8765 H   0  0  0  0  0  0  0  0  0  0  0  0
  1  2  2  0  0  0  0
  1 37  1  0  0  0  0
  1 38  1  0  0  0  0
  2  3  1  0  0  0  0
  2 39  1  0  0  0  0
  3  4  2  0  0  0  0
  3  5  1  0  0  0  0
  5  6  1  0  0  0  0
  5 40  1  0  0  0  0
  6  7  1  0  0  0  0
  6 24  2  0  0  0  0
  7  8  2  0  0  0  0
  7 41  1  0  0  0  0
  8  9  1  0  0  0  0
  8 22  1  0  0  0  0
  9 10  1  0  0  0  0
  9 19  2  0  0  0  0
 10 11  1  0  0  0  0
 10 42  1  0  0  0  0
 11 12  1  0  0  0  0
 11 17  2  0  0  0  0
 12 13  2  0  0  0  0
 12 43  1  0  0  0  0
 13 14  1  0  0  0  0
 13 44  1  0  0  0  0
 14 15  1  0  0  0  0
 14 16  2  0  0  0  0
 16 17  1  0  0  0  0
 16 45  1  0  0  0  0
 17 18  1  0  0  0  0
 19 20  1  0  0  0  0
 20 21  2  0  0  0  0
 20 46  1  0  0  0  0
 21 22  1  0  0  0  0
 22 23  2  0  0  0  0
 23 24  1  0  0  0  0
 23 47  1  0  0  0  0
 24 25  1  0  0  0  0
 25 26  1  0  0  0  0
 26 27  1  0  0  0  0
 26 48  1  0  0  0  0
 26 49  1  0  0  0  0
 27 28  1  0  0  0  0
 27 29  1  0  0  0  0
 27 30  1  0  0  0  0
 28 50  1  0  0  0  0
 28 51  1  0  0  0  0
 28 52  1  0  0  0  0
 29 53  1  0  0  0  0
 29 54  1  0  0  0  0
 29 55  1  0  0  0  0
 30 31  1  0  0  0  0
 30 56  1  0  0  0  0
 31 32  2  0  0  0  0
 31 33  1  0  0  0  0
 33 34  1  0  0  0  0
 33 57  1  0  0  0  0
 33 58  1  0  0  0  0
 34 35  1  0  0  0  0
 34 36  1  0  0  0  0
 35 59  1  0  0  0  0
 35 60  1  0  0  0  0
 35 61  1  0  0  0  0
 36 62  1  0  0  0  0
 36 63  1  0  0  0  0
 36 64  1  0  0  0  0
M  END
$$$$
