CHEMBL272850
 OpenBabel04072215363D

 78 82  0  0  0  0  0  0  0  0999 V2000
   -0.0383   -3.4567    0.0677 C   0  0  0  0  0  0  0  0  0  0  0  0
    1.2393   -3.7218    0.6322 O   0  0  0  0  0  0  0  0  0  0  0  0
    2.2993   -3.7945   -0.2286 C   0  0  0  0  0  0  0  0  0  0  0  0
    2.2360   -3.7371   -1.6188 C   0  0  0  0  0  0  0  0  0  0  0  0
    3.4086   -3.7993   -2.3819 C   0  0  0  0  0  0  0  0  0  0  0  0
    3.4661   -3.7243   -3.7492 O   0  0  0  0  0  0  0  0  0  0  0  0
    2.2351   -3.5075   -4.4318 C   0  0  0  0  0  0  0  0  0  0  0  0
    4.6542   -3.9282   -1.7522 C   0  0  0  0  0  0  0  0  0  0  0  0
    4.7276   -3.9902   -0.3594 C   0  0  0  0  0  0  0  0  0  0  0  0
    5.9992   -4.0313    0.4177 C   0  0  0  0  0  0  0  0  0  0  0  0
    5.9439   -3.6241    1.5729 O   0  0  0  0  0  0  0  0  0  0  0  0
    7.1474   -4.5049   -0.2077 N   0  0  0  0  0  0  0  0  0  0  0  0
    8.4266   -4.5902    0.4056 C   0  0  0  0  0  0  0  0  0  0  0  0
    8.6221   -4.4585    1.7803 C   0  0  0  0  0  0  0  0  0  0  0  0
    9.9025   -4.4541    2.3366 C   0  0  0  0  0  0  0  0  0  0  0  0
   11.0413   -4.5868    1.5339 C   0  0  0  0  0  0  0  0  0  0  0  0
   12.3788   -4.4363    2.2019 C   0  0  0  0  0  0  0  0  0  0  0  0
   10.8558   -4.8166    0.1568 C   0  0  0  0  0  0  0  0  0  0  0  0
   11.9788   -5.0180   -0.8073 C   0  0  0  0  0  0  0  0  0  0  0  0
   11.8961   -4.4958   -1.9130 O   0  0  0  0  0  0  0  0  0  0  0  0
   12.9920   -5.8640   -0.3907 N   0  0  0  0  0  0  0  0  0  0  0  0
   14.1219   -6.2317   -1.1550 C   0  0  0  0  0  0  0  0  0  0  0  0
   14.5036   -5.6679   -2.3495 C   0  0  0  0  0  0  0  0  0  0  0  0
   15.5778   -6.0769   -3.0573 N   0  0  0  0  0  0  0  0  0  0  0  0
   16.3036   -7.1012   -2.5774 C   0  0  0  0  0  0  0  0  0  0  0  0
   17.3855   -7.5769   -3.3201 N   0  0  0  0  0  0  0  0  0  0  0  0
   18.2333   -6.8115   -4.1363 C   0  0  0  0  0  0  0  0  0  0  0  0
   18.4292   -5.4482   -3.9123 C   0  0  0  0  0  0  0  0  0  0  0  0
   19.1926   -4.6819   -4.7890 C   0  0  0  0  0  0  0  0  0  0  0  0
   19.7848   -5.2382   -5.9289 C   0  0  0  0  0  0  0  0  0  0  0  0
   20.4847   -4.3955   -6.7827 N   0  0  0  0  0  0  0  0  0  0  0  0
   21.5101   -4.9215   -7.6934 C   0  0  0  0  0  0  0  0  0  0  0  0
   22.4263   -3.7513   -8.1375 C   0  0  0  0  0  0  0  0  0  0  0  0
   21.6773   -2.6410   -8.7766 N   0  0  0  0  0  0  0  0  0  0  0  0
   22.5739   -1.5354   -9.1045 C   0  0  0  0  0  0  0  0  0  0  0  0
   20.6096   -2.1789   -7.8585 C   0  0  0  0  0  0  0  0  0  0  0  0
   19.6768   -3.3243   -7.4086 C   0  0  0  0  0  0  0  0  0  0  0  0
   19.6440   -6.6172   -6.1155 C   0  0  0  0  0  0  0  0  0  0  0  0
   18.8823   -7.3968   -5.2268 C   0  0  0  0  0  0  0  0  0  0  0  0
   16.0250   -7.7156   -1.4184 N   0  0  0  0  0  0  0  0  0  0  0  0
   14.9551   -7.2502   -0.7294 C   0  0  0  0  0  0  0  0  0  0  0  0
    9.5526   -4.8077   -0.3969 C   0  0  0  0  0  0  0  0  0  0  0  0
    3.5401   -3.9285    0.3895 C   0  0  0  0  0  0  0  0  0  0  0  0
   -0.7512   -3.3426    0.8898 H   0  0  0  0  0  0  0  0  0  0  0  0
   -0.3708   -4.2964   -0.5509 H   0  0  0  0  0  0  0  0  0  0  0  0
   -0.0367   -2.5213   -0.5020 H   0  0  0  0  0  0  0  0  0  0  0  0
    1.2750   -3.6364   -2.1052 H   0  0  0  0  0  0  0  0  0  0  0  0
    2.4540   -3.4058   -5.4985 H   0  0  0  0  0  0  0  0  0  0  0  0
    1.7543   -2.5795   -4.1029 H   0  0  0  0  0  0  0  0  0  0  0  0
    1.5642   -4.3643   -4.3075 H   0  0  0  0  0  0  0  0  0  0  0  0
    5.5458   -3.9327   -2.3704 H   0  0  0  0  0  0  0  0  0  0  0  0
    7.1071   -4.7264   -1.1913 H   0  0  0  0  0  0  0  0  0  0  0  0
    7.7904   -4.3438    2.4680 H   0  0  0  0  0  0  0  0  0  0  0  0
    9.9921   -4.3055    3.4113 H   0  0  0  0  0  0  0  0  0  0  0  0
   12.2754   -3.9389    3.1741 H   0  0  0  0  0  0  0  0  0  0  0  0
   13.0475   -3.8107    1.6035 H   0  0  0  0  0  0  0  0  0  0  0  0
   12.8353   -5.4126    2.3851 H   0  0  0  0  0  0  0  0  0  0  0  0
   12.8566   -6.3565    0.4822 H   0  0  0  0  0  0  0  0  0  0  0  0
   13.9728   -4.8423   -2.8104 H   0  0  0  0  0  0  0  0  0  0  0  0
   17.8147   -8.3697   -2.8674 H   0  0  0  0  0  0  0  0  0  0  0  0
   17.9828   -4.9553   -3.0533 H   0  0  0  0  0  0  0  0  0  0  0  0
   19.3274   -3.6259   -4.5701 H   0  0  0  0  0  0  0  0  0  0  0  0
   21.0465   -5.3905   -8.5708 H   0  0  0  0  0  0  0  0  0  0  0  0
   22.1307   -5.6715   -7.1890 H   0  0  0  0  0  0  0  0  0  0  0  0
   23.1733   -4.1411   -8.8381 H   0  0  0  0  0  0  0  0  0  0  0  0
   22.9644   -3.3786   -7.2544 H   0  0  0  0  0  0  0  0  0  0  0  0
   23.3467   -1.8649   -9.8068 H   0  0  0  0  0  0  0  0  0  0  0  0
   23.0668   -1.1206   -8.2176 H   0  0  0  0  0  0  0  0  0  0  0  0
   22.0205   -0.7288   -9.5981 H   0  0  0  0  0  0  0  0  0  0  0  0
   20.0028   -1.4128   -8.3556 H   0  0  0  0  0  0  0  0  0  0  0  0
   21.0519   -1.7192   -6.9635 H   0  0  0  0  0  0  0  0  0  0  0  0
   19.1318   -3.7270   -8.2732 H   0  0  0  0  0  0  0  0  0  0  0  0
   18.9309   -2.9057   -6.7234 H   0  0  0  0  0  0  0  0  0  0  0  0
   20.0812   -7.1056   -6.9811 H   0  0  0  0  0  0  0  0  0  0  0  0
   18.7530   -8.4564   -5.4319 H   0  0  0  0  0  0  0  0  0  0  0  0
   14.7797   -7.7665    0.2098 H   0  0  0  0  0  0  0  0  0  0  0  0
    9.4396   -4.9366   -1.4721 H   0  0  0  0  0  0  0  0  0  0  0  0
    3.5808   -3.9582    1.4780 H   0  0  0  0  0  0  0  0  0  0  0  0
  1  2  1  0  0  0  0
  1 44  1  0  0  0  0
  1 45  1  0  0  0  0
  1 46  1  0  0  0  0
  2  3  1  0  0  0  0
  3  4  1  0  0  0  0
  3 43  2  0  0  0  0
  4  5  2  0  0  0  0
  4 47  1  0  0  0  0
  5  6  1  0  0  0  0
  5  8  1  0  0  0  0
  6  7  1  0  0  0  0
  7 48  1  0  0  0  0
  7 49  1  0  0  0  0
  7 50  1  0  0  0  0
  8  9  2  0  0  0  0
  8 51  1  0  0  0  0
  9 10  1  0  0  0  0
  9 43  1  0  0  0  0
 10 11  2  0  0  0  0
 10 12  1  0  0  0  0
 12 13  1  0  0  0  0
 12 52  1  0  0  0  0
 13 14  1  0  0  0  0
 13 42  2  0  0  0  0
 14 15  2  0  0  0  0
 14 53  1  0  0  0  0
 15 16  1  0  0  0  0
 15 54  1  0  0  0  0
 16 17  1  0  0  0  0
 16 18  2  0  0  0  0
 17 55  1  0  0  0  0
 17 56  1  0  0  0  0
 17 57  1  0  0  0  0
 18 19  1  0  0  0  0
 18 42  1  0  0  0  0
 19 20  2  0  0  0  0
 19 21  1  0  0  0  0
 21 22  1  0  0  0  0
 21 58  1  0  0  0  0
 22 23  1  0  0  0  0
 22 41  2  0  0  0  0
 23 24  2  0  0  0  0
 23 59  1  0  0  0  0
 24 25  1  0  0  0  0
 25 26  1  0  0  0  0
 25 40  2  0  0  0  0
 26 27  1  0  0  0  0
 26 60  1  0  0  0  0
 27 28  1  0  0  0  0
 27 39  2  0  0  0  0
 28 29  2  0  0  0  0
 28 61  1  0  0  0  0
 29 30  1  0  0  0  0
 29 62  1  0  0  0  0
 30 31  1  0  0  0  0
 30 38  2  0  0  0  0
 31 32  1  0  0  0  0
 31 37  1  0  0  0  0
 32 33  1  0  0  0  0
 32 63  1  0  0  0  0
 32 64  1  0  0  0  0
 33 34  1  0  0  0  0
 33 65  1  0  0  0  0
 33 66  1  0  0  0  0
 34 35  1  0  0  0  0
 34 36  1  0  0  0  0
 35 67  1  0  0  0  0
 35 68  1  0  0  0  0
 35 69  1  0  0  0  0
 36 37  1  0  0  0  0
 36 70  1  0  0  0  0
 36 71  1  0  0  0  0
 37 72  1  0  0  0  0
 37 73  1  0  0  0  0
 38 39  1  0  0  0  0
 38 74  1  0  0  0  0
 39 75  1  0  0  0  0
 40 41  1  0  0  0  0
 41 76  1  0  0  0  0
 42 77  1  0  0  0  0
 43 78  1  0  0  0  0
M  END
$$$$
