CHEMBL4553770
 OpenBabel04072215383D

 55 58  0  0  0  0  0  0  0  0999 V2000
    0.2698    1.1579    1.7482 C   0  0  0  0  0  0  0  0  0  0  0  0
    1.6523    1.4825    1.8720 O   0  0  0  0  0  0  0  0  0  0  0  0
    2.4195    0.5911    2.5732 C   0  0  0  0  0  0  0  0  0  0  0  0
    1.9567   -0.5866    3.1433 C   0  0  0  0  0  0  0  0  0  0  0  0
    2.8329   -1.4313    3.8273 C   0  0  0  0  0  0  0  0  0  0  0  0
    4.1887   -1.1183    3.9610 C   0  0  0  0  0  0  0  0  0  0  0  0
    5.1034   -1.9379    4.6672 N   0  0  0  0  0  0  0  0  0  0  0  0
    4.8256   -3.1623    5.2203 C   0  0  0  0  0  0  0  0  0  0  0  0
    3.7549   -3.7625    5.1076 O   0  0  0  0  0  0  0  0  0  0  0  0
    5.8729   -3.6676    5.9788 N   0  0  0  0  0  0  0  0  0  0  0  0
    5.7221   -4.9112    6.6411 C   0  0  0  0  0  0  0  0  0  0  0  0
    5.2182   -6.0226    5.9530 C   0  0  0  0  0  0  0  0  0  0  0  0
    4.9505   -7.2000    6.6374 C   0  0  0  0  0  0  0  0  0  0  0  0
    5.1621   -7.2570    8.0283 C   0  0  0  0  0  0  0  0  0  0  0  0
    4.7877   -8.4959    8.7275 C   0  0  0  0  0  0  0  0  0  0  0  0
    4.7953   -9.5502    8.0981 O   0  0  0  0  0  0  0  0  0  0  0  0
    4.3942   -8.3490   10.0691 N   0  0  0  0  0  0  0  0  0  0  0  0
    3.7540   -9.4032   10.6718 N   0  0  0  0  0  0  0  0  0  0  0  0
    4.4282  -10.5128   10.6581 C   0  0  0  0  0  0  0  0  0  0  0  0
    5.9474  -10.7370   10.6200 C   0  0  0  0  0  0  0  0  0  0  0  0
    6.7981   -9.9926   11.0633 O   0  0  0  0  0  0  0  0  0  0  0  0
    6.1090  -11.9670   10.0186 N   0  0  0  0  0  0  0  0  0  0  0  0
    4.8786  -12.4316    9.5652 C   0  0  0  0  0  0  0  0  0  0  0  0
    4.6458  -13.2274    8.4649 C   0  0  0  0  0  0  0  0  0  0  0  0
    3.3143  -13.3537    8.0375 C   0  0  0  0  0  0  0  0  0  0  0  0
    2.2460  -12.7832    8.7652 C   0  0  0  0  0  0  0  0  0  0  0  0
    0.9245  -12.8792    8.4258 O   0  0  0  0  0  0  0  0  0  0  0  0
    0.5901  -13.9939    7.6111 C   0  0  0  0  0  0  0  0  0  0  0  0
    2.5036  -11.9512    9.8490 C   0  0  0  0  0  0  0  0  0  0  0  0
    3.8272  -11.7523   10.1754 C   0  0  0  0  0  0  0  0  0  0  0  0
    5.7175   -6.1664    8.7094 C   0  0  0  0  0  0  0  0  0  0  0  0
    6.0111   -5.0008    7.9939 C   0  0  0  0  0  0  0  0  0  0  0  0
    4.6530    0.0696    3.3931 C   0  0  0  0  0  0  0  0  0  0  0  0
    3.7700    0.9163    2.7008 C   0  0  0  0  0  0  0  0  0  0  0  0
   -0.2033    1.9189    1.1207 H   0  0  0  0  0  0  0  0  0  0  0  0
   -0.2233    1.1765    2.7269 H   0  0  0  0  0  0  0  0  0  0  0  0
    0.1246    0.1900    1.2545 H   0  0  0  0  0  0  0  0  0  0  0  0
    0.9144   -0.8929    3.0834 H   0  0  0  0  0  0  0  0  0  0  0  0
    2.3978   -2.3303    4.2500 H   0  0  0  0  0  0  0  0  0  0  0  0
    6.0753   -1.6490    4.6662 H   0  0  0  0  0  0  0  0  0  0  0  0
    6.3951   -2.9532    6.4785 H   0  0  0  0  0  0  0  0  0  0  0  0
    5.0110   -5.9763    4.8873 H   0  0  0  0  0  0  0  0  0  0  0  0
    4.5471   -8.0468    6.1100 H   0  0  0  0  0  0  0  0  0  0  0  0
    4.0093   -7.4441   10.3226 H   0  0  0  0  0  0  0  0  0  0  0  0
    7.0018  -12.4237    9.9065 H   0  0  0  0  0  0  0  0  0  0  0  0
    5.4572  -13.5767    7.8356 H   0  0  0  0  0  0  0  0  0  0  0  0
    3.1315  -13.8242    7.0743 H   0  0  0  0  0  0  0  0  0  0  0  0
   -0.4986  -14.0926    7.6096 H   0  0  0  0  0  0  0  0  0  0  0  0
    1.0112  -14.9215    8.0144 H   0  0  0  0  0  0  0  0  0  0  0  0
    0.9155  -13.8283    6.5796 H   0  0  0  0  0  0  0  0  0  0  0  0
    1.7174  -11.3812   10.3288 H   0  0  0  0  0  0  0  0  0  0  0  0
    5.9064   -6.2111    9.7745 H   0  0  0  0  0  0  0  0  0  0  0  0
    6.3958   -4.1430    8.5447 H   0  0  0  0  0  0  0  0  0  0  0  0
    5.6962    0.3600    3.4705 H   0  0  0  0  0  0  0  0  0  0  0  0
    4.1435    1.8356    2.2565 H   0  0  0  0  0  0  0  0  0  0  0  0
  1  2  1  0  0  0  0
  1 35  1  0  0  0  0
  1 36  1  0  0  0  0
  1 37  1  0  0  0  0
  2  3  1  0  0  0  0
  3  4  1  0  0  0  0
  3 34  2  0  0  0  0
  4  5  2  0  0  0  0
  4 38  1  0  0  0  0
  5  6  1  0  0  0  0
  5 39  1  0  0  0  0
  6  7  1  0  0  0  0
  6 33  2  0  0  0  0
  7  8  1  0  0  0  0
  7 40  1  0  0  0  0
  8  9  2  0  0  0  0
  8 10  1  0  0  0  0
 10 11  1  0  0  0  0
 10 41  1  0  0  0  0
 11 12  1  0  0  0  0
 11 32  2  0  0  0  0
 12 13  2  0  0  0  0
 12 42  1  0  0  0  0
 13 14  1  0  0  0  0
 13 43  1  0  0  0  0
 14 15  1  0  0  0  0
 14 31  2  0  0  0  0
 15 16  2  0  0  0  0
 15 17  1  0  0  0  0
 17 18  1  0  0  0  0
 17 44  1  0  0  0  0
 18 19  2  0  0  0  0
 19 20  1  0  0  0  0
 19 30  1  0  0  0  0
 20 21  2  0  0  0  0
 20 22  1  0  0  0  0
 22 23  1  0  0  0  0
 22 45  1  0  0  0  0
 23 24  1  0  0  0  0
 23 30  2  0  0  0  0
 24 25  2  0  0  0  0
 24 46  1  0  0  0  0
 25 26  1  0  0  0  0
 25 47  1  0  0  0  0
 26 27  1  0  0  0  0
 26 29  2  0  0  0  0
 27 28  1  0  0  0  0
 28 48  1  0  0  0  0
 28 49  1  0  0  0  0
 28 50  1  0  0  0  0
 29 30  1  0  0  0  0
 29 51  1  0  0  0  0
 31 32  1  0  0  0  0
 31 52  1  0  0  0  0
 32 53  1  0  0  0  0
 33 34  1  0  0  0  0
 33 54  1  0  0  0  0
 34 55  1  0  0  0  0
M  END
$$$$
