CHEMBL4750711
 OpenBabel04072215383D

 50 53  0  0  0  0  0  0  0  0999 V2000
    6.8289   -1.1501    7.0801 C   0  0  0  0  0  0  0  0  0  0  0  0
    5.7975   -2.1365    7.1447 O   0  0  0  0  0  0  0  0  0  0  0  0
    5.4564   -2.6908    5.9375 C   0  0  0  0  0  0  0  0  0  0  0  0
    5.6025   -1.9889    4.7316 C   0  0  0  0  0  0  0  0  0  0  0  0
    5.3973   -2.5831    3.4995 C   0  0  0  0  0  0  0  0  0  0  0  0
    5.6413   -1.8549    2.4077 N   0  0  0  0  0  0  0  0  0  0  0  0
    5.4563   -2.4628    1.2358 C   0  0  0  0  0  0  0  0  0  0  0  0
    5.0229   -3.7104    1.0663 N   0  0  0  0  0  0  0  0  0  0  0  0
    4.7587   -4.4321    2.1744 C   0  0  0  0  0  0  0  0  0  0  0  0
    4.2315   -5.7431    2.0245 N   0  0  0  0  0  0  0  0  0  0  0  0
    3.6875   -6.2454    0.8245 C   0  0  0  0  0  0  0  0  0  0  0  0
    3.8910   -7.5742    0.4574 C   0  0  0  0  0  0  0  0  0  0  0  0
    3.4519   -8.0393   -0.7854 C   0  0  0  0  0  0  0  0  0  0  0  0
    2.7896   -7.1885   -1.6749 C   0  0  0  0  0  0  0  0  0  0  0  0
    2.4235   -7.5472   -2.9857 N   0  0  0  0  0  0  0  0  0  0  0  0
    2.6438   -8.7556   -3.6088 C   0  0  0  0  0  0  0  0  0  0  0  0
    3.2252   -9.7178   -3.1145 O   0  0  0  0  0  0  0  0  0  0  0  0
    2.1777   -8.8954   -5.0215 C   0  0  0  0  0  0  0  0  0  0  0  0
    2.9684   -9.7562   -5.8125 C   0  0  0  0  0  0  0  0  0  0  0  0
    2.6046  -10.0851   -7.1172 C   0  0  0  0  0  0  0  0  0  0  0  0
    1.4428   -9.5529   -7.6589 C   0  0  0  0  0  0  0  0  0  0  0  0
    0.6631   -8.6738   -6.9059 C   0  0  0  0  0  0  0  0  0  0  0  0
    1.0220   -8.3357   -5.5893 C   0  0  0  0  0  0  0  0  0  0  0  0
   -0.3216   -7.0412   -4.6186 I   0  0  0  0  0  0  0  0  0  0  0  0
    2.4823   -5.8919   -1.2609 C   0  0  0  0  0  0  0  0  0  0  0  0
    2.9124   -5.4361   -0.0173 C   0  0  0  0  0  0  0  0  0  0  0  0
    4.9634   -3.9112    3.4588 C   0  0  0  0  0  0  0  0  0  0  0  0
    4.7448   -4.6092    4.6693 C   0  0  0  0  0  0  0  0  0  0  0  0
    4.9738   -4.0020    5.9051 C   0  0  0  0  0  0  0  0  0  0  0  0
    4.7633   -4.8330    6.9705 O   0  0  0  0  0  0  0  0  0  0  0  0
    4.2195   -4.2355    8.1420 C   0  0  0  0  0  0  0  0  0  0  0  0
    7.2842   -1.0685    8.0701 H   0  0  0  0  0  0  0  0  0  0  0  0
    6.4051   -0.1746    6.8186 H   0  0  0  0  0  0  0  0  0  0  0  0
    7.6230   -1.4282    6.3759 H   0  0  0  0  0  0  0  0  0  0  0  0
    5.9047   -0.9455    4.7260 H   0  0  0  0  0  0  0  0  0  0  0  0
    5.6749   -1.8920    0.3405 H   0  0  0  0  0  0  0  0  0  0  0  0
    4.8352   -6.4115    2.4914 H   0  0  0  0  0  0  0  0  0  0  0  0
    4.4337   -8.2570    1.1048 H   0  0  0  0  0  0  0  0  0  0  0  0
    3.6690   -9.0707   -1.0383 H   0  0  0  0  0  0  0  0  0  0  0  0
    1.9618   -6.8267   -3.5282 H   0  0  0  0  0  0  0  0  0  0  0  0
    3.8755  -10.1968   -5.3971 H   0  0  0  0  0  0  0  0  0  0  0  0
    3.2200  -10.7696   -7.6963 H   0  0  0  0  0  0  0  0  0  0  0  0
    1.1364   -9.8287   -8.6650 H   0  0  0  0  0  0  0  0  0  0  0  0
   -0.2441   -8.2767   -7.3572 H   0  0  0  0  0  0  0  0  0  0  0  0
    1.9282   -5.2082   -1.8981 H   0  0  0  0  0  0  0  0  0  0  0  0
    2.6732   -4.4175    0.2792 H   0  0  0  0  0  0  0  0  0  0  0  0
    4.3958   -5.6392    4.6560 H   0  0  0  0  0  0  0  0  0  0  0  0
    3.5342   -4.9628    8.5907 H   0  0  0  0  0  0  0  0  0  0  0  0
    3.6416   -3.3271    7.9426 H   0  0  0  0  0  0  0  0  0  0  0  0
    5.0197   -4.0434    8.8623 H   0  0  0  0  0  0  0  0  0  0  0  0
  1  2  1  0  0  0  0
  1 32  1  0  0  0  0
  1 33  1  0  0  0  0
  1 34  1  0  0  0  0
  2  3  1  0  0  0  0
  3  4  1  0  0  0  0
  3 29  2  0  0  0  0
  4  5  2  0  0  0  0
  4 35  1  0  0  0  0
  5  6  1  0  0  0  0
  5 27  1  0  0  0  0
  6  7  2  0  0  0  0
  7  8  1  0  0  0  0
  7 36  1  0  0  0  0
  8  9  2  0  0  0  0
  9 10  1  0  0  0  0
  9 27  1  0  0  0  0
 10 11  1  0  0  0  0
 10 37  1  0  0  0  0
 11 12  1  0  0  0  0
 11 26  2  0  0  0  0
 12 13  2  0  0  0  0
 12 38  1  0  0  0  0
 13 14  1  0  0  0  0
 13 39  1  0  0  0  0
 14 15  1  0  0  0  0
 14 25  2  0  0  0  0
 15 16  1  0  0  0  0
 15 40  1  0  0  0  0
 16 17  2  0  0  0  0
 16 18  1  0  0  0  0
 18 19  1  0  0  0  0
 18 23  2  0  0  0  0
 19 20  2  0  0  0  0
 19 41  1  0  0  0  0
 20 21  1  0  0  0  0
 20 42  1  0  0  0  0
 21 22  2  0  0  0  0
 21 43  1  0  0  0  0
 22 23  1  0  0  0  0
 22 44  1  0  0  0  0
 23 24  1  0  0  0  0
 25 26  1  0  0  0  0
 25 45  1  0  0  0  0
 26 46  1  0  0  0  0
 27 28  2  0  0  0  0
 28 29  1  0  0  0  0
 28 47  1  0  0  0  0
 29 30  1  0  0  0  0
 30 31  1  0  0  0  0
 31 48  1  0  0  0  0
 31 49  1  0  0  0  0
 31 50  1  0  0  0  0
M  END
$$$$
