CHEMBL1095464
 OpenBabel04072215363D

 44 47  0  0  0  0  0  0  0  0999 V2000
    0.6135   -3.0084    3.1447 C   0  0  0  0  0  0  0  0  0  0  0  0
    0.3682   -4.0045    2.0439 C   0  0  0  0  0  0  0  0  0  0  0  0
   -0.2229   -5.2360    2.3781 C   0  0  0  0  0  0  0  0  0  0  0  0
   -0.5163   -6.1829    1.3978 C   0  0  0  0  0  0  0  0  0  0  0  0
   -0.2109   -5.9199    0.0684 C   0  0  0  0  0  0  0  0  0  0  0  0
    0.3966   -4.7140   -0.2781 C   0  0  0  0  0  0  0  0  0  0  0  0
    0.6927   -3.7403    0.6949 C   0  0  0  0  0  0  0  0  0  0  0  0
    1.2659   -2.4236    0.2274 C   0  0  0  0  0  0  0  0  0  0  0  0
    2.7522   -2.3661    0.0583 C   0  0  0  0  0  0  0  0  0  0  0  0
    3.5692   -2.7004   -1.0134 C   0  0  0  0  0  0  0  0  0  0  0  0
    4.7957   -1.9849   -0.8534 C   0  0  0  0  0  0  0  0  0  0  0  0
    5.9214   -1.6797   -1.6387 C   0  0  0  0  0  0  0  0  0  0  0  0
    6.1348   -2.2177   -2.9164 N   0  0  0  0  0  0  0  0  0  0  0  0
    6.7786   -1.6075   -4.0102 C   0  0  0  0  0  0  0  0  0  0  0  0
    7.3156   -2.4040   -5.0305 C   0  0  0  0  0  0  0  0  0  0  0  0
    8.0141   -1.8312   -6.1006 C   0  0  0  0  0  0  0  0  0  0  0  0
    8.1825   -0.4482   -6.1654 C   0  0  0  0  0  0  0  0  0  0  0  0
    7.6602    0.3534   -5.1588 C   0  0  0  0  0  0  0  0  0  0  0  0
    7.8800    2.2291   -5.2305 Br  0  0  0  0  0  0  0  0  0  0  0  0
    6.9766   -0.2209   -4.0909 C   0  0  0  0  0  0  0  0  0  0  0  0
    6.7988   -0.7673   -1.1406 N   0  0  0  0  0  0  0  0  0  0  0  0
    6.5798   -0.1937    0.0465 C   0  0  0  0  0  0  0  0  0  0  0  0
    7.4422    0.8268    0.3913 N   0  0  0  0  0  0  0  0  0  0  0  0
    5.5947   -0.4843    0.8976 N   0  0  0  0  0  0  0  0  0  0  0  0
    4.7262   -1.3619    0.3804 C   0  0  0  0  0  0  0  0  0  0  0  0
    3.5522   -1.7259    0.9791 N   0  0  0  0  0  0  0  0  0  0  0  0
    0.1645   -3.3373    4.0887 H   0  0  0  0  0  0  0  0  0  0  0  0
    0.1577   -2.0430    2.9050 H   0  0  0  0  0  0  0  0  0  0  0  0
    1.6868   -2.8811    3.3102 H   0  0  0  0  0  0  0  0  0  0  0  0
   -0.4771   -5.4608    3.4121 H   0  0  0  0  0  0  0  0  0  0  0  0
   -0.9907   -7.1211    1.6730 H   0  0  0  0  0  0  0  0  0  0  0  0
   -0.4538   -6.6475   -0.7009 H   0  0  0  0  0  0  0  0  0  0  0  0
    0.6152   -4.5200   -1.3264 H   0  0  0  0  0  0  0  0  0  0  0  0
    0.9428   -1.6112    0.8886 H   0  0  0  0  0  0  0  0  0  0  0  0
    0.8067   -2.1693   -0.7385 H   0  0  0  0  0  0  0  0  0  0  0  0
    3.2476   -3.2229   -1.9050 H   0  0  0  0  0  0  0  0  0  0  0  0
    5.5390   -2.9978   -3.1544 H   0  0  0  0  0  0  0  0  0  0  0  0
    7.2220   -3.4859   -4.9854 H   0  0  0  0  0  0  0  0  0  0  0  0
    8.4360   -2.4639   -6.8762 H   0  0  0  0  0  0  0  0  0  0  0  0
    8.7270   -0.0070   -6.9969 H   0  0  0  0  0  0  0  0  0  0  0  0
    6.5748    0.4304   -3.3118 H   0  0  0  0  0  0  0  0  0  0  0  0
    8.3009    0.7485   -0.1346 H   0  0  0  0  0  0  0  0  0  0  0  0
    7.4960    0.9399    1.3912 H   0  0  0  0  0  0  0  0  0  0  0  0
    3.2589   -1.3676    1.8755 H   0  0  0  0  0  0  0  0  0  0  0  0
  1  2  1  0  0  0  0
  1 27  1  0  0  0  0
  1 28  1  0  0  0  0
  1 29  1  0  0  0  0
  2  3  1  0  0  0  0
  2  7  2  0  0  0  0
  3  4  2  0  0  0  0
  3 30  1  0  0  0  0
  4  5  1  0  0  0  0
  4 31  1  0  0  0  0
  5  6  2  0  0  0  0
  5 32  1  0  0  0  0
  6  7  1  0  0  0  0
  6 33  1  0  0  0  0
  7  8  1  0  0  0  0
  8  9  1  0  0  0  0
  8 34  1  0  0  0  0
  8 35  1  0  0  0  0
  9 10  2  0  0  0  0
  9 26  1  0  0  0  0
 10 11  1  0  0  0  0
 10 36  1  0  0  0  0
 11 12  1  0  0  0  0
 11 25  2  0  0  0  0
 12 13  1  0  0  0  0
 12 21  2  0  0  0  0
 13 14  1  0  0  0  0
 13 37  1  0  0  0  0
 14 15  1  0  0  0  0
 14 20  2  0  0  0  0
 15 16  2  0  0  0  0
 15 38  1  0  0  0  0
 16 17  1  0  0  0  0
 16 39  1  0  0  0  0
 17 18  2  0  0  0  0
 17 40  1  0  0  0  0
 18 19  1  0  0  0  0
 18 20  1  0  0  0  0
 20 41  1  0  0  0  0
 21 22  1  0  0  0  0
 22 23  1  0  0  0  0
 22 24  2  0  0  0  0
 23 42  1  0  0  0  0
 23 43  1  0  0  0  0
 24 25  1  0  0  0  0
 25 26  1  0  0  0  0
 26 44  1  0  0  0  0
M  END
$$$$
