CHEMBL4286011
 OpenBabel04072215383D

 50 53  0  0  0  0  0  0  0  0999 V2000
    2.5209   -0.2782    0.4683 C   0  0  0  0  0  0  0  0  0  0  0  0
    1.0320   -0.1410    0.3411 C   0  0  0  0  0  0  0  0  0  0  0  0
    0.4226   -0.0661   -0.9160 C   0  0  0  0  0  0  0  0  0  0  0  0
   -0.9706    0.0234   -1.0263 C   0  0  0  0  0  0  0  0  0  0  0  0
   -1.7687    0.0617    0.1244 C   0  0  0  0  0  0  0  0  0  0  0  0
   -3.2763    0.0641    0.0424 C   0  0  0  0  0  0  0  0  0  0  0  0
   -3.8872   -0.5287    1.0284 N   0  0  0  0  0  0  0  0  0  0  0  0
   -5.2647   -0.7262    0.9655 C   0  0  0  0  0  0  0  0  0  0  0  0
   -6.0771   -1.0442   -0.1485 C   0  0  0  0  0  0  0  0  0  0  0  0
   -7.3261   -1.3243    0.2249 N   0  0  0  0  0  0  0  0  0  0  0  0
   -7.3102   -1.1350    1.5586 N   0  0  0  0  0  0  0  0  0  0  0  0
   -6.0920   -0.7629    2.0557 C   0  0  0  0  0  0  0  0  0  0  0  0
   -5.8501   -0.4854    3.4862 C   0  0  0  0  0  0  0  0  0  0  0  0
   -5.6641   -0.9637   -1.4318 N   0  0  0  0  0  0  0  0  0  0  0  0
   -4.9574    0.1717   -1.8547 C   0  0  0  0  0  0  0  0  0  0  0  0
   -5.4478    0.7567   -2.9650 N   0  0  0  0  0  0  0  0  0  0  0  0
   -4.9781    1.9547   -3.3185 C   0  0  0  0  0  0  0  0  0  0  0  0
   -5.5331    2.6423   -4.3760 N   0  0  0  0  0  0  0  0  0  0  0  0
   -6.0524    1.9508   -5.5606 C   0  0  0  0  0  0  0  0  0  0  0  0
   -7.3395    1.1702   -5.2490 C   0  0  0  0  0  0  0  0  0  0  0  0
   -6.4085    3.0426   -6.5913 C   0  0  0  0  0  0  0  0  0  0  0  0
   -4.9915    1.0333   -6.1866 C   0  0  0  0  0  0  0  0  0  0  0  0
   -3.9966    2.5805   -2.6618 N   0  0  0  0  0  0  0  0  0  0  0  0
   -3.4794    1.9457   -1.5866 C   0  0  0  0  0  0  0  0  0  0  0  0
   -3.9107    0.7160   -1.1372 C   0  0  0  0  0  0  0  0  0  0  0  0
   -1.1564   -0.0057    1.3824 C   0  0  0  0  0  0  0  0  0  0  0  0
    0.2344   -0.1021    1.4894 C   0  0  0  0  0  0  0  0  0  0  0  0
    2.9992   -0.3832   -0.5112 H   0  0  0  0  0  0  0  0  0  0  0  0
    2.7684   -1.1698    1.0542 H   0  0  0  0  0  0  0  0  0  0  0  0
    2.9413    0.6045    0.9596 H   0  0  0  0  0  0  0  0  0  0  0  0
    1.0236   -0.1014   -1.8213 H   0  0  0  0  0  0  0  0  0  0  0  0
   -1.4051    0.0238   -2.0216 H   0  0  0  0  0  0  0  0  0  0  0  0
   -8.1770   -1.2730    2.0676 H   0  0  0  0  0  0  0  0  0  0  0  0
   -6.7735   -0.5443    4.0710 H   0  0  0  0  0  0  0  0  0  0  0  0
   -5.4410    0.5233    3.6090 H   0  0  0  0  0  0  0  0  0  0  0  0
   -5.1336   -1.1992    3.9024 H   0  0  0  0  0  0  0  0  0  0  0  0
   -6.4122   -1.1099   -2.1051 H   0  0  0  0  0  0  0  0  0  0  0  0
   -4.9354    3.4418   -4.5545 H   0  0  0  0  0  0  0  0  0  0  0  0
   -8.0904    1.8158   -4.7793 H   0  0  0  0  0  0  0  0  0  0  0  0
   -7.1708    0.3227   -4.5796 H   0  0  0  0  0  0  0  0  0  0  0  0
   -7.7772    0.7559   -6.1646 H   0  0  0  0  0  0  0  0  0  0  0  0
   -7.1538    3.7394   -6.1900 H   0  0  0  0  0  0  0  0  0  0  0  0
   -6.8163    2.6055   -7.5099 H   0  0  0  0  0  0  0  0  0  0  0  0
   -5.5260    3.6326   -6.8658 H   0  0  0  0  0  0  0  0  0  0  0  0
   -4.7019    0.2180   -5.5156 H   0  0  0  0  0  0  0  0  0  0  0  0
   -4.0820    1.5926   -6.4347 H   0  0  0  0  0  0  0  0  0  0  0  0
   -5.3652    0.5754   -7.1096 H   0  0  0  0  0  0  0  0  0  0  0  0
   -2.6908    2.4948   -1.0793 H   0  0  0  0  0  0  0  0  0  0  0  0
   -1.7585   -0.0094    2.2884 H   0  0  0  0  0  0  0  0  0  0  0  0
    0.6868   -0.1709    2.4762 H   0  0  0  0  0  0  0  0  0  0  0  0
  1  2  1  0  0  0  0
  1 28  1  0  0  0  0
  1 29  1  0  0  0  0
  1 30  1  0  0  0  0
  2  3  1  0  0  0  0
  2 27  2  0  0  0  0
  3  4  2  0  0  0  0
  3 31  1  0  0  0  0
  4  5  1  0  0  0  0
  4 32  1  0  0  0  0
  5  6  1  0  0  0  0
  5 26  2  0  0  0  0
  6  7  2  0  0  0  0
  6 25  1  0  0  0  0
  7  8  1  0  0  0  0
  8  9  1  0  0  0  0
  8 12  2  0  0  0  0
  9 10  2  0  0  0  0
  9 14  1  0  0  0  0
 10 11  1  0  0  0  0
 11 12  1  0  0  0  0
 11 33  1  0  0  0  0
 12 13  1  0  0  0  0
 13 34  1  0  0  0  0
 13 35  1  0  0  0  0
 13 36  1  0  0  0  0
 14 15  1  0  0  0  0
 14 37  1  0  0  0  0
 15 16  1  0  0  0  0
 15 25  2  0  0  0  0
 16 17  2  0  0  0  0
 17 18  1  0  0  0  0
 17 23  1  0  0  0  0
 18 19  1  0  0  0  0
 18 38  1  0  0  0  0
 19 20  1  0  0  0  0
 19 21  1  0  0  0  0
 19 22  1  0  0  0  0
 20 39  1  0  0  0  0
 20 40  1  0  0  0  0
 20 41  1  0  0  0  0
 21 42  1  0  0  0  0
 21 43  1  0  0  0  0
 21 44  1  0  0  0  0
 22 45  1  0  0  0  0
 22 46  1  0  0  0  0
 22 47  1  0  0  0  0
 23 24  2  0  0  0  0
 24 25  1  0  0  0  0
 24 48  1  0  0  0  0
 26 27  1  0  0  0  0
 26 49  1  0  0  0  0
 27 50  1  0  0  0  0
M  END
$$$$
