CHEMBL3220321
 OpenBabel04072215363D

 76 79  0  0  0  0  0  0  0  0999 V2000
    2.5428    1.0978    1.6169 C   0  0  0  0  0  0  0  0  0  0  0  0
    3.4375    0.4473    0.7219 O   0  0  0  0  0  0  0  0  0  0  0  0
    3.4680    0.8917   -0.5728 C   0  0  0  0  0  0  0  0  0  0  0  0
    3.0715    2.1817   -0.9560 C   0  0  0  0  0  0  0  0  0  0  0  0
    3.2992    2.7167   -2.2515 C   0  0  0  0  0  0  0  0  0  0  0  0
    2.9702    4.1495   -2.5404 C   0  0  0  0  0  0  0  0  0  0  0  0
    3.1304    5.0669   -1.4781 C   0  0  0  0  0  0  0  0  0  0  0  0
    2.7776    6.4141   -1.5342 C   0  0  0  0  0  0  0  0  0  0  0  0
    2.8375    7.2648   -0.3964 N   0  0  0  0  0  0  0  0  0  0  0  0
    3.2542    6.8842    0.8727 C   0  0  0  0  0  0  0  0  0  0  0  0
    3.7104    5.7847    1.1686 O   0  0  0  0  0  0  0  0  0  0  0  0
    3.0601    7.8786    1.8245 N   0  0  0  0  0  0  0  0  0  0  0  0
    3.4986    7.6572    3.1575 C   0  0  0  0  0  0  0  0  0  0  0  0
    4.7615    7.1192    3.4172 C   0  0  0  0  0  0  0  0  0  0  0  0
    5.1595    6.8256    4.7237 C   0  0  0  0  0  0  0  0  0  0  0  0
    4.2986    7.0684    5.7941 C   0  0  0  0  0  0  0  0  0  0  0  0
    4.5784    6.7842    7.1102 O   0  0  0  0  0  0  0  0  0  0  0  0
    5.9781    6.7903    7.4320 C   0  0  0  0  0  0  0  0  0  0  0  0
    6.2101    6.4301    8.9122 C   0  0  0  0  0  0  0  0  0  0  0  0
    7.6192    6.5848    9.3294 N   0  0  0  0  0  0  0  0  0  0  0  0
    8.5570    5.6918    8.6295 C   0  0  0  0  0  0  0  0  0  0  0  0
    8.8042    4.5349    9.5727 C   0  0  0  0  0  0  0  0  0  0  0  0
    8.8249    5.2228   10.9176 C   0  0  0  0  0  0  0  0  0  0  0  0
    7.7869    6.3296   10.7750 C   0  0  0  0  0  0  0  0  0  0  0  0
    3.0343    7.6062    5.5344 C   0  0  0  0  0  0  0  0  0  0  0  0
    2.6444    7.9317    4.2253 C   0  0  0  0  0  0  0  0  0  0  0  0
    2.3125    6.9051   -2.7499 C   0  0  0  0  0  0  0  0  0  0  0  0
    2.1948    6.0501   -3.8672 C   0  0  0  0  0  0  0  0  0  0  0  0
    1.6482    6.5294   -5.0351 O   0  0  0  0  0  0  0  0  0  0  0  0
    2.2353    7.7410   -5.5073 C   0  0  0  0  0  0  0  0  0  0  0  0
    2.5067    4.6700   -3.7684 C   0  0  0  0  0  0  0  0  0  0  0  0
    2.3229    3.7577   -4.7809 O   0  0  0  0  0  0  0  0  0  0  0  0
    2.5225    4.2091   -6.1155 C   0  0  0  0  0  0  0  0  0  0  0  0
    3.9191    1.8681   -3.1741 C   0  0  0  0  0  0  0  0  0  0  0  0
    4.2603    0.5503   -2.8327 C   0  0  0  0  0  0  0  0  0  0  0  0
    4.0237    0.0479   -1.5427 C   0  0  0  0  0  0  0  0  0  0  0  0
    4.3517   -1.3896   -1.2805 C   0  0  0  0  0  0  0  0  0  0  0  0
    3.4877   -2.1848   -0.3157 C   0  0  0  0  0  0  0  0  0  0  0  0
    5.3417   -1.9399   -1.9351 N   0  0  0  0  0  0  0  0  0  0  0  0
    5.4898   -3.2897   -1.5983 O   0  0  0  0  0  0  0  0  0  0  0  0
    2.5515    0.5398    2.5584 H   0  0  0  0  0  0  0  0  0  0  0  0
    1.5205    1.0777    1.2254 H   0  0  0  0  0  0  0  0  0  0  0  0
    2.8655    2.1196    1.8396 H   0  0  0  0  0  0  0  0  0  0  0  0
    2.6074    2.8203   -0.2097 H   0  0  0  0  0  0  0  0  0  0  0  0
    3.5530    4.6702   -0.5648 H   0  0  0  0  0  0  0  0  0  0  0  0
    2.6059    8.2378   -0.5291 H   0  0  0  0  0  0  0  0  0  0  0  0
    2.2041    8.4023    1.7157 H   0  0  0  0  0  0  0  0  0  0  0  0
    5.4481    6.8971    2.6028 H   0  0  0  0  0  0  0  0  0  0  0  0
    6.1372    6.3759    4.8513 H   0  0  0  0  0  0  0  0  0  0  0  0
    6.3838    7.7875    7.2295 H   0  0  0  0  0  0  0  0  0  0  0  0
    6.4902    6.0441    6.8242 H   0  0  0  0  0  0  0  0  0  0  0  0
    5.8459    5.4125    9.1018 H   0  0  0  0  0  0  0  0  0  0  0  0
    5.5814    7.0958    9.5176 H   0  0  0  0  0  0  0  0  0  0  0  0
    9.4923    6.2435    8.4722 H   0  0  0  0  0  0  0  0  0  0  0  0
    8.2348    5.3425    7.6462 H   0  0  0  0  0  0  0  0  0  0  0  0
    9.7395    4.0109    9.3559 H   0  0  0  0  0  0  0  0  0  0  0  0
    7.9800    3.8137    9.5224 H   0  0  0  0  0  0  0  0  0  0  0  0
    9.8168    5.6548   11.0996 H   0  0  0  0  0  0  0  0  0  0  0  0
    8.5956    4.5340   11.7359 H   0  0  0  0  0  0  0  0  0  0  0  0
    8.1302    7.2396   11.2795 H   0  0  0  0  0  0  0  0  0  0  0  0
    6.8522    6.0202   11.2567 H   0  0  0  0  0  0  0  0  0  0  0  0
    2.3413    7.7660    6.3565 H   0  0  0  0  0  0  0  0  0  0  0  0
    1.6491    8.3307    4.0564 H   0  0  0  0  0  0  0  0  0  0  0  0
    1.9983    7.9399   -2.8326 H   0  0  0  0  0  0  0  0  0  0  0  0
    2.1734    7.7360   -6.6006 H   0  0  0  0  0  0  0  0  0  0  0  0
    3.2928    7.8318   -5.2356 H   0  0  0  0  0  0  0  0  0  0  0  0
    1.6656    8.5985   -5.1387 H   0  0  0  0  0  0  0  0  0  0  0  0
    2.7858    3.3398   -6.7270 H   0  0  0  0  0  0  0  0  0  0  0  0
    3.3476    4.9248   -6.1990 H   0  0  0  0  0  0  0  0  0  0  0  0
    1.5925    4.6171   -6.5220 H   0  0  0  0  0  0  0  0  0  0  0  0
    4.1596    2.2189   -4.1745 H   0  0  0  0  0  0  0  0  0  0  0  0
    4.7222   -0.0833   -3.5880 H   0  0  0  0  0  0  0  0  0  0  0  0
    2.6241   -1.6295    0.0498 H   0  0  0  0  0  0  0  0  0  0  0  0
    4.0974   -2.5057    0.5348 H   0  0  0  0  0  0  0  0  0  0  0  0
    3.0942   -3.0663   -0.8301 H   0  0  0  0  0  0  0  0  0  0  0  0
    6.2386   -3.5587   -2.1585 H   0  0  0  0  0  0  0  0  0  0  0  0
  1  2  1  0  0  0  0
  1 41  1  0  0  0  0
  1 42  1  0  0  0  0
  1 43  1  0  0  0  0
  2  3  1  0  0  0  0
  3  4  1  0  0  0  0
  3 36  2  0  0  0  0
  4  5  2  0  0  0  0
  4 44  1  0  0  0  0
  5  6  1  0  0  0  0
  5 34  1  0  0  0  0
  6  7  1  0  0  0  0
  6 31  2  0  0  0  0
  7  8  2  0  0  0  0
  7 45  1  0  0  0  0
  8  9  1  0  0  0  0
  8 27  1  0  0  0  0
  9 10  1  0  0  0  0
  9 46  1  0  0  0  0
 10 11  2  0  0  0  0
 10 12  1  0  0  0  0
 12 13  1  0  0  0  0
 12 47  1  0  0  0  0
 13 14  1  0  0  0  0
 13 26  2  0  0  0  0
 14 15  2  0  0  0  0
 14 48  1  0  0  0  0
 15 16  1  0  0  0  0
 15 49  1  0  0  0  0
 16 17  1  0  0  0  0
 16 25  2  0  0  0  0
 17 18  1  0  0  0  0
 18 19  1  0  0  0  0
 18 50  1  0  0  0  0
 18 51  1  0  0  0  0
 19 20  1  0  0  0  0
 19 52  1  0  0  0  0
 19 53  1  0  0  0  0
 20 21  1  0  0  0  0
 20 24  1  0  0  0  0
 21 22  1  0  0  0  0
 21 54  1  0  0  0  0
 21 55  1  0  0  0  0
 22 23  1  0  0  0  0
 22 56  1  0  0  0  0
 22 57  1  0  0  0  0
 23 24  1  0  0  0  0
 23 58  1  0  0  0  0
 23 59  1  0  0  0  0
 24 60  1  0  0  0  0
 24 61  1  0  0  0  0
 25 26  1  0  0  0  0
 25 62  1  0  0  0  0
 26 63  1  0  0  0  0
 27 28  2  0  0  0  0
 27 64  1  0  0  0  0
 28 29  1  0  0  0  0
 28 31  1  0  0  0  0
 29 30  1  0  0  0  0
 30 65  1  0  0  0  0
 30 66  1  0  0  0  0
 30 67  1  0  0  0  0
 31 32  1  0  0  0  0
 32 33  1  0  0  0  0
 33 68  1  0  0  0  0
 33 69  1  0  0  0  0
 33 70  1  0  0  0  0
 34 35  2  0  0  0  0
 34 71  1  0  0  0  0
 35 36  1  0  0  0  0
 35 72  1  0  0  0  0
 36 37  1  0  0  0  0
 37 38  1  0  0  0  0
 37 39  2  0  0  0  0
 38 73  1  0  0  0  0
 38 74  1  0  0  0  0
 38 75  1  0  0  0  0
 39 40  1  0  0  0  0
 40 76  1  0  0  0  0
M  END
$$$$
