CHEMBL314995
 OpenBabel04072215363D

 45 48  0  0  0  0  0  0  0  0999 V2000
    3.4849    1.5664   -0.5174 O   0  0  0  0  0  0  0  0  0  0  0  0
    4.4327    1.1466   -1.1601 C   0  0  0  0  0  0  0  0  0  0  0  0
    4.9790    1.8528   -2.1805 O   0  0  0  0  0  0  0  0  0  0  0  0
    5.1405   -0.1654   -0.9316 C   0  0  0  0  0  0  0  0  0  0  0  0
    4.5209   -0.9592    0.2204 C   0  0  0  0  0  0  0  0  0  0  0  0
    5.2304   -2.2595    0.4906 C   0  0  0  0  0  0  0  0  0  0  0  0
    6.5567   -2.4097    0.8816 C   0  0  0  0  0  0  0  0  0  0  0  0
    7.6347   -1.5075    0.9906 C   0  0  0  0  0  0  0  0  0  0  0  0
    7.9953   -0.8402    2.0926 C   0  0  0  0  0  0  0  0  0  0  0  0
    7.4589   -0.9000    3.5030 C   0  0  0  0  0  0  0  0  0  0  0  0
    6.5848   -1.6102    3.9530 O   0  0  0  0  0  0  0  0  0  0  0  0
    8.2206    0.0316    4.2080 N   0  0  0  0  0  0  0  0  0  0  0  0
    9.1626    0.6523    3.3902 C   0  0  0  0  0  0  0  0  0  0  0  0
   10.0789    1.6246    3.7459 C   0  0  0  0  0  0  0  0  0  0  0  0
   10.9241    2.1129    2.7415 C   0  0  0  0  0  0  0  0  0  0  0  0
   10.8287    1.6223    1.4273 C   0  0  0  0  0  0  0  0  0  0  0  0
   11.9731    2.3055    0.0842 Br  0  0  0  0  0  0  0  0  0  0  0  0
    9.8986    0.6394    1.0890 C   0  0  0  0  0  0  0  0  0  0  0  0
    9.0731    0.1586    2.0886 C   0  0  0  0  0  0  0  0  0  0  0  0
    6.8225   -3.7489    1.0256 N   0  0  0  0  0  0  0  0  0  0  0  0
    5.7072   -4.4649    0.7015 C   0  0  0  0  0  0  0  0  0  0  0  0
    4.6936   -3.5828    0.3833 C   0  0  0  0  0  0  0  0  0  0  0  0
    3.3367   -4.0592   -0.0324 C   0  0  0  0  0  0  0  0  0  0  0  0
    3.1430   -5.5637    0.2608 C   0  0  0  0  0  0  0  0  0  0  0  0
    4.3884   -6.4000   -0.0859 C   0  0  0  0  0  0  0  0  0  0  0  0
    5.6140   -5.9501    0.7269 C   0  0  0  0  0  0  0  0  0  0  0  0
    5.7317    1.4069   -2.6129 H   0  0  0  0  0  0  0  0  0  0  0  0
    6.1873    0.0727   -0.7165 H   0  0  0  0  0  0  0  0  0  0  0  0
    5.0977   -0.7506   -1.8567 H   0  0  0  0  0  0  0  0  0  0  0  0
    3.4632   -1.1507    0.0016 H   0  0  0  0  0  0  0  0  0  0  0  0
    4.5371   -0.3577    1.1387 H   0  0  0  0  0  0  0  0  0  0  0  0
    8.1601   -1.3209    0.0591 H   0  0  0  0  0  0  0  0  0  0  0  0
    8.0812    0.2115    5.1913 H   0  0  0  0  0  0  0  0  0  0  0  0
   10.1488    2.0047    4.7587 H   0  0  0  0  0  0  0  0  0  0  0  0
   11.6566    2.8808    2.9835 H   0  0  0  0  0  0  0  0  0  0  0  0
    9.8270    0.2706    0.0705 H   0  0  0  0  0  0  0  0  0  0  0  0
    7.7138   -4.1441    1.2934 H   0  0  0  0  0  0  0  0  0  0  0  0
    3.2205   -3.8882   -1.1096 H   0  0  0  0  0  0  0  0  0  0  0  0
    2.5548   -3.4883    0.4797 H   0  0  0  0  0  0  0  0  0  0  0  0
    2.2772   -5.9371   -0.2982 H   0  0  0  0  0  0  0  0  0  0  0  0
    2.9154   -5.7001    1.3261 H   0  0  0  0  0  0  0  0  0  0  0  0
    4.5995   -6.3008   -1.1588 H   0  0  0  0  0  0  0  0  0  0  0  0
    4.1935   -7.4619    0.1039 H   0  0  0  0  0  0  0  0  0  0  0  0
    6.5208   -6.4120    0.3215 H   0  0  0  0  0  0  0  0  0  0  0  0
    5.5053   -6.2833    1.7659 H   0  0  0  0  0  0  0  0  0  0  0  0
  1  2  2  0  0  0  0
  2  3  1  0  0  0  0
  2  4  1  0  0  0  0
  3 27  1  0  0  0  0
  4  5  1  0  0  0  0
  4 28  1  0  0  0  0
  4 29  1  0  0  0  0
  5  6  1  0  0  0  0
  5 30  1  0  0  0  0
  5 31  1  0  0  0  0
  6  7  2  0  0  0  0
  6 22  1  0  0  0  0
  7  8  1  0  0  0  0
  7 20  1  0  0  0  0
  8  9  2  0  0  0  0
  8 32  1  0  0  0  0
  9 10  1  0  0  0  0
  9 19  1  0  0  0  0
 10 11  2  0  0  0  0
 10 12  1  0  0  0  0
 12 13  1  0  0  0  0
 12 33  1  0  0  0  0
 13 14  1  0  0  0  0
 13 19  2  0  0  0  0
 14 15  2  0  0  0  0
 14 34  1  0  0  0  0
 15 16  1  0  0  0  0
 15 35  1  0  0  0  0
 16 17  1  0  0  0  0
 16 18  2  0  0  0  0
 18 19  1  0  0  0  0
 18 36  1  0  0  0  0
 20 21  1  0  0  0  0
 20 37  1  0  0  0  0
 21 22  2  0  0  0  0
 21 26  1  0  0  0  0
 22 23  1  0  0  0  0
 23 24  1  0  0  0  0
 23 38  1  0  0  0  0
 23 39  1  0  0  0  0
 24 25  1  0  0  0  0
 24 40  1  0  0  0  0
 24 41  1  0  0  0  0
 25 26  1  0  0  0  0
 25 42  1  0  0  0  0
 25 43  1  0  0  0  0
 26 44  1  0  0  0  0
 26 45  1  0  0  0  0
M  END
$$$$
