CHEMBL511563
 OpenBabel04072215383D

 43 47  0  0  0  0  0  0  0  0999 V2000
    2.0510   -0.9180   -0.2794 C   0  0  0  0  0  0  0  0  0  0  0  0
    2.1683    0.4909   -0.1278 O   0  0  0  0  0  0  0  0  0  0  0  0
    2.9100    1.1656   -1.0586 C   0  0  0  0  0  0  0  0  0  0  0  0
    3.6119    0.6061   -2.1231 C   0  0  0  0  0  0  0  0  0  0  0  0
    4.3548    1.4261   -2.9936 C   0  0  0  0  0  0  0  0  0  0  0  0
    4.4110    2.8193   -2.8184 C   0  0  0  0  0  0  0  0  0  0  0  0
    5.2237    3.6949   -3.6926 C   0  0  0  0  0  0  0  0  0  0  0  0
    5.9455    4.9119   -3.1769 C   0  0  0  0  0  0  0  0  0  0  0  0
    6.6578    5.7619   -3.8591 N   0  0  0  0  0  0  0  0  0  0  0  0
    6.7693    5.5232   -5.2034 C   0  0  0  0  0  0  0  0  0  0  0  0
    7.4105    6.1935   -6.2412 C   0  0  0  0  0  0  0  0  0  0  0  0
    8.1443    7.4716   -6.1724 C   0  0  0  0  0  0  0  0  0  0  0  0
    7.7756    8.4288   -5.2230 C   0  0  0  0  0  0  0  0  0  0  0  0
    8.3112    9.6989   -5.3114 C   0  0  0  0  0  0  0  0  0  0  0  0
    9.1333   10.1012   -6.2995 N   0  0  0  0  0  0  0  0  0  0  0  0
    9.5363    9.1863   -7.1908 C   0  0  0  0  0  0  0  0  0  0  0  0
   10.3867    9.6107   -8.2070 C   0  0  0  0  0  0  0  0  0  0  0  0
   10.9400    8.7215   -9.1279 C   0  0  0  0  0  0  0  0  0  0  0  0
   10.6648    7.3694   -9.0136 C   0  0  0  0  0  0  0  0  0  0  0  0
    9.7767    6.9295   -8.0310 C   0  0  0  0  0  0  0  0  0  0  0  0
    9.1393    7.8291   -7.1362 C   0  0  0  0  0  0  0  0  0  0  0  0
    7.0553    5.4388   -7.3872 C   0  0  0  0  0  0  0  0  0  0  0  0
    6.3384    4.3505   -7.1169 N   0  0  0  0  0  0  0  0  0  0  0  0
    6.1383    4.4083   -5.7807 N   0  0  0  0  0  0  0  0  0  0  0  0
    5.3849    3.5188   -5.0166 C   0  0  0  0  0  0  0  0  0  0  0  0
    3.6839    3.3652   -1.7509 C   0  0  0  0  0  0  0  0  0  0  0  0
    2.9498    2.5460   -0.8818 C   0  0  0  0  0  0  0  0  0  0  0  0
    1.4307   -1.2925    0.5416 H   0  0  0  0  0  0  0  0  0  0  0  0
    3.0270   -1.4087   -0.2066 H   0  0  0  0  0  0  0  0  0  0  0  0
    1.5483   -1.1712   -1.2183 H   0  0  0  0  0  0  0  0  0  0  0  0
    3.6114   -0.4646   -2.3018 H   0  0  0  0  0  0  0  0  0  0  0  0
    4.9026    0.9449   -3.8019 H   0  0  0  0  0  0  0  0  0  0  0  0
    5.8579    5.0852   -2.0921 H   0  0  0  0  0  0  0  0  0  0  0  0
    7.0648    8.2157   -4.4324 H   0  0  0  0  0  0  0  0  0  0  0  0
    8.0685   10.4637   -4.5787 H   0  0  0  0  0  0  0  0  0  0  0  0
   10.6334   10.6683   -8.2779 H   0  0  0  0  0  0  0  0  0  0  0  0
   11.6056    9.0852   -9.9062 H   0  0  0  0  0  0  0  0  0  0  0  0
   11.1375    6.6540   -9.6813 H   0  0  0  0  0  0  0  0  0  0  0  0
    9.6159    5.8584   -7.9433 H   0  0  0  0  0  0  0  0  0  0  0  0
    7.2938    5.6438   -8.4232 H   0  0  0  0  0  0  0  0  0  0  0  0
    4.9366    2.7087   -5.5777 H   0  0  0  0  0  0  0  0  0  0  0  0
    3.6636    4.4381   -1.5729 H   0  0  0  0  0  0  0  0  0  0  0  0
    2.3995    2.9979   -0.0618 H   0  0  0  0  0  0  0  0  0  0  0  0
  1  2  1  0  0  0  0
  1 28  1  0  0  0  0
  1 29  1  0  0  0  0
  1 30  1  0  0  0  0
  2  3  1  0  0  0  0
  3  4  1  0  0  0  0
  3 27  2  0  0  0  0
  4  5  2  0  0  0  0
  4 31  1  0  0  0  0
  5  6  1  0  0  0  0
  5 32  1  0  0  0  0
  6  7  1  0  0  0  0
  6 26  2  0  0  0  0
  7  8  1  0  0  0  0
  7 25  2  0  0  0  0
  8  9  2  0  0  0  0
  8 33  1  0  0  0  0
  9 10  1  0  0  0  0
 10 11  2  0  0  0  0
 10 24  1  0  0  0  0
 11 12  1  0  0  0  0
 11 22  1  0  0  0  0
 12 13  1  0  0  0  0
 12 21  2  0  0  0  0
 13 14  2  0  0  0  0
 13 34  1  0  0  0  0
 14 15  1  0  0  0  0
 14 35  1  0  0  0  0
 15 16  2  0  0  0  0
 16 17  1  0  0  0  0
 16 21  1  0  0  0  0
 17 18  2  0  0  0  0
 17 36  1  0  0  0  0
 18 19  1  0  0  0  0
 18 37  1  0  0  0  0
 19 20  2  0  0  0  0
 19 38  1  0  0  0  0
 20 21  1  0  0  0  0
 20 39  1  0  0  0  0
 22 23  2  0  0  0  0
 22 40  1  0  0  0  0
 23 24  1  0  0  0  0
 24 25  1  0  0  0  0
 25 41  1  0  0  0  0
 26 27  1  0  0  0  0
 26 42  1  0  0  0  0
 27 43  1  0  0  0  0
M  END
$$$$
