CHEMBL3746562
 OpenBabel04072215373D

 55 60  0  0  0  0  0  0  0  0999 V2000
    5.3707    0.8801   -0.9269 C   0  0  0  0  0  0  0  0  0  0  0  0
    5.5153    1.9361    0.1418 C   0  0  0  0  0  0  0  0  0  0  0  0
    4.5151    1.9069    1.3051 C   0  0  0  0  0  0  0  0  0  0  0  0
    4.4973    2.6774    2.4454 C   0  0  0  0  0  0  0  0  0  0  0  0
    3.3039    2.3152    3.1230 C   0  0  0  0  0  0  0  0  0  0  0  0
    2.8810    2.8900    4.2948 N   0  0  0  0  0  0  0  0  0  0  0  0
    1.6082    2.7494    4.8036 C   0  0  0  0  0  0  0  0  0  0  0  0
    0.5993    2.2724    4.3160 O   0  0  0  0  0  0  0  0  0  0  0  0
    1.4991    3.4257    6.0408 N   0  0  0  0  0  0  0  0  0  0  0  0
    0.3853    4.1524    6.4267 C   0  0  0  0  0  0  0  0  0  0  0  0
    0.6489    4.7835    7.6178 C   0  0  0  0  0  0  0  0  0  0  0  0
    1.9475    4.3913    8.0322 C   0  0  0  0  0  0  0  0  0  0  0  0
    2.7421    4.6941    9.1583 C   0  0  0  0  0  0  0  0  0  0  0  0
    4.0089    4.1106    9.2975 C   0  0  0  0  0  0  0  0  0  0  0  0
    4.7440    4.5441   10.3832 O   0  0  0  0  0  0  0  0  0  0  0  0
    5.8458    3.7982   10.7687 C   0  0  0  0  0  0  0  0  0  0  0  0
    5.6527    2.4871   11.0138 N   0  0  0  0  0  0  0  0  0  0  0  0
    6.7366    1.8158   11.4015 C   0  0  0  0  0  0  0  0  0  0  0  0
    7.9582    2.3356   11.5781 N   0  0  0  0  0  0  0  0  0  0  0  0
    8.0997    3.6650   11.3503 C   0  0  0  0  0  0  0  0  0  0  0  0
    7.0528    4.4555   10.9331 C   0  0  0  0  0  0  0  0  0  0  0  0
    7.2049    5.9240   10.7329 C   0  0  0  0  0  0  0  0  0  0  0  0
    8.6472    6.4436   10.7432 C   0  0  0  0  0  0  0  0  0  0  0  0
    9.7022    5.6554   11.3539 N   0  0  0  0  0  0  0  0  0  0  0  0
    9.4619    4.2427   11.6308 C   0  0  0  0  0  0  0  0  0  0  0  0
    4.4678    3.2082    8.3394 C   0  0  0  0  0  0  0  0  0  0  0  0
    3.6872    2.8717    7.2316 C   0  0  0  0  0  0  0  0  0  0  0  0
    2.4488    3.5164    7.0630 C   0  0  0  0  0  0  0  0  0  0  0  0
    2.6606    1.3496    2.4752 N   0  0  0  0  0  0  0  0  0  0  0  0
    3.4103    1.1090    1.3934 N   0  0  0  0  0  0  0  0  0  0  0  0
    5.9765    3.3234   -0.2918 C   0  0  0  0  0  0  0  0  0  0  0  0
    6.9264    2.4298    0.4280 C   0  0  0  0  0  0  0  0  0  0  0  0
    4.3209    0.7032   -1.1809 H   0  0  0  0  0  0  0  0  0  0  0  0
    5.8057   -0.0639   -0.5809 H   0  0  0  0  0  0  0  0  0  0  0  0
    5.8828    1.1648   -1.8524 H   0  0  0  0  0  0  0  0  0  0  0  0
    5.2213    3.4276    2.7361 H   0  0  0  0  0  0  0  0  0  0  0  0
    3.5085    3.5645    4.7162 H   0  0  0  0  0  0  0  0  0  0  0  0
   -0.4752    4.1971    5.7703 H   0  0  0  0  0  0  0  0  0  0  0  0
   -0.0272    5.4502    8.1379 H   0  0  0  0  0  0  0  0  0  0  0  0
    2.3710    5.3773    9.9172 H   0  0  0  0  0  0  0  0  0  0  0  0
    6.6185    0.7544   11.5887 H   0  0  0  0  0  0  0  0  0  0  0  0
    6.7578    6.2028    9.7695 H   0  0  0  0  0  0  0  0  0  0  0  0
    6.6355    6.4347   11.5187 H   0  0  0  0  0  0  0  0  0  0  0  0
    8.6404    7.4319   11.2227 H   0  0  0  0  0  0  0  0  0  0  0  0
    8.9498    6.6451    9.7083 H   0  0  0  0  0  0  0  0  0  0  0  0
   10.1009    6.1174   12.1678 H   0  0  0  0  0  0  0  0  0  0  0  0
    9.6688    4.0708   12.6944 H   0  0  0  0  0  0  0  0  0  0  0  0
   10.2018    3.6586   11.0709 H   0  0  0  0  0  0  0  0  0  0  0  0
    5.4399    2.7315    8.4336 H   0  0  0  0  0  0  0  0  0  0  0  0
    4.0462    2.1208    6.5329 H   0  0  0  0  0  0  0  0  0  0  0  0
    3.0802    0.4160    0.7333 H   0  0  0  0  0  0  0  0  0  0  0  0
    5.5922    4.1938    0.2284 H   0  0  0  0  0  0  0  0  0  0  0  0
    6.1403    3.5041   -1.3488 H   0  0  0  0  0  0  0  0  0  0  0  0
    7.2068    2.6860    1.4427 H   0  0  0  0  0  0  0  0  0  0  0  0
    7.7469    2.0056   -0.1418 H   0  0  0  0  0  0  0  0  0  0  0  0
  1  2  1  0  0  0  0
  1 33  1  0  0  0  0
  1 34  1  0  0  0  0
  1 35  1  0  0  0  0
  2  3  1  0  0  0  0
  2 31  1  0  0  0  0
  2 32  1  0  0  0  0
  3  4  2  0  0  0  0
  3 30  1  0  0  0  0
  4  5  1  0  0  0  0
  4 36  1  0  0  0  0
  5  6  1  0  0  0  0
  5 29  2  0  0  0  0
  6  7  1  0  0  0  0
  6 37  1  0  0  0  0
  7  8  2  0  0  0  0
  7  9  1  0  0  0  0
  9 10  1  0  0  0  0
  9 28  1  0  0  0  0
 10 11  2  0  0  0  0
 10 38  1  0  0  0  0
 11 12  1  0  0  0  0
 11 39  1  0  0  0  0
 12 13  1  0  0  0  0
 12 28  2  0  0  0  0
 13 14  2  0  0  0  0
 13 40  1  0  0  0  0
 14 15  1  0  0  0  0
 14 26  1  0  0  0  0
 15 16  1  0  0  0  0
 16 17  1  0  0  0  0
 16 21  2  0  0  0  0
 17 18  2  0  0  0  0
 18 19  1  0  0  0  0
 18 41  1  0  0  0  0
 19 20  2  0  0  0  0
 20 21  1  0  0  0  0
 20 25  1  0  0  0  0
 21 22  1  0  0  0  0
 22 23  1  0  0  0  0
 22 42  1  0  0  0  0
 22 43  1  0  0  0  0
 23 24  1  0  0  0  0
 23 44  1  0  0  0  0
 23 45  1  0  0  0  0
 24 25  1  0  0  0  0
 24 46  1  0  0  0  0
 25 47  1  0  0  0  0
 25 48  1  0  0  0  0
 26 27  2  0  0  0  0
 26 49  1  0  0  0  0
 27 28  1  0  0  0  0
 27 50  1  0  0  0  0
 29 30  1  0  0  0  0
 30 51  1  0  0  0  0
 31 32  1  0  0  0  0
 31 52  1  0  0  0  0
 31 53  1  0  0  0  0
 32 54  1  0  0  0  0
 32 55  1  0  0  0  0
M  END
$$$$
