CHEMBL295679
 OpenBabel04072215363D

 38 41  0  0  0  0  0  0  0  0999 V2000
   -6.8749    4.8058   -2.5352 C   0  0  0  0  0  0  0  0  0  0  0  0
   -6.8842    4.6341   -1.1522 C   0  0  0  0  0  0  0  0  0  0  0  0
   -6.1414    3.6038   -0.5669 C   0  0  0  0  0  0  0  0  0  0  0  0
   -5.3793    2.7325   -1.3570 C   0  0  0  0  0  0  0  0  0  0  0  0
   -4.5357    1.7124   -0.7053 C   0  0  0  0  0  0  0  0  0  0  0  0
   -4.8646    1.1013    0.4265 N   0  0  0  0  0  0  0  0  0  0  0  0
   -3.9211    0.1402    0.6414 C   0  0  0  0  0  0  0  0  0  0  0  0
   -2.9898    0.1427   -0.3652 C   0  0  0  0  0  0  0  0  0  0  0  0
   -3.3214    1.2079   -1.1806 N   0  0  0  0  0  0  0  0  0  0  0  0
   -2.5253    1.6962   -2.2553 C   0  0  0  0  0  0  0  0  0  0  0  0
   -1.7511    0.8124   -2.9739 C   0  0  0  0  0  0  0  0  0  0  0  0
   -1.0735    1.3565   -4.0310 C   0  0  0  0  0  0  0  0  0  0  0  0
   -1.1040    2.6629   -4.3325 N   0  0  0  0  0  0  0  0  0  0  0  0
   -1.8416    3.4692   -3.5593 C   0  0  0  0  0  0  0  0  0  0  0  0
   -1.8415    4.8524   -3.7475 N   0  0  0  0  0  0  0  0  0  0  0  0
   -0.8356    5.6458   -4.3182 C   0  0  0  0  0  0  0  0  0  0  0  0
   -0.6836    6.9727   -3.9116 C   0  0  0  0  0  0  0  0  0  0  0  0
    0.3597    7.7527   -4.4154 C   0  0  0  0  0  0  0  0  0  0  0  0
    1.2111    7.1886   -5.3483 C   0  0  0  0  0  0  0  0  0  0  0  0
    1.0794    5.9320   -5.8118 N   0  0  0  0  0  0  0  0  0  0  0  0
    0.0612    5.2002   -5.2914 C   0  0  0  0  0  0  0  0  0  0  0  0
   -2.5759    3.0171   -2.5391 N   0  0  0  0  0  0  0  0  0  0  0  0
   -5.4661    2.8610   -2.7517 C   0  0  0  0  0  0  0  0  0  0  0  0
   -6.1750    3.9113   -3.3370 C   0  0  0  0  0  0  0  0  0  0  0  0
   -7.4220    5.6279   -2.9889 H   0  0  0  0  0  0  0  0  0  0  0  0
   -7.4615    5.3081   -0.5259 H   0  0  0  0  0  0  0  0  0  0  0  0
   -6.1504    3.4879    0.5152 H   0  0  0  0  0  0  0  0  0  0  0  0
   -3.9505   -0.5017    1.5147 H   0  0  0  0  0  0  0  0  0  0  0  0
   -2.0937   -0.4445   -0.5035 H   0  0  0  0  0  0  0  0  0  0  0  0
   -1.7132   -0.2516   -2.7850 H   0  0  0  0  0  0  0  0  0  0  0  0
   -0.4718    0.7447   -4.6966 H   0  0  0  0  0  0  0  0  0  0  0  0
   -2.3806    5.2740   -3.0016 H   0  0  0  0  0  0  0  0  0  0  0  0
   -1.3494    7.4051   -3.1674 H   0  0  0  0  0  0  0  0  0  0  0  0
    0.5088    8.7722   -4.0788 H   0  0  0  0  0  0  0  0  0  0  0  0
    2.0469    7.7467   -5.7583 H   0  0  0  0  0  0  0  0  0  0  0  0
   -0.0052    4.2023   -5.7125 H   0  0  0  0  0  0  0  0  0  0  0  0
   -4.9534    2.1659   -3.4108 H   0  0  0  0  0  0  0  0  0  0  0  0
   -6.1670    4.0312   -4.4171 H   0  0  0  0  0  0  0  0  0  0  0  0
  1  2  1  0  0  0  0
  1 24  2  0  0  0  0
  1 25  1  0  0  0  0
  2  3  2  0  0  0  0
  2 26  1  0  0  0  0
  3  4  1  0  0  0  0
  3 27  1  0  0  0  0
  4  5  1  0  0  0  0
  4 23  2  0  0  0  0
  5  6  2  0  0  0  0
  5  9  1  0  0  0  0
  6  7  1  0  0  0  0
  7  8  2  0  0  0  0
  7 28  1  0  0  0  0
  8  9  1  0  0  0  0
  8 29  1  0  0  0  0
  9 10  1  0  0  0  0
 10 11  1  0  0  0  0
 10 22  2  0  0  0  0
 11 12  2  0  0  0  0
 11 30  1  0  0  0  0
 12 13  1  0  0  0  0
 12 31  1  0  0  0  0
 13 14  2  0  0  0  0
 14 15  1  0  0  0  0
 14 22  1  0  0  0  0
 15 16  1  0  0  0  0
 15 32  1  0  0  0  0
 16 17  1  0  0  0  0
 16 21  2  0  0  0  0
 17 18  2  0  0  0  0
 17 33  1  0  0  0  0
 18 19  1  0  0  0  0
 18 34  1  0  0  0  0
 19 20  2  0  0  0  0
 19 35  1  0  0  0  0
 20 21  1  0  0  0  0
 21 36  1  0  0  0  0
 23 24  1  0  0  0  0
 23 37  1  0  0  0  0
 24 38  1  0  0  0  0
M  END
$$$$
