CHEMBL2206668
 OpenBabel04072215363D

 42 45  0  0  0  0  0  0  0  0999 V2000
    0.9942    0.0346    0.2038 O   0  0  0  0  0  0  0  0  0  0  0  0
    2.2057    0.1220    0.0330 C   0  0  0  0  0  0  0  0  0  0  0  0
    2.8569    0.9873   -0.8287 N   0  0  0  0  0  0  0  0  0  0  0  0
    2.2348    1.9430   -1.6636 C   0  0  0  0  0  0  0  0  0  0  0  0
    0.9034    2.3406   -1.5210 C   0  0  0  0  0  0  0  0  0  0  0  0
    0.3298    3.2519   -2.4101 C   0  0  0  0  0  0  0  0  0  0  0  0
    1.0849    3.7816   -3.4523 C   0  0  0  0  0  0  0  0  0  0  0  0
    2.4295    3.4186   -3.6028 C   0  0  0  0  0  0  0  0  0  0  0  0
    3.2631    3.9801   -4.7267 C   0  0  0  0  0  0  0  0  0  0  0  0
    2.5822    4.8340   -5.5412 F   0  0  0  0  0  0  0  0  0  0  0  0
    4.3419    4.6762   -4.2741 F   0  0  0  0  0  0  0  0  0  0  0  0
    3.7618    3.0076   -5.5395 F   0  0  0  0  0  0  0  0  0  0  0  0
    2.9985    2.5059   -2.6936 C   0  0  0  0  0  0  0  0  0  0  0  0
    3.0751   -0.8424    0.7576 C   0  0  0  0  0  0  0  0  0  0  0  0
    2.5669   -2.1361    0.9599 C   0  0  0  0  0  0  0  0  0  0  0  0
    3.2989   -3.0757    1.6811 C   0  0  0  0  0  0  0  0  0  0  0  0
    4.5351   -2.7253    2.2117 C   0  0  0  0  0  0  0  0  0  0  0  0
    5.0512   -1.4453    1.9910 C   0  0  0  0  0  0  0  0  0  0  0  0
    6.2663   -1.0384    2.5849 O   0  0  0  0  0  0  0  0  0  0  0  0
    7.3463   -1.9125    2.5747 C   0  0  0  0  0  0  0  0  0  0  0  0
    8.3104   -1.4792    3.6111 C   0  0  0  0  0  0  0  0  0  0  0  0
    9.4043   -2.2394    3.7628 C   0  0  0  0  0  0  0  0  0  0  0  0
    9.5799   -3.3719    2.9339 C   0  0  0  0  0  0  0  0  0  0  0  0
   10.5464   -4.2642    2.8709 N   0  0  0  0  0  0  0  0  0  0  0  0
   10.1626   -5.1399    1.8850 C   0  0  0  0  0  0  0  0  0  0  0  0
    8.9488   -4.7798    1.3487 C   0  0  0  0  0  0  0  0  0  0  0  0
    8.5852   -3.6377    2.0055 N   0  0  0  0  0  0  0  0  0  0  0  0
    7.4477   -2.9303    1.7816 N   0  0  0  0  0  0  0  0  0  0  0  0
    4.3234   -0.4869    1.2801 C   0  0  0  0  0  0  0  0  0  0  0  0
    3.8413    0.8197   -0.9925 H   0  0  0  0  0  0  0  0  0  0  0  0
    0.2789    1.9613   -0.7175 H   0  0  0  0  0  0  0  0  0  0  0  0
   -0.7121    3.5386   -2.2867 H   0  0  0  0  0  0  0  0  0  0  0  0
    0.6170    4.4782   -4.1464 H   0  0  0  0  0  0  0  0  0  0  0  0
    4.0409    2.2190   -2.8230 H   0  0  0  0  0  0  0  0  0  0  0  0
    1.5891   -2.4074    0.5653 H   0  0  0  0  0  0  0  0  0  0  0  0
    2.8964   -4.0718    1.8434 H   0  0  0  0  0  0  0  0  0  0  0  0
    5.0829   -3.4576    2.7988 H   0  0  0  0  0  0  0  0  0  0  0  0
    8.1020   -0.6077    4.2157 H   0  0  0  0  0  0  0  0  0  0  0  0
   10.1591   -2.0170    4.5076 H   0  0  0  0  0  0  0  0  0  0  0  0
   10.7794   -5.9879    1.6150 H   0  0  0  0  0  0  0  0  0  0  0  0
    8.3269   -5.2134    0.5808 H   0  0  0  0  0  0  0  0  0  0  0  0
    4.7124    0.5217    1.1802 H   0  0  0  0  0  0  0  0  0  0  0  0
  1  2  2  0  0  0  0
  2  3  1  0  0  0  0
  2 14  1  0  0  0  0
  3  4  1  0  0  0  0
  3 30  1  0  0  0  0
  4  5  1  0  0  0  0
  4 13  2  0  0  0  0
  5  6  2  0  0  0  0
  5 31  1  0  0  0  0
  6  7  1  0  0  0  0
  6 32  1  0  0  0  0
  7  8  2  0  0  0  0
  7 33  1  0  0  0  0
  8  9  1  0  0  0  0
  8 13  1  0  0  0  0
  9 10  1  0  0  0  0
  9 11  1  0  0  0  0
  9 12  1  0  0  0  0
 13 34  1  0  0  0  0
 14 15  1  0  0  0  0
 14 29  2  0  0  0  0
 15 16  2  0  0  0  0
 15 35  1  0  0  0  0
 16 17  1  0  0  0  0
 16 36  1  0  0  0  0
 17 18  2  0  0  0  0
 17 37  1  0  0  0  0
 18 19  1  0  0  0  0
 18 29  1  0  0  0  0
 19 20  1  0  0  0  0
 20 21  1  0  0  0  0
 20 28  2  0  0  0  0
 21 22  2  0  0  0  0
 21 38  1  0  0  0  0
 22 23  1  0  0  0  0
 22 39  1  0  0  0  0
 23 24  2  0  0  0  0
 23 27  1  0  0  0  0
 24 25  1  0  0  0  0
 25 26  2  0  0  0  0
 25 40  1  0  0  0  0
 26 27  1  0  0  0  0
 26 41  1  0  0  0  0
 27 28  1  0  0  0  0
 29 42  1  0  0  0  0
M  END
$$$$
