CHEMBL3922509
 OpenBabel04072215373D

 51 55  0  0  0  0  0  0  0  0999 V2000
    2.6887    0.6003   -0.8486 O   0  0  0  0  0  0  0  0  0  0  0  0
    2.0840    0.0081    0.0463 C   0  0  0  0  0  0  0  0  0  0  0  0
    0.6443   -0.2320   -0.1617 C   0  0  0  0  0  0  0  0  0  0  0  0
    0.2214   -0.4909   -1.4718 C   0  0  0  0  0  0  0  0  0  0  0  0
   -1.1207   -0.7325   -1.7308 C   0  0  0  0  0  0  0  0  0  0  0  0
   -2.0392   -0.7359   -0.6805 C   0  0  0  0  0  0  0  0  0  0  0  0
   -1.6352   -0.4781    0.6306 C   0  0  0  0  0  0  0  0  0  0  0  0
   -2.5018   -0.5353    1.7362 N   0  0  0  0  0  0  0  0  0  0  0  0
   -3.7789   -1.0784    1.7593 C   0  0  0  0  0  0  0  0  0  0  0  0
   -4.3573   -1.5741    0.7993 O   0  0  0  0  0  0  0  0  0  0  0  0
   -4.4026   -1.0595    3.0662 C   0  0  0  0  0  0  0  0  0  0  0  0
   -5.6195   -1.5456    3.4918 C   0  0  0  0  0  0  0  0  0  0  0  0
   -5.6646   -1.2241    4.8599 C   0  0  0  0  0  0  0  0  0  0  0  0
   -4.5599   -0.5900    5.2581 N   0  0  0  0  0  0  0  0  0  0  0  0
   -3.7671   -0.4810    4.1254 O   0  0  0  0  0  0  0  0  0  0  0  0
   -0.2830   -0.1811    0.8795 C   0  0  0  0  0  0  0  0  0  0  0  0
    2.8471   -0.4881    1.2309 C   0  0  0  0  0  0  0  0  0  0  0  0
    2.3783   -1.4536    2.1419 C   0  0  0  0  0  0  0  0  0  0  0  0
    3.1837   -1.9144    3.2131 C   0  0  0  0  0  0  0  0  0  0  0  0
    4.5395   -1.5364    3.2274 C   0  0  0  0  0  0  0  0  0  0  0  0
    5.7520   -1.7714    3.9687 C   0  0  0  0  0  0  0  0  0  0  0  0
    6.2768   -0.9840    5.0837 C   0  0  0  0  0  0  0  0  0  0  0  0
    5.8087    0.2376    5.4081 C   0  0  0  0  0  0  0  0  0  0  0  0
    6.7029    1.3963    5.6463 C   0  0  0  0  0  0  0  0  0  0  0  0
    7.8557    1.5977    4.8624 C   0  0  0  0  0  0  0  0  0  0  0  0
    8.5455    2.8157    4.8889 C   0  0  0  0  0  0  0  0  0  0  0  0
    8.0912    3.8511    5.6995 C   0  0  0  0  0  0  0  0  0  0  0  0
    6.9628    3.6604    6.4974 C   0  0  0  0  0  0  0  0  0  0  0  0
    6.2705    2.4430    6.4680 C   0  0  0  0  0  0  0  0  0  0  0  0
    6.7002   -1.9780    3.0260 N   0  0  0  0  0  0  0  0  0  0  0  0
    6.3353   -1.0584    2.0963 N   0  0  0  0  0  0  0  0  0  0  0  0
    4.9979   -0.7803    2.1544 C   0  0  0  0  0  0  0  0  0  0  0  0
    4.1828   -0.0734    1.2830 C   0  0  0  0  0  0  0  0  0  0  0  0
    0.9373   -0.5030   -2.2919 H   0  0  0  0  0  0  0  0  0  0  0  0
   -1.4571   -0.9230   -2.7464 H   0  0  0  0  0  0  0  0  0  0  0  0
   -3.0803   -0.9236   -0.9303 H   0  0  0  0  0  0  0  0  0  0  0  0
   -2.1255   -0.2496    2.6366 H   0  0  0  0  0  0  0  0  0  0  0  0
   -6.3507   -2.0670    2.8905 H   0  0  0  0  0  0  0  0  0  0  0  0
   -6.4480   -1.4288    5.5772 H   0  0  0  0  0  0  0  0  0  0  0  0
    0.0394    0.0763    1.8840 H   0  0  0  0  0  0  0  0  0  0  0  0
    1.4028   -1.9166    2.0102 H   0  0  0  0  0  0  0  0  0  0  0  0
    2.8043   -2.6666    3.9006 H   0  0  0  0  0  0  0  0  0  0  0  0
    7.3225   -1.2109    5.2996 H   0  0  0  0  0  0  0  0  0  0  0  0
    4.7882    0.5215    5.1683 H   0  0  0  0  0  0  0  0  0  0  0  0
    8.2008    0.8322    4.1718 H   0  0  0  0  0  0  0  0  0  0  0  0
    9.4097    2.9692    4.2454 H   0  0  0  0  0  0  0  0  0  0  0  0
    8.6032    4.8110    5.6977 H   0  0  0  0  0  0  0  0  0  0  0  0
    6.5976    4.4754    7.1171 H   0  0  0  0  0  0  0  0  0  0  0  0
    5.3649    2.3370    7.0594 H   0  0  0  0  0  0  0  0  0  0  0  0
    7.0033   -0.8051    1.3865 H   0  0  0  0  0  0  0  0  0  0  0  0
    4.5979    0.6123    0.5503 H   0  0  0  0  0  0  0  0  0  0  0  0
  1  2  2  0  0  0  0
  2  3  1  0  0  0  0
  2 17  1  0  0  0  0
  3  4  1  0  0  0  0
  3 16  2  0  0  0  0
  4  5  2  0  0  0  0
  4 34  1  0  0  0  0
  5  6  1  0  0  0  0
  5 35  1  0  0  0  0
  6  7  2  0  0  0  0
  6 36  1  0  0  0  0
  7  8  1  0  0  0  0
  7 16  1  0  0  0  0
  8  9  1  0  0  0  0
  8 37  1  0  0  0  0
  9 10  2  0  0  0  0
  9 11  1  0  0  0  0
 11 12  2  0  0  0  0
 11 15  1  0  0  0  0
 12 13  1  0  0  0  0
 12 38  1  0  0  0  0
 13 14  2  0  0  0  0
 13 39  1  0  0  0  0
 14 15  1  0  0  0  0
 16 40  1  0  0  0  0
 17 18  1  0  0  0  0
 17 33  2  0  0  0  0
 18 19  2  0  0  0  0
 18 41  1  0  0  0  0
 19 20  1  0  0  0  0
 19 42  1  0  0  0  0
 20 21  1  0  0  0  0
 20 32  2  0  0  0  0
 21 22  1  0  0  0  0
 21 30  2  0  0  0  0
 22 23  2  0  0  0  0
 22 43  1  0  0  0  0
 23 24  1  0  0  0  0
 23 44  1  0  0  0  0
 24 25  1  0  0  0  0
 24 29  2  0  0  0  0
 25 26  2  0  0  0  0
 25 45  1  0  0  0  0
 26 27  1  0  0  0  0
 26 46  1  0  0  0  0
 27 28  2  0  0  0  0
 27 47  1  0  0  0  0
 28 29  1  0  0  0  0
 28 48  1  0  0  0  0
 29 49  1  0  0  0  0
 30 31  1  0  0  0  0
 31 32  1  0  0  0  0
 31 50  1  0  0  0  0
 32 33  1  0  0  0  0
 33 51  1  0  0  0  0
M  END
$$$$
