CHEMBL2031909
 OpenBabel04072215363D

 69 74  0  0  1  0  0  0  0  0999 V2000
    6.1151    1.0250   -2.0079 C   0  0  0  0  0  0  0  0  0  0  0  0
    7.0926    0.1981   -2.6355 O   0  0  0  0  0  0  0  0  0  0  0  0
    6.8479   -1.1462   -2.5515 C   0  0  0  0  0  0  0  0  0  0  0  0
    5.5928   -1.7076   -2.3761 C   0  0  0  0  0  0  0  0  0  0  0  0
    5.4609   -3.0895   -2.3015 C   0  0  0  0  0  0  0  0  0  0  0  0
    6.5687   -3.9446   -2.5002 C   0  0  0  0  0  0  0  0  0  0  0  0
    6.4772   -5.3537   -2.5992 C   0  0  0  0  0  0  0  0  0  0  0  0
    5.2996   -6.0843   -2.5602 O   0  0  0  0  0  0  0  0  0  0  0  0
    4.2351   -5.7456   -3.3704 C   0  0  0  0  0  0  0  0  0  0  0  0
    4.3142   -4.9425   -4.5122 C   0  0  0  0  0  0  0  0  0  0  0  0
    3.1476   -4.5237   -5.1656 C   0  0  0  0  0  0  0  0  0  0  0  0
    1.8824   -4.9733   -4.7632 C   0  0  0  0  0  0  0  0  0  0  0  0
    0.6974   -4.5992   -5.4401 N   0  0  0  0  0  0  0  0  0  0  0  0
    0.5364   -3.4633   -6.2236 C   0  0  0  0  0  0  0  0  0  0  0  0
    1.2717   -2.4766   -6.1503 O   0  0  0  0  0  0  0  0  0  0  0  0
   -0.6520   -3.4713   -7.1264 C   0  0  0  0  0  0  0  0  0  0  0  0
   -0.9272   -2.7703   -8.2636 C   0  0  0  0  0  0  0  0  0  0  0  0
   -0.0590   -1.7061   -8.9326 C   0  0  2  0  0  0  0  0  0  0  0  0
   -0.0343   -1.6985  -10.4637 C   0  0  0  0  0  0  0  0  0  0  0  0
    1.1771   -0.8426  -10.8027 C   0  0  0  0  0  0  0  0  0  0  0  0
    2.1119   -1.0269   -9.6236 C   0  0  0  0  0  0  0  0  0  0  0  0
    1.3741   -1.8500   -8.6770 N   0  0  0  0  0  0  0  0  0  0  0  0
   -2.1698   -3.1614   -8.8173 N   0  0  0  0  0  0  0  0  0  0  0  0
   -3.0803   -2.3133   -9.5894 C   0  0  0  0  0  0  0  0  0  0  0  0
   -2.7636   -4.0279   -7.8893 N   0  0  0  0  0  0  0  0  0  0  0  0
   -4.0046   -4.6454   -8.0922 C   0  0  0  0  0  0  0  0  0  0  0  0
   -5.0093   -4.4903   -7.1307 C   0  0  0  0  0  0  0  0  0  0  0  0
   -6.2762   -5.0362   -7.3448 C   0  0  0  0  0  0  0  0  0  0  0  0
   -6.5295   -5.7807   -8.4962 C   0  0  0  0  0  0  0  0  0  0  0  0
   -5.5251   -5.9528   -9.4497 C   0  0  0  0  0  0  0  0  0  0  0  0
   -4.2716   -5.3648   -9.2619 C   0  0  0  0  0  0  0  0  0  0  0  0
   -1.8670   -4.2936   -6.8645 C   0  0  0  0  0  0  0  0  0  0  0  0
   -1.9763   -5.0536   -5.9134 O   0  0  0  0  0  0  0  0  0  0  0  0
    1.8109   -5.8751   -3.6920 C   0  0  0  0  0  0  0  0  0  0  0  0
    2.9787   -6.2304   -2.9919 C   0  0  0  0  0  0  0  0  0  0  0  0
    2.8597   -7.0332   -1.9230 F   0  0  0  0  0  0  0  0  0  0  0  0
    7.6423   -6.1178   -2.6792 C   0  0  0  0  0  0  0  0  0  0  0  0
    8.8461   -5.4553   -2.7453 C   0  0  0  0  0  0  0  0  0  0  0  0
    8.9663   -4.1111   -2.7532 N   0  0  0  0  0  0  0  0  0  0  0  0
    7.8477   -3.3724   -2.6421 C   0  0  0  0  0  0  0  0  0  0  0  0
    7.9621   -1.9851   -2.6719 C   0  0  0  0  0  0  0  0  0  0  0  0
    6.4795    2.0557   -2.0297 H   0  0  0  0  0  0  0  0  0  0  0  0
    5.9780    0.7368   -0.9600 H   0  0  0  0  0  0  0  0  0  0  0  0
    5.1634    1.0029   -2.5492 H   0  0  0  0  0  0  0  0  0  0  0  0
    4.6912   -1.1078   -2.3193 H   0  0  0  0  0  0  0  0  0  0  0  0
    4.4674   -3.4884   -2.1235 H   0  0  0  0  0  0  0  0  0  0  0  0
    5.2679   -4.5794   -4.8811 H   0  0  0  0  0  0  0  0  0  0  0  0
    3.2536   -3.8532   -6.0161 H   0  0  0  0  0  0  0  0  0  0  0  0
   -0.1316   -5.1744   -5.2874 H   0  0  0  0  0  0  0  0  0  0  0  0
   -0.4016   -0.7232   -8.5743 H   0  0  0  0  0  0  0  0  0  0  0  0
   -0.9174   -1.2584  -10.9292 H   0  0  0  0  0  0  0  0  0  0  0  0
    0.0901   -2.7128  -10.8651 H   0  0  0  0  0  0  0  0  0  0  0  0
    0.8810    0.2113  -10.8803 H   0  0  0  0  0  0  0  0  0  0  0  0
    1.6300   -1.1405  -11.7520 H   0  0  0  0  0  0  0  0  0  0  0  0
    2.3921   -0.0596   -9.1922 H   0  0  0  0  0  0  0  0  0  0  0  0
    3.0274   -1.5455   -9.9206 H   0  0  0  0  0  0  0  0  0  0  0  0
    1.5949   -1.5973   -7.7053 H   0  0  0  0  0  0  0  0  0  0  0  0
   -2.6385   -1.3662   -9.8871 H   0  0  0  0  0  0  0  0  0  0  0  0
   -3.9808   -2.0559   -9.0175 H   0  0  0  0  0  0  0  0  0  0  0  0
   -3.3857   -2.8431  -10.5002 H   0  0  0  0  0  0  0  0  0  0  0  0
   -4.8269   -3.8984   -6.2373 H   0  0  0  0  0  0  0  0  0  0  0  0
   -7.0654   -4.8800   -6.6136 H   0  0  0  0  0  0  0  0  0  0  0  0
   -7.5084   -6.2279   -8.6493 H   0  0  0  0  0  0  0  0  0  0  0  0
   -5.7186   -6.5494  -10.3382 H   0  0  0  0  0  0  0  0  0  0  0  0
   -3.4933   -5.5063  -10.0071 H   0  0  0  0  0  0  0  0  0  0  0  0
    0.8607   -6.2689   -3.3488 H   0  0  0  0  0  0  0  0  0  0  0  0
    7.6035   -7.2010   -2.6988 H   0  0  0  0  0  0  0  0  0  0  0  0
    9.7869   -5.9983   -2.8049 H   0  0  0  0  0  0  0  0  0  0  0  0
    8.9469   -1.5417   -2.7956 H   0  0  0  0  0  0  0  0  0  0  0  0
  1  2  1  0  0  0  0
  1 42  1  0  0  0  0
  1 43  1  0  0  0  0
  1 44  1  0  0  0  0
  2  3  1  0  0  0  0
  3  4  1  0  0  0  0
  3 41  2  0  0  0  0
  4  5  2  0  0  0  0
  4 45  1  0  0  0  0
  5  6  1  0  0  0  0
  5 46  1  0  0  0  0
  6  7  1  0  0  0  0
  6 40  2  0  0  0  0
  7  8  1  0  0  0  0
  7 37  2  0  0  0  0
  8  9  1  0  0  0  0
  9 10  1  0  0  0  0
  9 35  2  0  0  0  0
 10 11  2  0  0  0  0
 10 47  1  0  0  0  0
 11 12  1  0  0  0  0
 11 48  1  0  0  0  0
 12 13  1  0  0  0  0
 12 34  2  0  0  0  0
 13 14  1  0  0  0  0
 13 49  1  0  0  0  0
 14 15  2  0  0  0  0
 14 16  1  0  0  0  0
 16 17  2  0  0  0  0
 16 32  1  0  0  0  0
 17 18  1  0  0  0  0
 17 23  1  0  0  0  0
 18 19  1  0  0  0  0
 18 22  1  0  0  0  0
 18 50  1  1  0  0  0
 19 20  1  0  0  0  0
 19 51  1  0  0  0  0
 19 52  1  0  0  0  0
 20 21  1  0  0  0  0
 20 53  1  0  0  0  0
 20 54  1  0  0  0  0
 21 22  1  0  0  0  0
 21 55  1  0  0  0  0
 21 56  1  0  0  0  0
 22 57  1  0  0  0  0
 23 24  1  0  0  0  0
 23 25  1  0  0  0  0
 24 58  1  0  0  0  0
 24 59  1  0  0  0  0
 24 60  1  0  0  0  0
 25 26  1  0  0  0  0
 25 32  1  0  0  0  0
 26 27  1  0  0  0  0
 26 31  2  0  0  0  0
 27 28  2  0  0  0  0
 27 61  1  0  0  0  0
 28 29  1  0  0  0  0
 28 62  1  0  0  0  0
 29 30  2  0  0  0  0
 29 63  1  0  0  0  0
 30 31  1  0  0  0  0
 30 64  1  0  0  0  0
 31 65  1  0  0  0  0
 32 33  2  0  0  0  0
 34 35  1  0  0  0  0
 34 66  1  0  0  0  0
 35 36  1  0  0  0  0
 37 38  1  0  0  0  0
 37 67  1  0  0  0  0
 38 39  2  0  0  0  0
 38 68  1  0  0  0  0
 39 40  1  0  0  0  0
 40 41  1  0  0  0  0
 41 69  1  0  0  0  0
M  END
$$$$
