CHEMBL606964
 OpenBabel04072215383D

 57 61  0  0  1  0  0  0  0  0999 V2000
    0.9904   -0.2359   -0.1064 C   0  0  0  0  0  0  0  0  0  0  0  0
    2.3998   -0.1125   -0.2386 O   0  0  0  0  0  0  0  0  0  0  0  0
    3.0687   -1.2508   -0.5951 C   0  0  0  0  0  0  0  0  0  0  0  0
    2.5072   -2.5172   -0.7480 C   0  0  0  0  0  0  0  0  0  0  0  0
    3.2882   -3.6182   -1.1010 C   0  0  0  0  0  0  0  0  0  0  0  0
    4.6455   -3.4366   -1.3654 C   0  0  0  0  0  0  0  0  0  0  0  0
    5.4705   -4.5144   -1.7834 N   0  0  0  0  0  0  0  0  0  0  0  0
    5.3937   -5.7987   -1.1365 C   0  0  0  0  0  0  0  0  0  0  0  0
    6.7046   -6.4979   -1.1565 C   0  0  0  0  0  0  0  0  0  0  0  0
    6.9830   -7.6007   -0.3797 C   0  0  0  0  0  0  0  0  0  0  0  0
    8.1672   -8.2419   -0.3881 N   0  0  0  0  0  0  0  0  0  0  0  0
    9.0898   -7.7830   -1.2417 C   0  0  0  0  0  0  0  0  0  0  0  0
   10.3077   -8.4541   -1.2985 N   0  0  0  0  0  0  0  0  0  0  0  0
   11.1789   -8.5775   -2.3904 C   0  0  0  0  0  0  0  0  0  0  0  0
   12.5409   -8.8166   -2.1640 C   0  0  0  0  0  0  0  0  0  0  0  0
   13.4489   -8.8245   -3.2279 C   0  0  0  0  0  0  0  0  0  0  0  0
   12.9957   -8.6047   -4.5233 C   0  0  0  0  0  0  0  0  0  0  0  0
   13.8688   -8.5968   -5.5382 F   0  0  0  0  0  0  0  0  0  0  0  0
   11.6516   -8.3843   -4.7776 C   0  0  0  0  0  0  0  0  0  0  0  0
   10.7514   -8.3666   -3.7127 C   0  0  0  0  0  0  0  0  0  0  0  0
    8.8998   -6.7103   -2.0242 N   0  0  0  0  0  0  0  0  0  0  0  0
    7.7193   -6.0775   -1.9815 C   0  0  0  0  0  0  0  0  0  0  0  0
    7.5023   -4.9766   -2.8434 N   0  0  0  0  0  0  0  0  0  0  0  0
    8.6602   -4.3147   -3.4675 C   0  0  2  0  0  0  0  0  0  0  0  0
    8.7223   -2.8028   -3.1200 C   0  0  0  0  0  0  0  0  0  0  0  0
    8.6228   -2.0560   -4.4444 C   0  0  0  0  0  0  0  0  0  0  0  0
    9.2464   -3.0209   -5.4362 C   0  0  1  0  0  0  0  0  0  0  0  0
   10.6683   -2.9670   -5.3487 O   0  0  0  0  0  0  0  0  0  0  0  0
    8.7231   -4.3899   -5.0020 C   0  0  0  0  0  0  0  0  0  0  0  0
    6.2728   -4.3331   -2.9008 C   0  0  0  0  0  0  0  0  0  0  0  0
    5.9819   -3.5454   -3.8017 O   0  0  0  0  0  0  0  0  0  0  0  0
    5.2127   -2.1622   -1.2083 C   0  0  0  0  0  0  0  0  0  0  0  0
    4.4302   -1.0761   -0.8145 C   0  0  0  0  0  0  0  0  0  0  0  0
    0.5881    0.7488    0.1496 H   0  0  0  0  0  0  0  0  0  0  0  0
    0.7331   -0.9233    0.7062 H   0  0  0  0  0  0  0  0  0  0  0  0
    0.5334   -0.5492   -1.0507 H   0  0  0  0  0  0  0  0  0  0  0  0
    1.4418   -2.6900   -0.6066 H   0  0  0  0  0  0  0  0  0  0  0  0
    2.8206   -4.5832   -1.2562 H   0  0  0  0  0  0  0  0  0  0  0  0
    4.6444   -6.4002   -1.6614 H   0  0  0  0  0  0  0  0  0  0  0  0
    5.0828   -5.6549   -0.0936 H   0  0  0  0  0  0  0  0  0  0  0  0
    6.2427   -8.0229    0.2951 H   0  0  0  0  0  0  0  0  0  0  0  0
   10.4132   -9.1141   -0.5434 H   0  0  0  0  0  0  0  0  0  0  0  0
   12.9120   -8.9575   -1.1522 H   0  0  0  0  0  0  0  0  0  0  0  0
   14.5081   -8.9806   -3.0521 H   0  0  0  0  0  0  0  0  0  0  0  0
   11.3086   -8.2133   -5.7925 H   0  0  0  0  0  0  0  0  0  0  0  0
    9.7004   -8.1919   -3.9312 H   0  0  0  0  0  0  0  0  0  0  0  0
    9.5853   -4.7492   -3.0721 H   0  0  0  0  0  0  0  0  0  0  0  0
    9.6759   -2.5768   -2.6288 H   0  0  0  0  0  0  0  0  0  0  0  0
    7.9516   -2.4692   -2.4264 H   0  0  0  0  0  0  0  0  0  0  0  0
    9.1348   -1.0913   -4.3896 H   0  0  0  0  0  0  0  0  0  0  0  0
    7.5744   -1.8713   -4.7070 H   0  0  0  0  0  0  0  0  0  0  0  0
    8.9722   -2.7841   -6.4677 H   0  0  0  0  0  0  0  0  0  0  0  0
   10.9408   -3.0793   -4.4227 H   0  0  0  0  0  0  0  0  0  0  0  0
    9.3897   -5.1993   -5.3191 H   0  0  0  0  0  0  0  0  0  0  0  0
    7.7356   -4.5735   -5.4381 H   0  0  0  0  0  0  0  0  0  0  0  0
    6.2699   -1.9969   -1.3571 H   0  0  0  0  0  0  0  0  0  0  0  0
    4.8822   -0.1026   -0.6927 H   0  0  0  0  0  0  0  0  0  0  0  0
  1  2  1  0  0  0  0
  1 34  1  0  0  0  0
  1 35  1  0  0  0  0
  1 36  1  0  0  0  0
  2  3  1  0  0  0  0
  3  4  1  0  0  0  0
  3 33  2  0  0  0  0
  4  5  2  0  0  0  0
  4 37  1  0  0  0  0
  5  6  1  0  0  0  0
  5 38  1  0  0  0  0
  6  7  1  0  0  0  0
  6 32  2  0  0  0  0
  7  8  1  0  0  0  0
  7 30  1  0  0  0  0
  8  9  1  0  0  0  0
  8 39  1  0  0  0  0
  8 40  1  0  0  0  0
  9 10  1  0  0  0  0
  9 22  2  0  0  0  0
 10 11  2  0  0  0  0
 10 41  1  0  0  0  0
 11 12  1  0  0  0  0
 12 13  1  0  0  0  0
 12 21  2  0  0  0  0
 13 14  1  0  0  0  0
 13 42  1  0  0  0  0
 14 15  1  0  0  0  0
 14 20  2  0  0  0  0
 15 16  2  0  0  0  0
 15 43  1  0  0  0  0
 16 17  1  0  0  0  0
 16 44  1  0  0  0  0
 17 18  1  0  0  0  0
 17 19  2  0  0  0  0
 19 20  1  0  0  0  0
 19 45  1  0  0  0  0
 20 46  1  0  0  0  0
 21 22  1  0  0  0  0
 22 23  1  0  0  0  0
 23 24  1  0  0  0  0
 23 30  1  0  0  0  0
 24 25  1  0  0  0  0
 24 29  1  0  0  0  0
 24 47  1  1  0  0  0
 25 26  1  0  0  0  0
 25 48  1  0  0  0  0
 25 49  1  0  0  0  0
 26 27  1  0  0  0  0
 26 50  1  0  0  0  0
 26 51  1  0  0  0  0
 27 28  1  0  0  0  0
 27 29  1  0  0  0  0
 27 52  1  6  0  0  0
 28 53  1  0  0  0  0
 29 54  1  0  0  0  0
 29 55  1  0  0  0  0
 30 31  2  0  0  0  0
 32 33  1  0  0  0  0
 32 56  1  0  0  0  0
 33 57  1  0  0  0  0
M  END
$$$$
