CHEMBL4447942
 OpenBabel04072215383D

 50 54  0  0  0  0  0  0  0  0999 V2000
   -0.7605    0.2377   -0.5202 O   0  0  0  0  0  0  0  0  0  0  0  0
   -0.7141   -0.9514   -0.8060 C   0  0  0  0  0  0  0  0  0  0  0  0
    0.0269   -1.5190   -1.8319 N   0  0  0  0  0  0  0  0  0  0  0  0
    0.9283   -0.8244   -2.6798 C   0  0  0  0  0  0  0  0  0  0  0  0
    1.3657    0.4728   -2.3970 C   0  0  0  0  0  0  0  0  0  0  0  0
    2.2209    1.1498   -3.2614 C   0  0  0  0  0  0  0  0  0  0  0  0
    2.6571    0.5322   -4.4269 C   0  0  0  0  0  0  0  0  0  0  0  0
    2.2609   -0.7773   -4.7315 C   0  0  0  0  0  0  0  0  0  0  0  0
    2.7520   -1.4042   -5.9466 C   0  0  0  0  0  0  0  0  0  0  0  0
    3.1691   -0.7439   -7.0832 C   0  0  0  0  0  0  0  0  0  0  0  0
    3.6246   -1.7375   -7.8965 N   0  0  0  0  0  0  0  0  0  0  0  0
    4.2704   -1.5933   -9.1914 C   0  0  0  0  0  0  0  0  0  0  0  0
    3.2647   -1.5728  -10.3158 C   0  0  0  0  0  0  0  0  0  0  0  0
    3.1314   -0.4561  -11.1476 C   0  0  0  0  0  0  0  0  0  0  0  0
    2.1542   -0.4286  -12.1521 C   0  0  0  0  0  0  0  0  0  0  0  0
    1.2856   -1.5144  -12.3652 C   0  0  0  0  0  0  0  0  0  0  0  0
    0.2067   -1.4609  -13.3695 C   0  0  0  0  0  0  0  0  0  0  0  0
    0.2902   -0.7563  -14.5609 C   0  0  0  0  0  0  0  0  0  0  0  0
   -0.6951   -0.6721  -15.4847 N   0  0  0  0  0  0  0  0  0  0  0  0
   -1.8202   -1.3387  -15.1953 C   0  0  0  0  0  0  0  0  0  0  0  0
   -2.0384   -2.0616  -14.0905 N   0  0  0  0  0  0  0  0  0  0  0  0
   -1.0164   -2.0976  -13.2057 C   0  0  0  0  0  0  0  0  0  0  0  0
    1.4705   -2.6476  -11.5546 C   0  0  0  0  0  0  0  0  0  0  0  0
    2.4402   -2.6784  -10.5484 C   0  0  0  0  0  0  0  0  0  0  0  0
    3.4742   -2.9461   -7.3194 N   0  0  0  0  0  0  0  0  0  0  0  0
    2.9190   -2.7525   -6.1266 N   0  0  0  0  0  0  0  0  0  0  0  0
    1.4085   -1.4591   -3.8406 C   0  0  0  0  0  0  0  0  0  0  0  0
   -1.5578   -1.8623    0.0232 C   0  0  0  0  0  0  0  0  0  0  0  0
   -1.0602   -3.2015    0.5049 C   0  0  0  0  0  0  0  0  0  0  0  0
   -2.2000   -3.1298   -0.4736 C   0  0  0  0  0  0  0  0  0  0  0  0
   -0.1324   -2.4964   -2.0372 H   0  0  0  0  0  0  0  0  0  0  0  0
    1.0745    0.9906   -1.4882 H   0  0  0  0  0  0  0  0  0  0  0  0
    2.5460    2.1569   -3.0203 H   0  0  0  0  0  0  0  0  0  0  0  0
    3.3273    1.0840   -5.0797 H   0  0  0  0  0  0  0  0  0  0  0  0
    3.1986    0.2972   -7.3663 H   0  0  0  0  0  0  0  0  0  0  0  0
    4.9832   -2.4143   -9.3203 H   0  0  0  0  0  0  0  0  0  0  0  0
    4.8447   -0.6587   -9.1585 H   0  0  0  0  0  0  0  0  0  0  0  0
    3.7700    0.4158  -11.0165 H   0  0  0  0  0  0  0  0  0  0  0  0
    2.0655    0.4785  -12.7477 H   0  0  0  0  0  0  0  0  0  0  0  0
    1.1904   -0.2133  -14.8362 H   0  0  0  0  0  0  0  0  0  0  0  0
   -2.6264   -1.2877  -15.9185 H   0  0  0  0  0  0  0  0  0  0  0  0
   -1.2387   -2.6738  -12.3108 H   0  0  0  0  0  0  0  0  0  0  0  0
    0.8545   -3.5356  -11.6857 H   0  0  0  0  0  0  0  0  0  0  0  0
    2.5283   -3.5722   -9.9310 H   0  0  0  0  0  0  0  0  0  0  0  0
    1.0975   -2.4745   -4.0787 H   0  0  0  0  0  0  0  0  0  0  0  0
   -2.1499   -1.2994    0.7446 H   0  0  0  0  0  0  0  0  0  0  0  0
   -1.2806   -3.4640    1.5348 H   0  0  0  0  0  0  0  0  0  0  0  0
   -0.1006   -3.5643    0.1588 H   0  0  0  0  0  0  0  0  0  0  0  0
   -3.1984   -3.3495   -0.1065 H   0  0  0  0  0  0  0  0  0  0  0  0
   -2.0354   -3.4550   -1.4916 H   0  0  0  0  0  0  0  0  0  0  0  0
  1  2  2  0  0  0  0
  2  3  1  0  0  0  0
  2 28  1  0  0  0  0
  3  4  1  0  0  0  0
  3 31  1  0  0  0  0
  4  5  1  0  0  0  0
  4 27  2  0  0  0  0
  5  6  2  0  0  0  0
  5 32  1  0  0  0  0
  6  7  1  0  0  0  0
  6 33  1  0  0  0  0
  7  8  2  0  0  0  0
  7 34  1  0  0  0  0
  8  9  1  0  0  0  0
  8 27  1  0  0  0  0
  9 10  2  0  0  0  0
  9 26  1  0  0  0  0
 10 11  1  0  0  0  0
 10 35  1  0  0  0  0
 11 12  1  0  0  0  0
 11 25  1  0  0  0  0
 12 13  1  0  0  0  0
 12 36  1  0  0  0  0
 12 37  1  0  0  0  0
 13 14  1  0  0  0  0
 13 24  2  0  0  0  0
 14 15  2  0  0  0  0
 14 38  1  0  0  0  0
 15 16  1  0  0  0  0
 15 39  1  0  0  0  0
 16 17  1  0  0  0  0
 16 23  2  0  0  0  0
 17 18  1  0  0  0  0
 17 22  2  0  0  0  0
 18 19  2  0  0  0  0
 18 40  1  0  0  0  0
 19 20  1  0  0  0  0
 20 21  2  0  0  0  0
 20 41  1  0  0  0  0
 21 22  1  0  0  0  0
 22 42  1  0  0  0  0
 23 24  1  0  0  0  0
 23 43  1  0  0  0  0
 24 44  1  0  0  0  0
 25 26  2  0  0  0  0
 27 45  1  0  0  0  0
 28 29  1  0  0  0  0
 28 30  1  0  0  0  0
 28 46  1  0  0  0  0
 29 30  1  0  0  0  0
 29 47  1  0  0  0  0
 29 48  1  0  0  0  0
 30 49  1  0  0  0  0
 30 50  1  0  0  0  0
M  END
$$$$
