CHEMBL3694721
 OpenBabel04072215373D

 48 51  0  0  0  0  0  0  0  0999 V2000
    2.5816    0.1797   -1.2260 O   0  0  0  0  0  0  0  0  0  0  0  0
    2.4945   -0.6536   -0.3345 C   0  0  0  0  0  0  0  0  0  0  0  0
    1.4541   -1.5586   -0.3111 N   0  0  0  0  0  0  0  0  0  0  0  0
    0.3679   -1.4014   -1.2878 C   0  0  0  0  0  0  0  0  0  0  0  0
   -0.7284   -0.4047   -0.8854 C   0  0  0  0  0  0  0  0  0  0  0  0
   -0.5085    0.1188    0.3435 F   0  0  0  0  0  0  0  0  0  0  0  0
   -0.8478    0.6134   -1.7611 F   0  0  0  0  0  0  0  0  0  0  0  0
   -1.9281   -1.0358   -0.8297 F   0  0  0  0  0  0  0  0  0  0  0  0
    3.3599   -0.8444    0.7210 N   0  0  0  0  0  0  0  0  0  0  0  0
    4.5389   -0.1132    0.9913 C   0  0  0  0  0  0  0  0  0  0  0  0
    4.9873    0.9270    0.1764 C   0  0  0  0  0  0  0  0  0  0  0  0
    6.1989    1.5586    0.4345 C   0  0  0  0  0  0  0  0  0  0  0  0
    6.9579    1.1762    1.5336 C   0  0  0  0  0  0  0  0  0  0  0  0
    6.4771    0.2307    2.4472 C   0  0  0  0  0  0  0  0  0  0  0  0
    7.1790   -0.0108    3.7142 C   0  0  0  0  0  0  0  0  0  0  0  0
    7.3256   -1.1768    4.4554 C   0  0  0  0  0  0  0  0  0  0  0  0
    8.0475   -0.9784    5.6002 N   0  0  0  0  0  0  0  0  0  0  0  0
    8.3489    0.3024    5.6018 C   0  0  0  0  0  0  0  0  0  0  0  0
    9.0985    1.0801    6.5351 C   0  0  0  0  0  0  0  0  0  0  0  0
    9.2978    2.4080    6.3470 C   0  0  0  0  0  0  0  0  0  0  0  0
   10.1147    3.1793    7.3183 C   0  0  0  0  0  0  0  0  0  0  0  0
   10.6235    2.5385    8.3905 N   0  0  0  0  0  0  0  0  0  0  0  0
   11.4228    3.2599    9.2064 C   0  0  0  0  0  0  0  0  0  0  0  0
   11.7114    4.5907    9.0088 C   0  0  0  0  0  0  0  0  0  0  0  0
   12.6168    5.3813    9.8481 C   0  0  0  0  0  0  0  0  0  0  0  0
   13.2302    6.3381    9.4020 O   0  0  0  0  0  0  0  0  0  0  0  0
   12.7044    4.9908   11.1332 O   0  0  0  0  0  0  0  0  0  0  0  0
   11.1429    5.1563    7.8898 C   0  0  0  0  0  0  0  0  0  0  0  0
   10.3393    4.4804    7.0413 N   0  0  0  0  0  0  0  0  0  0  0  0
    8.6990    3.0493    5.1695 C   0  0  0  0  0  0  0  0  0  0  0  0
    7.9761    2.3288    4.3009 C   0  0  0  0  0  0  0  0  0  0  0  0
    7.8231    0.9568    4.4885 N   0  0  0  0  0  0  0  0  0  0  0  0
    5.2861   -0.4496    2.1339 C   0  0  0  0  0  0  0  0  0  0  0  0
    1.1834   -1.8931    0.6025 H   0  0  0  0  0  0  0  0  0  0  0  0
   -0.0686   -2.3958   -1.4223 H   0  0  0  0  0  0  0  0  0  0  0  0
    0.7929   -1.1027   -2.2534 H   0  0  0  0  0  0  0  0  0  0  0  0
    3.1721   -1.6334    1.3206 H   0  0  0  0  0  0  0  0  0  0  0  0
    4.4280    1.2659   -0.6887 H   0  0  0  0  0  0  0  0  0  0  0  0
    6.5467    2.3514   -0.2217 H   0  0  0  0  0  0  0  0  0  0  0  0
    7.9237    1.6541    1.6720 H   0  0  0  0  0  0  0  0  0  0  0  0
    6.9511   -2.1627    4.2116 H   0  0  0  0  0  0  0  0  0  0  0  0
    9.5067    0.5506    7.3907 H   0  0  0  0  0  0  0  0  0  0  0  0
   11.8469    2.6866   10.0236 H   0  0  0  0  0  0  0  0  0  0  0  0
   12.0584    4.3398   11.4571 H   0  0  0  0  0  0  0  0  0  0  0  0
   11.3255    6.1954    7.6230 H   0  0  0  0  0  0  0  0  0  0  0  0
    8.8474    4.1146    5.0162 H   0  0  0  0  0  0  0  0  0  0  0  0
    7.5080    2.7977    3.4496 H   0  0  0  0  0  0  0  0  0  0  0  0
    4.9255   -1.2273    2.8029 H   0  0  0  0  0  0  0  0  0  0  0  0
  1  2  2  0  0  0  0
  2  3  1  0  0  0  0
  2  9  1  0  0  0  0
  3  4  1  0  0  0  0
  3 34  1  0  0  0  0
  4  5  1  0  0  0  0
  4 35  1  0  0  0  0
  4 36  1  0  0  0  0
  5  6  1  0  0  0  0
  5  7  1  0  0  0  0
  5  8  1  0  0  0  0
  9 10  1  0  0  0  0
  9 37  1  0  0  0  0
 10 11  1  0  0  0  0
 10 33  2  0  0  0  0
 11 12  2  0  0  0  0
 11 38  1  0  0  0  0
 12 13  1  0  0  0  0
 12 39  1  0  0  0  0
 13 14  2  0  0  0  0
 13 40  1  0  0  0  0
 14 15  1  0  0  0  0
 14 33  1  0  0  0  0
 15 16  2  0  0  0  0
 15 32  1  0  0  0  0
 16 17  1  0  0  0  0
 16 41  1  0  0  0  0
 17 18  2  0  0  0  0
 18 19  1  0  0  0  0
 18 32  1  0  0  0  0
 19 20  2  0  0  0  0
 19 42  1  0  0  0  0
 20 21  1  0  0  0  0
 20 30  1  0  0  0  0
 21 22  1  0  0  0  0
 21 29  2  0  0  0  0
 22 23  2  0  0  0  0
 23 24  1  0  0  0  0
 23 43  1  0  0  0  0
 24 25  1  0  0  0  0
 24 28  2  0  0  0  0
 25 26  2  0  0  0  0
 25 27  1  0  0  0  0
 27 44  1  0  0  0  0
 28 29  1  0  0  0  0
 28 45  1  0  0  0  0
 30 31  2  0  0  0  0
 30 46  1  0  0  0  0
 31 32  1  0  0  0  0
 31 47  1  0  0  0  0
 33 48  1  0  0  0  0
M  END
$$$$
