CHEMBL3905866
 OpenBabel04072215373D

 60 63  0  0  0  0  0  0  0  0999 V2000
    0.6147   -2.9517   -2.7314 C   0  0  0  0  0  0  0  0  0  0  0  0
    1.8934   -3.5255   -2.4432 O   0  0  0  0  0  0  0  0  0  0  0  0
    2.8774   -2.6750   -1.9954 C   0  0  0  0  0  0  0  0  0  0  0  0
    2.7187   -1.2944   -1.8817 C   0  0  0  0  0  0  0  0  0  0  0  0
    3.7558   -0.5209   -1.3687 C   0  0  0  0  0  0  0  0  0  0  0  0
    3.7121    0.8367   -1.1758 O   0  0  0  0  0  0  0  0  0  0  0  0
    2.5594    1.5209   -1.6575 C   0  0  0  0  0  0  0  0  0  0  0  0
    4.9542   -1.1373   -0.9667 C   0  0  0  0  0  0  0  0  0  0  0  0
    5.1581   -2.5257   -1.0566 C   0  0  0  0  0  0  0  0  0  0  0  0
    6.2827   -3.1715   -0.4609 N   0  0  0  0  0  0  0  0  0  0  0  0
    6.8250   -2.5358    0.7979 C   0  0  0  0  0  0  0  0  0  0  0  0
    5.8653   -2.3446    2.0110 C   0  0  0  0  0  0  0  0  0  0  0  0
    5.3418   -3.4988    2.7625 N   0  0  0  0  0  0  0  0  0  0  0  0
    6.3602   -4.3005    3.4635 C   0  0  0  0  0  0  0  0  0  0  0  0
    5.7783   -5.3900    4.3841 C   0  0  0  0  0  0  0  0  0  0  0  0
    4.9710   -6.2186    3.6718 F   0  0  0  0  0  0  0  0  0  0  0  0
    6.7903   -6.1634    4.8621 F   0  0  0  0  0  0  0  0  0  0  0  0
    7.3811   -3.8725   -1.0978 C   0  0  0  0  0  0  0  0  0  0  0  0
    7.8829   -4.9324   -0.3582 C   0  0  0  0  0  0  0  0  0  0  0  0
    9.2089   -5.3224   -0.4947 C   0  0  0  0  0  0  0  0  0  0  0  0
   10.0153   -4.8029   -1.4736 C   0  0  0  0  0  0  0  0  0  0  0  0
   11.2997   -5.1485   -1.3400 N   0  0  0  0  0  0  0  0  0  0  0  0
   12.1096   -4.8227   -2.3463 C   0  0  0  0  0  0  0  0  0  0  0  0
   11.6487   -4.2148   -3.5089 C   0  0  0  0  0  0  0  0  0  0  0  0
   12.5730   -4.2710   -4.6322 C   0  0  0  0  0  0  0  0  0  0  0  0
   12.6748   -5.2382   -5.6695 C   0  0  0  0  0  0  0  0  0  0  0  0
   13.8088   -5.1349   -6.3744 N   0  0  0  0  0  0  0  0  0  0  0  0
   14.4508   -4.1134   -5.7841 N   0  0  0  0  0  0  0  0  0  0  0  0
   15.5981   -3.5030   -6.4143 C   0  0  0  0  0  0  0  0  0  0  0  0
   13.8324   -3.6885   -4.6391 C   0  0  0  0  0  0  0  0  0  0  0  0
   10.3556   -3.7458   -3.5849 N   0  0  0  0  0  0  0  0  0  0  0  0
    9.4993   -3.9742   -2.4939 C   0  0  0  0  0  0  0  0  0  0  0  0
    8.1456   -3.4779   -2.2376 C   0  0  0  0  0  0  0  0  0  0  0  0
    4.0983   -3.2766   -1.6067 C   0  0  0  0  0  0  0  0  0  0  0  0
   -0.0652   -3.7536   -3.0377 H   0  0  0  0  0  0  0  0  0  0  0  0
    0.6768   -2.2411   -3.5636 H   0  0  0  0  0  0  0  0  0  0  0  0
    0.1783   -2.4755   -1.8451 H   0  0  0  0  0  0  0  0  0  0  0  0
    1.7881   -0.8237   -2.1723 H   0  0  0  0  0  0  0  0  0  0  0  0
    2.7132    2.5924   -1.4994 H   0  0  0  0  0  0  0  0  0  0  0  0
    1.6628    1.2283   -1.0991 H   0  0  0  0  0  0  0  0  0  0  0  0
    2.4235    1.3597   -2.7324 H   0  0  0  0  0  0  0  0  0  0  0  0
    5.7127   -0.4944   -0.5363 H   0  0  0  0  0  0  0  0  0  0  0  0
    7.2633   -1.5657    0.5366 H   0  0  0  0  0  0  0  0  0  0  0  0
    7.6716   -3.1065    1.2008 H   0  0  0  0  0  0  0  0  0  0  0  0
    5.0027   -1.7414    1.7154 H   0  0  0  0  0  0  0  0  0  0  0  0
    6.4077   -1.7196    2.7352 H   0  0  0  0  0  0  0  0  0  0  0  0
    4.7874   -4.0971    2.1478 H   0  0  0  0  0  0  0  0  0  0  0  0
    7.0067   -3.6609    4.0769 H   0  0  0  0  0  0  0  0  0  0  0  0
    7.0021   -4.7967    2.7302 H   0  0  0  0  0  0  0  0  0  0  0  0
    5.2185   -4.9826    5.2318 H   0  0  0  0  0  0  0  0  0  0  0  0
    7.2984   -5.3619    0.4536 H   0  0  0  0  0  0  0  0  0  0  0  0
    9.6265   -6.0240    0.2193 H   0  0  0  0  0  0  0  0  0  0  0  0
   13.1493   -5.1201   -2.2170 H   0  0  0  0  0  0  0  0  0  0  0  0
   11.9938   -6.0433   -5.9162 H   0  0  0  0  0  0  0  0  0  0  0  0
   15.7965   -3.9826   -7.3773 H   0  0  0  0  0  0  0  0  0  0  0  0
   16.4689   -3.5927   -5.7601 H   0  0  0  0  0  0  0  0  0  0  0  0
   15.3531   -2.4499   -6.5783 H   0  0  0  0  0  0  0  0  0  0  0  0
   14.3279   -3.0084   -3.9606 H   0  0  0  0  0  0  0  0  0  0  0  0
    7.7573   -2.7178   -2.9103 H   0  0  0  0  0  0  0  0  0  0  0  0
    4.1793   -4.3602   -1.6590 H   0  0  0  0  0  0  0  0  0  0  0  0
  1  2  1  0  0  0  0
  1 35  1  0  0  0  0
  1 36  1  0  0  0  0
  1 37  1  0  0  0  0
  2  3  1  0  0  0  0
  3  4  1  0  0  0  0
  3 34  2  0  0  0  0
  4  5  2  0  0  0  0
  4 38  1  0  0  0  0
  5  6  1  0  0  0  0
  5  8  1  0  0  0  0
  6  7  1  0  0  0  0
  7 39  1  0  0  0  0
  7 40  1  0  0  0  0
  7 41  1  0  0  0  0
  8  9  2  0  0  0  0
  8 42  1  0  0  0  0
  9 10  1  0  0  0  0
  9 34  1  0  0  0  0
 10 11  1  0  0  0  0
 10 18  1  0  0  0  0
 11 12  1  0  0  0  0
 11 43  1  0  0  0  0
 11 44  1  0  0  0  0
 12 13  1  0  0  0  0
 12 45  1  0  0  0  0
 12 46  1  0  0  0  0
 13 14  1  0  0  0  0
 13 47  1  0  0  0  0
 14 15  1  0  0  0  0
 14 48  1  0  0  0  0
 14 49  1  0  0  0  0
 15 16  1  0  0  0  0
 15 17  1  0  0  0  0
 15 50  1  0  0  0  0
 18 19  1  0  0  0  0
 18 33  2  0  0  0  0
 19 20  2  0  0  0  0
 19 51  1  0  0  0  0
 20 21  1  0  0  0  0
 20 52  1  0  0  0  0
 21 22  1  0  0  0  0
 21 32  2  0  0  0  0
 22 23  2  0  0  0  0
 23 24  1  0  0  0  0
 23 53  1  0  0  0  0
 24 25  1  0  0  0  0
 24 31  2  0  0  0  0
 25 26  1  0  0  0  0
 25 30  2  0  0  0  0
 26 27  2  0  0  0  0
 26 54  1  0  0  0  0
 27 28  1  0  0  0  0
 28 29  1  0  0  0  0
 28 30  1  0  0  0  0
 29 55  1  0  0  0  0
 29 56  1  0  0  0  0
 29 57  1  0  0  0  0
 30 58  1  0  0  0  0
 31 32  1  0  0  0  0
 32 33  1  0  0  0  0
 33 59  1  0  0  0  0
 34 60  1  0  0  0  0
M  END
$$$$
