CHEMBL4290371
 OpenBabel04072215383D

 66 70  0  0  0  0  0  0  0  0999 V2000
   10.9047   -8.9136   -0.3412 C   0  0  0  0  0  0  0  0  0  0  0  0
   10.4619   -7.5439   -0.3438 N   0  0  0  0  0  0  0  0  0  0  0  0
    9.5483   -7.1191    0.5994 C   0  0  0  0  0  0  0  0  0  0  0  0
    9.0834   -7.8898    1.4310 O   0  0  0  0  0  0  0  0  0  0  0  0
    9.1571   -5.6725    0.5444 C   0  0  0  0  0  0  0  0  0  0  0  0
    9.1526   -5.0294   -0.7032 C   0  0  0  0  0  0  0  0  0  0  0  0
    8.7635   -3.6985   -0.8088 C   0  0  0  0  0  0  0  0  0  0  0  0
    8.3780   -2.9938    0.3317 C   0  0  0  0  0  0  0  0  0  0  0  0
    8.3739   -3.6048    1.5971 C   0  0  0  0  0  0  0  0  0  0  0  0
    7.9958   -2.8781    2.7472 C   0  0  0  0  0  0  0  0  0  0  0  0
    7.9840   -3.4812    4.0068 C   0  0  0  0  0  0  0  0  0  0  0  0
    7.6607   -2.6898    5.0871 O   0  0  0  0  0  0  0  0  0  0  0  0
    7.0241   -3.2608    6.1675 C   0  0  0  0  0  0  0  0  0  0  0  0
    6.1360   -4.3283    6.0393 C   0  0  0  0  0  0  0  0  0  0  0  0
    5.5260   -4.7980    7.1696 C   0  0  0  0  0  0  0  0  0  0  0  0
    5.7269   -4.2607    8.3777 N   0  0  0  0  0  0  0  0  0  0  0  0
    6.5644   -3.2240    8.5142 C   0  0  0  0  0  0  0  0  0  0  0  0
    6.7708   -2.6912    9.8093 N   0  0  0  0  0  0  0  0  0  0  0  0
    6.0906   -3.1846   10.9238 C   0  0  0  0  0  0  0  0  0  0  0  0
    5.2901   -4.1162   10.9456 O   0  0  0  0  0  0  0  0  0  0  0  0
    6.3358   -2.5307   12.2406 C   0  0  0  0  0  0  0  0  0  0  0  0
    6.6888   -1.1943   12.3916 C   0  0  0  0  0  0  0  0  0  0  0  0
    6.7468   -0.6414   13.6797 C   0  0  0  0  0  0  0  0  0  0  0  0
    6.4684   -1.3926   14.8366 C   0  0  0  0  0  0  0  0  0  0  0  0
    6.5080   -0.8087   16.0798 N   0  0  0  0  0  0  0  0  0  0  0  0
    5.6936   -1.2806   17.2077 C   0  0  0  0  0  0  0  0  0  0  0  0
    5.1116   -0.0568   17.9539 C   0  0  0  0  0  0  0  0  0  0  0  0
    6.1712    0.8846   18.3892 N   0  0  0  0  0  0  0  0  0  0  0  0
    5.5932    2.0245   19.0909 C   0  0  0  0  0  0  0  0  0  0  0  0
    6.9385    1.3306   17.2033 C   0  0  0  0  0  0  0  0  0  0  0  0
    7.5609    0.1500   16.4322 C   0  0  0  0  0  0  0  0  0  0  0  0
    6.1167   -2.7315   14.6614 C   0  0  0  0  0  0  0  0  0  0  0  0
    6.0608   -3.2944   13.3859 C   0  0  0  0  0  0  0  0  0  0  0  0
    7.2434   -2.6851    7.4252 C   0  0  0  0  0  0  0  0  0  0  0  0
    8.3497   -4.8170    4.1226 C   0  0  0  0  0  0  0  0  0  0  0  0
    8.7235   -5.5409    2.9992 C   0  0  0  0  0  0  0  0  0  0  0  0
    8.7557   -4.9670    1.7132 C   0  0  0  0  0  0  0  0  0  0  0  0
   11.5949   -9.0618   -1.1727 H   0  0  0  0  0  0  0  0  0  0  0  0
   10.0384   -9.5734   -0.4487 H   0  0  0  0  0  0  0  0  0  0  0  0
   11.4039   -9.1252    0.6083 H   0  0  0  0  0  0  0  0  0  0  0  0
   10.9612   -6.8711   -0.9074 H   0  0  0  0  0  0  0  0  0  0  0  0
    9.4200   -5.5661   -1.6090 H   0  0  0  0  0  0  0  0  0  0  0  0
    8.7476   -3.2131   -1.7816 H   0  0  0  0  0  0  0  0  0  0  0  0
    8.0678   -1.9558    0.2207 H   0  0  0  0  0  0  0  0  0  0  0  0
    7.7005   -1.8340    2.6652 H   0  0  0  0  0  0  0  0  0  0  0  0
    5.9412   -4.8031    5.0879 H   0  0  0  0  0  0  0  0  0  0  0  0
    4.8384   -5.6371    7.1337 H   0  0  0  0  0  0  0  0  0  0  0  0
    7.4356   -1.9579    9.9140 H   0  0  0  0  0  0  0  0  0  0  0  0
    6.8657   -0.5435   11.5438 H   0  0  0  0  0  0  0  0  0  0  0  0
    6.9567    0.4218   13.7730 H   0  0  0  0  0  0  0  0  0  0  0  0
    6.3069   -1.8820   17.8902 H   0  0  0  0  0  0  0  0  0  0  0  0
    4.8547   -1.9038   16.8762 H   0  0  0  0  0  0  0  0  0  0  0  0
    4.5494   -0.4162   18.8233 H   0  0  0  0  0  0  0  0  0  0  0  0
    4.3991    0.4556   17.2909 H   0  0  0  0  0  0  0  0  0  0  0  0
    5.0617    1.6872   19.9870 H   0  0  0  0  0  0  0  0  0  0  0  0
    4.8950    2.5912   18.4653 H   0  0  0  0  0  0  0  0  0  0  0  0
    6.3841    2.7020   19.4298 H   0  0  0  0  0  0  0  0  0  0  0  0
    7.7457    2.0052   17.5095 H   0  0  0  0  0  0  0  0  0  0  0  0
    6.2850    1.8866   16.5168 H   0  0  0  0  0  0  0  0  0  0  0  0
    8.3254   -0.3491   17.0413 H   0  0  0  0  0  0  0  0  0  0  0  0
    8.0836    0.5429   15.5544 H   0  0  0  0  0  0  0  0  0  0  0  0
    5.8822   -3.3611   15.5139 H   0  0  0  0  0  0  0  0  0  0  0  0
    5.7700   -4.3390   13.2919 H   0  0  0  0  0  0  0  0  0  0  0  0
    7.9335   -1.8579    7.5222 H   0  0  0  0  0  0  0  0  0  0  0  0
    8.3271   -5.3456    5.0718 H   0  0  0  0  0  0  0  0  0  0  0  0
    8.9895   -6.5798    3.1712 H   0  0  0  0  0  0  0  0  0  0  0  0
  1  2  1  0  0  0  0
  1 38  1  0  0  0  0
  1 39  1  0  0  0  0
  1 40  1  0  0  0  0
  2  3  1  0  0  0  0
  2 41  1  0  0  0  0
  3  4  2  0  0  0  0
  3  5  1  0  0  0  0
  5  6  1  0  0  0  0
  5 37  2  0  0  0  0
  6  7  2  0  0  0  0
  6 42  1  0  0  0  0
  7  8  1  0  0  0  0
  7 43  1  0  0  0  0
  8  9  2  0  0  0  0
  8 44  1  0  0  0  0
  9 10  1  0  0  0  0
  9 37  1  0  0  0  0
 10 11  2  0  0  0  0
 10 45  1  0  0  0  0
 11 12  1  0  0  0  0
 11 35  1  0  0  0  0
 12 13  1  0  0  0  0
 13 14  1  0  0  0  0
 13 34  2  0  0  0  0
 14 15  2  0  0  0  0
 14 46  1  0  0  0  0
 15 16  1  0  0  0  0
 15 47  1  0  0  0  0
 16 17  2  0  0  0  0
 17 18  1  0  0  0  0
 17 34  1  0  0  0  0
 18 19  1  0  0  0  0
 18 48  1  0  0  0  0
 19 20  2  0  0  0  0
 19 21  1  0  0  0  0
 21 22  1  0  0  0  0
 21 33  2  0  0  0  0
 22 23  2  0  0  0  0
 22 49  1  0  0  0  0
 23 24  1  0  0  0  0
 23 50  1  0  0  0  0
 24 25  1  0  0  0  0
 24 32  2  0  0  0  0
 25 26  1  0  0  0  0
 25 31  1  0  0  0  0
 26 27  1  0  0  0  0
 26 51  1  0  0  0  0
 26 52  1  0  0  0  0
 27 28  1  0  0  0  0
 27 53  1  0  0  0  0
 27 54  1  0  0  0  0
 28 29  1  0  0  0  0
 28 30  1  0  0  0  0
 29 55  1  0  0  0  0
 29 56  1  0  0  0  0
 29 57  1  0  0  0  0
 30 31  1  0  0  0  0
 30 58  1  0  0  0  0
 30 59  1  0  0  0  0
 31 60  1  0  0  0  0
 31 61  1  0  0  0  0
 32 33  1  0  0  0  0
 32 62  1  0  0  0  0
 33 63  1  0  0  0  0
 34 64  1  0  0  0  0
 35 36  2  0  0  0  0
 35 65  1  0  0  0  0
 36 37  1  0  0  0  0
 36 66  1  0  0  0  0
M  END
$$$$
