CHEMBL3910653
 OpenBabel04072215373D

 53 56  0  0  0  0  0  0  0  0999 V2000
    2.4362    0.3967    1.3468 O   0  0  0  0  0  0  0  0  0  0  0  0
    2.0696   -0.3482    0.4451 C   0  0  0  0  0  0  0  0  0  0  0  0
    0.7425   -0.5845    0.1198 N   0  0  0  0  0  0  0  0  0  0  0  0
   -0.3793   -0.0303    0.7790 C   0  0  0  0  0  0  0  0  0  0  0  0
   -0.2958    1.0356    1.6787 C   0  0  0  0  0  0  0  0  0  0  0  0
   -1.4280    1.5041    2.3451 C   0  0  0  0  0  0  0  0  0  0  0  0
   -2.6678    0.9230    2.1054 C   0  0  0  0  0  0  0  0  0  0  0  0
   -2.7872   -0.1237    1.1815 C   0  0  0  0  0  0  0  0  0  0  0  0
   -4.1296   -0.7457    0.8923 C   0  0  0  0  0  0  0  0  0  0  0  0
   -5.1556   -0.1825    1.5887 F   0  0  0  0  0  0  0  0  0  0  0  0
   -4.4717   -0.6463   -0.4222 F   0  0  0  0  0  0  0  0  0  0  0  0
   -4.1623   -2.0747    1.1866 F   0  0  0  0  0  0  0  0  0  0  0  0
   -1.6346   -0.5928    0.5209 C   0  0  0  0  0  0  0  0  0  0  0  0
    2.9302   -1.0802   -0.3455 N   0  0  0  0  0  0  0  0  0  0  0  0
    4.3355   -1.1696   -0.1963 C   0  0  0  0  0  0  0  0  0  0  0  0
    5.0604   -0.5566    0.8276 C   0  0  0  0  0  0  0  0  0  0  0  0
    6.4499   -0.6992    0.9007 C   0  0  0  0  0  0  0  0  0  0  0  0
    7.1441   -1.4366   -0.0613 C   0  0  0  0  0  0  0  0  0  0  0  0
    8.5429   -1.5726    0.0633 N   0  0  0  0  0  0  0  0  0  0  0  0
    9.4665   -1.6750   -1.0020 C   0  0  0  0  0  0  0  0  0  0  0  0
   10.6349   -2.4123   -0.8384 C   0  0  0  0  0  0  0  0  0  0  0  0
   11.5296   -2.4575   -1.8888 C   0  0  0  0  0  0  0  0  0  0  0  0
   11.3451   -1.8130   -3.0561 N   0  0  0  0  0  0  0  0  0  0  0  0
   10.2394   -1.0673   -3.2055 C   0  0  0  0  0  0  0  0  0  0  0  0
   10.0269   -0.3413   -4.3862 N   0  0  0  0  0  0  0  0  0  0  0  0
   10.8907   -0.3247   -5.4604 C   0  0  0  0  0  0  0  0  0  0  0  0
   11.9347   -0.9424   -5.5963 O   0  0  0  0  0  0  0  0  0  0  0  0
   10.4542    0.6127   -6.5433 C   0  0  0  0  0  0  0  0  0  0  0  0
   11.2048    0.6754   -7.8560 C   0  0  0  0  0  0  0  0  0  0  0  0
   11.3337    1.7992   -6.8707 C   0  0  0  0  0  0  0  0  0  0  0  0
    9.2850   -0.9708   -2.2005 C   0  0  0  0  0  0  0  0  0  0  0  0
    6.4177   -2.0929   -1.0581 C   0  0  0  0  0  0  0  0  0  0  0  0
    5.0352   -1.9443   -1.1252 C   0  0  0  0  0  0  0  0  0  0  0  0
    4.3637   -2.5694   -2.1060 F   0  0  0  0  0  0  0  0  0  0  0  0
    0.5622   -1.3364   -0.5277 H   0  0  0  0  0  0  0  0  0  0  0  0
    0.6435    1.5379    1.8894 H   0  0  0  0  0  0  0  0  0  0  0  0
   -1.3321    2.3247    3.0533 H   0  0  0  0  0  0  0  0  0  0  0  0
   -3.5404    1.2958    2.6390 H   0  0  0  0  0  0  0  0  0  0  0  0
   -1.7331   -1.4184   -0.1816 H   0  0  0  0  0  0  0  0  0  0  0  0
    2.5514   -1.5651   -1.1480 H   0  0  0  0  0  0  0  0  0  0  0  0
    4.5850    0.0471    1.5934 H   0  0  0  0  0  0  0  0  0  0  0  0
    6.9896   -0.2003    1.7032 H   0  0  0  0  0  0  0  0  0  0  0  0
    8.7635   -2.2015    0.8335 H   0  0  0  0  0  0  0  0  0  0  0  0
   10.8513   -2.9505    0.0765 H   0  0  0  0  0  0  0  0  0  0  0  0
   12.4526   -3.0255   -1.8219 H   0  0  0  0  0  0  0  0  0  0  0  0
    9.1999    0.2327   -4.4318 H   0  0  0  0  0  0  0  0  0  0  0  0
    9.3818    0.7634   -6.6184 H   0  0  0  0  0  0  0  0  0  0  0  0
   10.6383    0.8534   -8.7621 H   0  0  0  0  0  0  0  0  0  0  0  0
   12.0596    0.0202   -7.9933 H   0  0  0  0  0  0  0  0  0  0  0  0
   10.8559    2.7420   -7.1059 H   0  0  0  0  0  0  0  0  0  0  0  0
   12.2807    1.8958   -6.3486 H   0  0  0  0  0  0  0  0  0  0  0  0
    8.4105   -0.3419   -2.3290 H   0  0  0  0  0  0  0  0  0  0  0  0
    6.9132   -2.7272   -1.7860 H   0  0  0  0  0  0  0  0  0  0  0  0
  1  2  2  0  0  0  0
  2  3  1  0  0  0  0
  2 14  1  0  0  0  0
  3  4  1  0  0  0  0
  3 35  1  0  0  0  0
  4  5  1  0  0  0  0
  4 13  2  0  0  0  0
  5  6  2  0  0  0  0
  5 36  1  0  0  0  0
  6  7  1  0  0  0  0
  6 37  1  0  0  0  0
  7  8  2  0  0  0  0
  7 38  1  0  0  0  0
  8  9  1  0  0  0  0
  8 13  1  0  0  0  0
  9 10  1  0  0  0  0
  9 11  1  0  0  0  0
  9 12  1  0  0  0  0
 13 39  1  0  0  0  0
 14 15  1  0  0  0  0
 14 40  1  0  0  0  0
 15 16  1  0  0  0  0
 15 33  2  0  0  0  0
 16 17  2  0  0  0  0
 16 41  1  0  0  0  0
 17 18  1  0  0  0  0
 17 42  1  0  0  0  0
 18 19  1  0  0  0  0
 18 32  2  0  0  0  0
 19 20  1  0  0  0  0
 19 43  1  0  0  0  0
 20 21  1  0  0  0  0
 20 31  2  0  0  0  0
 21 22  2  0  0  0  0
 21 44  1  0  0  0  0
 22 23  1  0  0  0  0
 22 45  1  0  0  0  0
 23 24  2  0  0  0  0
 24 25  1  0  0  0  0
 24 31  1  0  0  0  0
 25 26  1  0  0  0  0
 25 46  1  0  0  0  0
 26 27  2  0  0  0  0
 26 28  1  0  0  0  0
 28 29  1  0  0  0  0
 28 30  1  0  0  0  0
 28 47  1  0  0  0  0
 29 30  1  0  0  0  0
 29 48  1  0  0  0  0
 29 49  1  0  0  0  0
 30 50  1  0  0  0  0
 30 51  1  0  0  0  0
 31 52  1  0  0  0  0
 32 33  1  0  0  0  0
 32 53  1  0  0  0  0
 33 34  1  0  0  0  0
M  END
$$$$
