CHEMBL3694708
 OpenBabel04072215373D

 52 55  0  0  0  0  0  0  0  0999 V2000
    4.0930   -1.3949   -1.8254 C   0  0  0  0  0  0  0  0  0  0  0  0
    4.2618   -0.1273   -1.2080 O   0  0  0  0  0  0  0  0  0  0  0  0
    3.0594    0.6397   -1.2231 C   0  0  0  0  0  0  0  0  0  0  0  0
    3.3126    2.0152   -0.6126 C   0  0  0  0  0  0  0  0  0  0  0  0
    4.3186    2.8182   -1.3733 C   0  0  0  0  0  0  0  0  0  0  0  0
    5.4605    3.2397   -0.8778 N   0  0  0  0  0  0  0  0  0  0  0  0
    6.1714    3.9986   -1.7795 N   0  0  0  0  0  0  0  0  0  0  0  0
    5.5571    4.1515   -2.9412 C   0  0  0  0  0  0  0  0  0  0  0  0
    6.0083    4.9464   -4.0524 C   0  0  0  0  0  0  0  0  0  0  0  0
    5.6282    4.7382   -5.4595 C   0  0  0  0  0  0  0  0  0  0  0  0
    6.0597    5.5821   -6.4139 C   0  0  0  0  0  0  0  0  0  0  0  0
    6.9001    6.6442   -6.0725 N   0  0  0  0  0  0  0  0  0  0  0  0
    7.4873    7.6392   -6.8452 C   0  0  0  0  0  0  0  0  0  0  0  0
    7.3903    7.8510   -8.2983 C   0  0  0  0  0  0  0  0  0  0  0  0
    7.3475    9.1746   -8.7642 C   0  0  0  0  0  0  0  0  0  0  0  0
    7.2979    9.4561  -10.1230 C   0  0  0  0  0  0  0  0  0  0  0  0
    7.3018    8.4144  -11.0446 C   0  0  0  0  0  0  0  0  0  0  0  0
    7.3900    7.0860  -10.6287 C   0  0  0  0  0  0  0  0  0  0  0  0
    7.4539    6.0066  -11.5481 N   0  0  0  0  0  0  0  0  0  0  0  0
    7.5897    6.1273  -12.9126 C   0  0  0  0  0  0  0  0  0  0  0  0
    7.7234    7.1550  -13.5589 O   0  0  0  0  0  0  0  0  0  0  0  0
    7.5194    4.9198  -13.5766 N   0  0  0  0  0  0  0  0  0  0  0  0
    7.6880    4.9359  -15.0410 C   0  0  0  0  0  0  0  0  0  0  0  0
    9.1229    5.1528  -15.5553 C   0  0  0  0  0  0  0  0  0  0  0  0
   10.0362    5.0962  -14.5591 F   0  0  0  0  0  0  0  0  0  0  0  0
    9.4454    4.1702  -16.4351 F   0  0  0  0  0  0  0  0  0  0  0  0
    9.2705    6.3281  -16.2006 F   0  0  0  0  0  0  0  0  0  0  0  0
    7.4164    6.8087   -9.2475 C   0  0  0  0  0  0  0  0  0  0  0  0
    8.1381    8.4366   -5.9102 C   0  0  0  0  0  0  0  0  0  0  0  0
    8.0150    7.9619   -4.6383 N   0  0  0  0  0  0  0  0  0  0  0  0
    7.2832    6.8796   -4.7523 C   0  0  0  0  0  0  0  0  0  0  0  0
    6.8226    5.9856   -3.7474 C   0  0  0  0  0  0  0  0  0  0  0  0
    4.0281    3.3333   -2.9830 S   0  0  0  0  0  0  0  0  0  0  0  0
    5.0536   -1.9162   -1.8082 H   0  0  0  0  0  0  0  0  0  0  0  0
    3.7796   -1.2758   -2.8672 H   0  0  0  0  0  0  0  0  0  0  0  0
    3.3587   -1.9903   -1.2754 H   0  0  0  0  0  0  0  0  0  0  0  0
    2.3013    0.1185   -0.6271 H   0  0  0  0  0  0  0  0  0  0  0  0
    2.6867    0.7267   -2.2503 H   0  0  0  0  0  0  0  0  0  0  0  0
    3.6751    1.8934    0.4154 H   0  0  0  0  0  0  0  0  0  0  0  0
    2.3701    2.5732   -0.5591 H   0  0  0  0  0  0  0  0  0  0  0  0
    4.9970    3.8946   -5.7186 H   0  0  0  0  0  0  0  0  0  0  0  0
    5.7720    5.4710   -7.4485 H   0  0  0  0  0  0  0  0  0  0  0  0
    7.3569   10.0136   -8.0715 H   0  0  0  0  0  0  0  0  0  0  0  0
    7.2688   10.4835  -10.4728 H   0  0  0  0  0  0  0  0  0  0  0  0
    7.2423    8.6912  -12.0916 H   0  0  0  0  0  0  0  0  0  0  0  0
    7.4578    5.0730  -11.1683 H   0  0  0  0  0  0  0  0  0  0  0  0
    7.8413    4.0981  -13.0875 H   0  0  0  0  0  0  0  0  0  0  0  0
    7.0467    5.7282  -15.4485 H   0  0  0  0  0  0  0  0  0  0  0  0
    7.2991    3.9855  -15.4127 H   0  0  0  0  0  0  0  0  0  0  0  0
    7.5070    5.7801   -8.9127 H   0  0  0  0  0  0  0  0  0  0  0  0
    8.6997    9.3430   -6.1012 H   0  0  0  0  0  0  0  0  0  0  0  0
    7.1312    6.1981   -2.7273 H   0  0  0  0  0  0  0  0  0  0  0  0
  1  2  1  0  0  0  0
  1 34  1  0  0  0  0
  1 35  1  0  0  0  0
  1 36  1  0  0  0  0
  2  3  1  0  0  0  0
  3  4  1  0  0  0  0
  3 37  1  0  0  0  0
  3 38  1  0  0  0  0
  4  5  1  0  0  0  0
  4 39  1  0  0  0  0
  4 40  1  0  0  0  0
  5  6  2  0  0  0  0
  5 33  1  0  0  0  0
  6  7  1  0  0  0  0
  7  8  2  0  0  0  0
  8  9  1  0  0  0  0
  8 33  1  0  0  0  0
  9 10  1  0  0  0  0
  9 32  2  0  0  0  0
 10 11  2  0  0  0  0
 10 41  1  0  0  0  0
 11 12  1  0  0  0  0
 11 42  1  0  0  0  0
 12 13  1  0  0  0  0
 12 31  1  0  0  0  0
 13 14  1  0  0  0  0
 13 29  2  0  0  0  0
 14 15  1  0  0  0  0
 14 28  2  0  0  0  0
 15 16  2  0  0  0  0
 15 43  1  0  0  0  0
 16 17  1  0  0  0  0
 16 44  1  0  0  0  0
 17 18  2  0  0  0  0
 17 45  1  0  0  0  0
 18 19  1  0  0  0  0
 18 28  1  0  0  0  0
 19 20  1  0  0  0  0
 19 46  1  0  0  0  0
 20 21  2  0  0  0  0
 20 22  1  0  0  0  0
 22 23  1  0  0  0  0
 22 47  1  0  0  0  0
 23 24  1  0  0  0  0
 23 48  1  0  0  0  0
 23 49  1  0  0  0  0
 24 25  1  0  0  0  0
 24 26  1  0  0  0  0
 24 27  1  0  0  0  0
 28 50  1  0  0  0  0
 29 30  1  0  0  0  0
 29 51  1  0  0  0  0
 30 31  2  0  0  0  0
 31 32  1  0  0  0  0
 32 52  1  0  0  0  0
M  END
$$$$
