CHEMBL1242380
 OpenBabel04072215363D

 46 48  0  0  1  0  0  0  0  0999 V2000
    2.4020   -4.1127    2.3314 C   0  0  0  0  0  0  0  0  0  0  0  0
    2.0857   -2.7293    2.4233 O   0  0  0  0  0  0  0  0  0  0  0  0
    2.5642   -2.0550    3.5121 C   0  0  0  0  0  0  0  0  0  0  0  0
    3.6508   -2.5019    4.2764 C   0  0  0  0  0  0  0  0  0  0  0  0
    4.0971   -1.7684    5.3807 C   0  0  0  0  0  0  0  0  0  0  0  0
    3.4993   -0.5509    5.7228 C   0  0  0  0  0  0  0  0  0  0  0  0
    3.8964    0.1397    6.9532 C   0  0  0  0  0  0  0  0  0  0  0  0
    5.1636    0.0237    7.4047 N   0  0  0  0  0  0  0  0  0  0  0  0
    5.1870    0.7545    8.5359 N   0  0  0  0  0  0  0  0  0  0  0  0
    6.4187    0.8872    9.2884 C   0  0  0  0  0  0  0  0  0  0  0  0
    6.6235   -0.1302   10.4296 C   0  0  2  0  0  0  0  0  0  0  0  0
    6.8118   -1.5592    9.9105 C   0  0  0  0  0  0  0  0  0  0  0  0
    5.5217   -0.0506   11.4914 C   0  0  0  0  0  0  0  0  0  0  0  0
    5.8862   -0.7974   12.6456 O   0  0  0  0  0  0  0  0  0  0  0  0
    3.9903    1.3475    8.8231 C   0  0  0  0  0  0  0  0  0  0  0  0
    3.7298    2.1522    9.8677 N   0  0  0  0  0  0  0  0  0  0  0  0
    2.4449    2.5323    9.8857 C   0  0  0  0  0  0  0  0  0  0  0  0
    1.4690    2.1741    9.0315 N   0  0  0  0  0  0  0  0  0  0  0  0
    1.7683    1.3575    7.9998 C   0  0  0  0  0  0  0  0  0  0  0  0
    0.7078    1.0302    7.1786 N   0  0  0  0  0  0  0  0  0  0  0  0
    3.0988    0.9264    7.8477 C   0  0  0  0  0  0  0  0  0  0  0  0
    2.5011   -0.0515    4.8868 C   0  0  0  0  0  0  0  0  0  0  0  0
    1.9792   -0.8223    3.8357 C   0  0  0  0  0  0  0  0  0  0  0  0
    0.9052   -0.2412    3.2091 O   0  0  0  0  0  0  0  0  0  0  0  0
   -0.1270   -1.1356    2.8001 C   0  0  0  0  0  0  0  0  0  0  0  0
    1.8469   -4.5256    1.4845 H   0  0  0  0  0  0  0  0  0  0  0  0
    2.0877   -4.6489    3.2333 H   0  0  0  0  0  0  0  0  0  0  0  0
    3.4672   -4.2611    2.1312 H   0  0  0  0  0  0  0  0  0  0  0  0
    4.1783   -3.4200    4.0390 H   0  0  0  0  0  0  0  0  0  0  0  0
    4.9251   -2.1591    5.9725 H   0  0  0  0  0  0  0  0  0  0  0  0
    6.4421    1.9069    9.6926 H   0  0  0  0  0  0  0  0  0  0  0  0
    7.2453    0.8188    8.5725 H   0  0  0  0  0  0  0  0  0  0  0  0
    7.5692    0.1349   10.9250 H   0  0  0  0  0  0  0  0  0  0  0  0
    5.9309   -1.9152    9.3685 H   0  0  0  0  0  0  0  0  0  0  0  0
    7.0017   -2.2585   10.7314 H   0  0  0  0  0  0  0  0  0  0  0  0
    7.6746   -1.6125    9.2374 H   0  0  0  0  0  0  0  0  0  0  0  0
    4.5625   -0.4298   11.1250 H   0  0  0  0  0  0  0  0  0  0  0  0
    5.3817    0.9847   11.8176 H   0  0  0  0  0  0  0  0  0  0  0  0
    5.7204   -1.7381   12.4554 H   0  0  0  0  0  0  0  0  0  0  0  0
    2.1519    3.1999   10.6890 H   0  0  0  0  0  0  0  0  0  0  0  0
   -0.1898    1.3578    7.5038 H   0  0  0  0  0  0  0  0  0  0  0  0
    0.7336    0.1881    6.6209 H   0  0  0  0  0  0  0  0  0  0  0  0
    2.0829    0.9376    5.0531 H   0  0  0  0  0  0  0  0  0  0  0  0
   -1.0651   -0.5712    2.7634 H   0  0  0  0  0  0  0  0  0  0  0  0
   -0.2733   -1.9623    3.5056 H   0  0  0  0  0  0  0  0  0  0  0  0
    0.0686   -1.5049    1.7902 H   0  0  0  0  0  0  0  0  0  0  0  0
  1  2  1  0  0  0  0
  1 26  1  0  0  0  0
  1 27  1  0  0  0  0
  1 28  1  0  0  0  0
  2  3  1  0  0  0  0
  3  4  1  0  0  0  0
  3 23  2  0  0  0  0
  4  5  2  0  0  0  0
  4 29  1  0  0  0  0
  5  6  1  0  0  0  0
  5 30  1  0  0  0  0
  6  7  1  0  0  0  0
  6 22  2  0  0  0  0
  7  8  2  0  0  0  0
  7 21  1  0  0  0  0
  8  9  1  0  0  0  0
  9 10  1  0  0  0  0
  9 15  1  0  0  0  0
 10 31  1  0  0  0  0
 10 32  1  0  0  0  0
 11 13  1  0  0  0  0
 11 12  1  0  0  0  0
 11 10  1  0  0  0  0
 11 33  1  1  0  0  0
 12 34  1  0  0  0  0
 12 35  1  0  0  0  0
 12 36  1  0  0  0  0
 13 14  1  0  0  0  0
 13 37  1  0  0  0  0
 13 38  1  0  0  0  0
 14 39  1  0  0  0  0
 15 16  1  0  0  0  0
 15 21  2  0  0  0  0
 16 17  2  0  0  0  0
 17 18  1  0  0  0  0
 17 40  1  0  0  0  0
 18 19  2  0  0  0  0
 19 20  1  0  0  0  0
 19 21  1  0  0  0  0
 20 41  1  0  0  0  0
 20 42  1  0  0  0  0
 22 23  1  0  0  0  0
 22 43  1  0  0  0  0
 23 24  1  0  0  0  0
 24 25  1  0  0  0  0
 25 44  1  0  0  0  0
 25 45  1  0  0  0  0
 25 46  1  0  0  0  0
M  END
$$$$
