CHEMBL401054
 OpenBabel04072215373D

 61 65  0  0  1  0  0  0  0  0999 V2000
    1.7141   -0.6778   -1.3259 C   0  0  0  0  0  0  0  0  0  0  0  0
    2.3986   -0.2143   -0.1707 O   0  0  0  0  0  0  0  0  0  0  0  0
    3.1534   -1.1280    0.5211 C   0  0  0  0  0  0  0  0  0  0  0  0
    4.3155   -0.5921    1.0849 C   0  0  0  0  0  0  0  0  0  0  0  0
    5.1533   -1.3319    1.9029 C   0  0  0  0  0  0  0  0  0  0  0  0
    6.2040   -0.7042    2.4404 N   0  0  0  0  0  0  0  0  0  0  0  0
    6.9448   -1.3788    3.3376 C   0  0  0  0  0  0  0  0  0  0  0  0
    6.7365   -2.6998    3.7040 C   0  0  0  0  0  0  0  0  0  0  0  0
    7.5130   -3.1878    4.7974 C   0  0  0  0  0  0  0  0  0  0  0  0
    8.1586   -3.4811    5.7135 N   0  0  0  0  0  0  0  0  0  0  0  0
    5.7385   -3.4210    3.0387 C   0  0  0  0  0  0  0  0  0  0  0  0
    5.4551   -4.7974    3.2693 N   0  0  0  0  0  0  0  0  0  0  0  0
    6.3482   -5.8070    3.8774 C   0  0  2  0  0  0  0  0  0  0  0  0
    5.7151   -7.1731    3.9627 C   0  0  0  0  0  0  0  0  0  0  0  0
    6.0435   -6.4108    5.2252 C   0  0  1  0  0  0  0  0  0  0  0  0
    6.9381   -7.1714    6.1783 C   0  0  0  0  0  0  0  0  0  0  0  0
    8.2493   -6.8171    6.5163 C   0  0  0  0  0  0  0  0  0  0  0  0
    8.9495   -7.5055    7.5168 C   0  0  0  0  0  0  0  0  0  0  0  0
    8.3554   -8.5727    8.1902 C   0  0  0  0  0  0  0  0  0  0  0  0
    7.0738   -8.9724    7.8463 C   0  0  0  0  0  0  0  0  0  0  0  0
    6.3813   -8.2797    6.8524 C   0  0  0  0  0  0  0  0  0  0  0  0
    4.8538   -2.6868    2.1671 C   0  0  0  0  0  0  0  0  0  0  0  0
    3.6668   -3.2192    1.5836 C   0  0  0  0  0  0  0  0  0  0  0  0
    2.8092   -2.4556    0.7892 C   0  0  0  0  0  0  0  0  0  0  0  0
    1.6409   -2.8965    0.2653 O   0  0  0  0  0  0  0  0  0  0  0  0
    1.0329   -4.1444    0.5913 C   0  0  0  0  0  0  0  0  0  0  0  0
    0.5381   -4.7166   -0.7490 C   0  0  0  0  0  0  0  0  0  0  0  0
   -0.3240   -5.9113   -0.6657 N   0  0  0  0  0  0  0  0  0  0  0  0
   -0.6315   -6.4147   -2.0326 C   0  0  0  0  0  0  0  0  0  0  0  0
   -1.7053   -5.6215   -2.8087 C   0  0  0  0  0  0  0  0  0  0  0  0
   -2.8837   -5.3772   -2.0347 O   0  0  0  0  0  0  0  0  0  0  0  0
   -2.5546   -4.7451   -0.7927 C   0  0  0  0  0  0  0  0  0  0  0  0
   -1.6113   -5.6454    0.0147 C   0  0  0  0  0  0  0  0  0  0  0  0
    1.3064    0.2001   -1.8422 H   0  0  0  0  0  0  0  0  0  0  0  0
    0.8485   -1.3006   -1.0859 H   0  0  0  0  0  0  0  0  0  0  0  0
    2.3931   -1.1870   -2.0183 H   0  0  0  0  0  0  0  0  0  0  0  0
    4.5553    0.4530    0.8996 H   0  0  0  0  0  0  0  0  0  0  0  0
    7.7262   -0.7804    3.8100 H   0  0  0  0  0  0  0  0  0  0  0  0
    4.9158   -5.1958    2.5060 H   0  0  0  0  0  0  0  0  0  0  0  0
    7.3649   -5.7931    3.4972 H   0  0  0  0  0  0  0  0  0  0  0  0
    6.3280   -8.0196    3.6729 H   0  0  0  0  0  0  0  0  0  0  0  0
    4.6614   -7.3017    3.7463 H   0  0  0  0  0  0  0  0  0  0  0  0
    5.2344   -5.8947    5.7372 H   0  0  0  0  0  0  0  0  0  0  0  0
    8.7357   -5.9777    6.0265 H   0  0  0  0  0  0  0  0  0  0  0  0
    9.9541   -7.1904    7.7901 H   0  0  0  0  0  0  0  0  0  0  0  0
    8.8874   -9.0838    8.9879 H   0  0  0  0  0  0  0  0  0  0  0  0
    6.5933   -9.8013    8.3593 H   0  0  0  0  0  0  0  0  0  0  0  0
    5.3683   -8.5908    6.6047 H   0  0  0  0  0  0  0  0  0  0  0  0
    3.3982   -4.2431    1.8028 H   0  0  0  0  0  0  0  0  0  0  0  0
    0.2031   -3.9185    1.2687 H   0  0  0  0  0  0  0  0  0  0  0  0
    1.6837   -4.8691    1.0812 H   0  0  0  0  0  0  0  0  0  0  0  0
    1.4424   -4.9783   -1.3163 H   0  0  0  0  0  0  0  0  0  0  0  0
    0.0660   -3.9141   -1.3287 H   0  0  0  0  0  0  0  0  0  0  0  0
   -0.9869   -7.4451   -1.9134 H   0  0  0  0  0  0  0  0  0  0  0  0
    0.2831   -6.4816   -2.6344 H   0  0  0  0  0  0  0  0  0  0  0  0
   -2.0134   -6.1997   -3.6864 H   0  0  0  0  0  0  0  0  0  0  0  0
   -1.3127   -4.6637   -3.1685 H   0  0  0  0  0  0  0  0  0  0  0  0
   -3.4860   -4.5954   -0.2382 H   0  0  0  0  0  0  0  0  0  0  0  0
   -2.1307   -3.7546   -0.9840 H   0  0  0  0  0  0  0  0  0  0  0  0
   -2.0999   -6.6175    0.1660 H   0  0  0  0  0  0  0  0  0  0  0  0
   -1.4532   -5.2311    1.0188 H   0  0  0  0  0  0  0  0  0  0  0  0
  1  2  1  0  0  0  0
  1 34  1  0  0  0  0
  1 35  1  0  0  0  0
  1 36  1  0  0  0  0
  2  3  1  0  0  0  0
  3  4  1  0  0  0  0
  3 24  2  0  0  0  0
  4  5  2  0  0  0  0
  4 37  1  0  0  0  0
  5  6  1  0  0  0  0
  5 22  1  0  0  0  0
  6  7  2  0  0  0  0
  7  8  1  0  0  0  0
  7 38  1  0  0  0  0
  8  9  1  0  0  0  0
  8 11  2  0  0  0  0
  9 10  3  0  0  0  0
 11 12  1  0  0  0  0
 11 22  1  0  0  0  0
 12 13  1  0  0  0  0
 12 39  1  0  0  0  0
 13 14  1  0  0  0  0
 13 15  1  0  0  0  0
 13 40  1  6  0  0  0
 14 15  1  0  0  0  0
 14 41  1  0  0  0  0
 14 42  1  0  0  0  0
 15 16  1  0  0  0  0
 15 43  1  1  0  0  0
 16 17  1  0  0  0  0
 16 21  2  0  0  0  0
 17 18  2  0  0  0  0
 17 44  1  0  0  0  0
 18 19  1  0  0  0  0
 18 45  1  0  0  0  0
 19 20  2  0  0  0  0
 19 46  1  0  0  0  0
 20 21  1  0  0  0  0
 20 47  1  0  0  0  0
 21 48  1  0  0  0  0
 22 23  2  0  0  0  0
 23 24  1  0  0  0  0
 23 49  1  0  0  0  0
 24 25  1  0  0  0  0
 25 26  1  0  0  0  0
 26 27  1  0  0  0  0
 26 50  1  0  0  0  0
 26 51  1  0  0  0  0
 27 28  1  0  0  0  0
 27 52  1  0  0  0  0
 27 53  1  0  0  0  0
 28 29  1  0  0  0  0
 28 33  1  0  0  0  0
 29 30  1  0  0  0  0
 29 54  1  0  0  0  0
 29 55  1  0  0  0  0
 30 31  1  0  0  0  0
 30 56  1  0  0  0  0
 30 57  1  0  0  0  0
 31 32  1  0  0  0  0
 32 33  1  0  0  0  0
 32 58  1  0  0  0  0
 32 59  1  0  0  0  0
 33 60  1  0  0  0  0
 33 61  1  0  0  0  0
M  END
$$$$
