CHEMBL270258
 OpenBabel04072215363D

 41 44  0  0  0  0  0  0  0  0999 V2000
    2.7543   -1.0656   -0.2578 O   0  0  0  0  0  0  0  0  0  0  0  0
    2.1626   -0.0898    0.1846 C   0  0  0  0  0  0  0  0  0  0  0  0
    0.7859    0.0429    0.3153 N   0  0  0  0  0  0  0  0  0  0  0  0
   -0.1925   -0.8986   -0.0757 C   0  0  0  0  0  0  0  0  0  0  0  0
    0.1069   -2.1896   -0.5205 C   0  0  0  0  0  0  0  0  0  0  0  0
   -0.9081   -3.0475   -0.9583 C   0  0  0  0  0  0  0  0  0  0  0  0
   -2.2307   -2.6197   -0.9464 C   0  0  0  0  0  0  0  0  0  0  0  0
   -3.4731   -3.6598   -1.5209 Cl  0  0  0  0  0  0  0  0  0  0  0  0
   -2.5499   -1.3490   -0.4749 C   0  0  0  0  0  0  0  0  0  0  0  0
   -1.5336   -0.4939   -0.0338 C   0  0  0  0  0  0  0  0  0  0  0  0
    2.9497    1.1047    0.6172 C   0  0  0  0  0  0  0  0  0  0  0  0
    2.6146    1.7000    1.8451 C   0  0  0  0  0  0  0  0  0  0  0  0
    3.3142    2.8127    2.2964 C   0  0  0  0  0  0  0  0  0  0  0  0
    4.3532    3.3388    1.5297 C   0  0  0  0  0  0  0  0  0  0  0  0
    4.7234    2.7551    0.3066 C   0  0  0  0  0  0  0  0  0  0  0  0
    5.7776    3.3082   -0.4492 C   0  0  0  0  0  0  0  0  0  0  0  0
    6.1590    2.7462   -1.6663 C   0  0  0  0  0  0  0  0  0  0  0  0
    7.2064    3.3413   -2.3384 O   0  0  0  0  0  0  0  0  0  0  0  0
    7.1464    3.3767   -3.7295 C   0  0  0  0  0  0  0  0  0  0  0  0
    8.3503    3.4329   -4.3954 C   0  0  0  0  0  0  0  0  0  0  0  0
    8.2609    3.4417   -5.7678 C   0  0  0  0  0  0  0  0  0  0  0  0
    7.0969    3.4030   -6.4386 N   0  0  0  0  0  0  0  0  0  0  0  0
    5.9887    3.3725   -5.6848 C   0  0  0  0  0  0  0  0  0  0  0  0
    5.9499    3.3787   -4.3495 N   0  0  0  0  0  0  0  0  0  0  0  0
    5.5319    1.5890   -2.1099 C   0  0  0  0  0  0  0  0  0  0  0  0
    4.4627    1.0519   -1.3889 C   0  0  0  0  0  0  0  0  0  0  0  0
    4.0292    1.6121   -0.1646 C   0  0  0  0  0  0  0  0  0  0  0  0
    0.4368    0.9425    0.6210 H   0  0  0  0  0  0  0  0  0  0  0  0
    1.1246   -2.5652   -0.5427 H   0  0  0  0  0  0  0  0  0  0  0  0
   -0.6492   -4.0412   -1.3141 H   0  0  0  0  0  0  0  0  0  0  0  0
   -3.5835   -1.0137   -0.4598 H   0  0  0  0  0  0  0  0  0  0  0  0
   -1.8075    0.4972    0.3193 H   0  0  0  0  0  0  0  0  0  0  0  0
    1.8290    1.2814    2.4701 H   0  0  0  0  0  0  0  0  0  0  0  0
    3.0612    3.2657    3.2514 H   0  0  0  0  0  0  0  0  0  0  0  0
    4.8869    4.2107    1.9050 H   0  0  0  0  0  0  0  0  0  0  0  0
    6.3031    4.1912   -0.0943 H   0  0  0  0  0  0  0  0  0  0  0  0
    9.2962    3.4522   -3.8777 H   0  0  0  0  0  0  0  0  0  0  0  0
    9.1531    3.4764   -6.3882 H   0  0  0  0  0  0  0  0  0  0  0  0
    5.0370    3.3298   -6.2041 H   0  0  0  0  0  0  0  0  0  0  0  0
    5.8395    1.0967   -3.0280 H   0  0  0  0  0  0  0  0  0  0  0  0
    3.9787    0.1727   -1.8086 H   0  0  0  0  0  0  0  0  0  0  0  0
  1  2  2  0  0  0  0
  2  3  1  0  0  0  0
  2 11  1  0  0  0  0
  3  4  1  0  0  0  0
  3 28  1  0  0  0  0
  4  5  1  0  0  0  0
  4 10  2  0  0  0  0
  5  6  2  0  0  0  0
  5 29  1  0  0  0  0
  6  7  1  0  0  0  0
  6 30  1  0  0  0  0
  7  8  1  0  0  0  0
  7  9  2  0  0  0  0
  9 10  1  0  0  0  0
  9 31  1  0  0  0  0
 10 32  1  0  0  0  0
 11 12  1  0  0  0  0
 11 27  2  0  0  0  0
 12 13  2  0  0  0  0
 12 33  1  0  0  0  0
 13 14  1  0  0  0  0
 13 34  1  0  0  0  0
 14 15  2  0  0  0  0
 14 35  1  0  0  0  0
 15 16  1  0  0  0  0
 15 27  1  0  0  0  0
 16 17  2  0  0  0  0
 16 36  1  0  0  0  0
 17 18  1  0  0  0  0
 17 25  1  0  0  0  0
 18 19  1  0  0  0  0
 19 20  1  0  0  0  0
 19 24  2  0  0  0  0
 20 21  2  0  0  0  0
 20 37  1  0  0  0  0
 21 22  1  0  0  0  0
 21 38  1  0  0  0  0
 22 23  2  0  0  0  0
 23 24  1  0  0  0  0
 23 39  1  0  0  0  0
 25 26  2  0  0  0  0
 25 40  1  0  0  0  0
 26 27  1  0  0  0  0
 26 41  1  0  0  0  0
M  END
$$$$
