CHEMBL203000
 OpenBabel04072215363D

 21 22  0  0  0  0  0  0  0  0999 V2000
    3.0735    3.1564   -1.4835 N   0  0  0  0  0  0  0  0  0  0  0  0
    3.7385    2.2086   -1.3847 C   0  0  0  0  0  0  0  0  0  0  0  0
    4.5284    1.0353   -1.2855 C   0  0  0  0  0  0  0  0  0  0  0  0
    4.3961   -0.0709   -2.0863 C   0  0  0  0  0  0  0  0  0  0  0  0
    5.2522   -1.1078   -1.7939 N   0  0  0  0  0  0  0  0  0  0  0  0
    6.0116   -0.8187   -0.7590 C   0  0  0  0  0  0  0  0  0  0  0  0
    6.8871   -1.6575   -0.1561 N   0  0  0  0  0  0  0  0  0  0  0  0
    6.7869   -3.0568   -0.1823 C   0  0  0  0  0  0  0  0  0  0  0  0
    6.2402   -3.7502   -1.2436 C   0  0  0  0  0  0  0  0  0  0  0  0
    6.0873   -5.1023   -1.0853 C   0  0  0  0  0  0  0  0  0  0  0  0
    6.4760   -5.7592    0.0148 N   0  0  0  0  0  0  0  0  0  0  0  0
    7.0347   -5.0200    0.9739 C   0  0  0  0  0  0  0  0  0  0  0  0
    7.4572   -5.6912    2.1021 N   0  0  0  0  0  0  0  0  0  0  0  0
    7.2334   -3.6977    0.9141 N   0  0  0  0  0  0  0  0  0  0  0  0
    5.7792    0.7820   -0.1476 S   0  0  0  0  0  0  0  0  0  0  0  0
    3.6855   -0.1930   -2.8963 H   0  0  0  0  0  0  0  0  0  0  0  0
    7.2867   -1.3735    0.7315 H   0  0  0  0  0  0  0  0  0  0  0  0
    5.9158   -3.2745   -2.1574 H   0  0  0  0  0  0  0  0  0  0  0  0
    5.6208   -5.7042   -1.8586 H   0  0  0  0  0  0  0  0  0  0  0  0
    7.5646   -6.6715    1.8797 H   0  0  0  0  0  0  0  0  0  0  0  0
    8.2469   -5.2191    2.5162 H   0  0  0  0  0  0  0  0  0  0  0  0
  1  2  3  0  0  0  0
  2  3  1  0  0  0  0
  3  4  2  0  0  0  0
  3 15  1  0  0  0  0
  4  5  1  0  0  0  0
  4 16  1  0  0  0  0
  5  6  2  0  0  0  0
  6  7  1  0  0  0  0
  6 15  1  0  0  0  0
  7  8  1  0  0  0  0
  7 17  1  0  0  0  0
  8  9  1  0  0  0  0
  8 14  2  0  0  0  0
  9 10  2  0  0  0  0
  9 18  1  0  0  0  0
 10 11  1  0  0  0  0
 10 19  1  0  0  0  0
 11 12  2  0  0  0  0
 12 13  1  0  0  0  0
 12 14  1  0  0  0  0
 13 20  1  0  0  0  0
 13 21  1  0  0  0  0
M  END
$$$$
