CHEMBL381973
 OpenBabel04072215373D

 47 50  0  0  0  0  0  0  0  0999 V2000
    6.3870    0.0782    0.7708 C   0  0  0  0  0  0  0  0  0  0  0  0
    5.2548   -0.7852    0.2419 C   0  0  0  0  0  0  0  0  0  0  0  0
    5.1597   -0.5747   -1.1716 O   0  0  0  0  0  0  0  0  0  0  0  0
    4.3898    0.4854   -1.5605 C   0  0  0  0  0  0  0  0  0  0  0  0
    3.5803    1.0436   -0.8315 O   0  0  0  0  0  0  0  0  0  0  0  0
    4.7269    0.9340   -2.9153 C   0  0  0  0  0  0  0  0  0  0  0  0
    5.6416    0.2875   -3.7283 C   0  0  0  0  0  0  0  0  0  0  0  0
    5.7731    0.9796   -4.8882 N   0  0  0  0  0  0  0  0  0  0  0  0
    6.5978    0.6303   -5.8896 N   0  0  0  0  0  0  0  0  0  0  0  0
    6.5969    1.4433   -6.8956 C   0  0  0  0  0  0  0  0  0  0  0  0
    5.8638    2.5922   -7.0146 N   0  0  0  0  0  0  0  0  0  0  0  0
    5.0864    2.9017   -6.0317 C   0  0  0  0  0  0  0  0  0  0  0  0
    4.3083    4.0436   -5.9990 O   0  0  0  0  0  0  0  0  0  0  0  0
    4.6261    5.1490   -6.8226 C   0  0  0  0  0  0  0  0  0  0  0  0
    5.9390    5.6010   -6.9529 C   0  0  0  0  0  0  0  0  0  0  0  0
    6.2213    6.7625   -7.6762 C   0  0  0  0  0  0  0  0  0  0  0  0
    5.1403    7.4608   -8.2258 C   0  0  0  0  0  0  0  0  0  0  0  0
    5.1199    8.6341   -8.9469 N   0  0  0  0  0  0  0  0  0  0  0  0
    3.8327    8.9649   -9.2761 C   0  0  0  0  0  0  0  0  0  0  0  0
    3.0052    7.9901   -8.7657 C   0  0  0  0  0  0  0  0  0  0  0  0
    3.8171    7.0342   -8.0953 C   0  0  0  0  0  0  0  0  0  0  0  0
    3.5502    5.8529   -7.3737 C   0  0  0  0  0  0  0  0  0  0  0  0
    4.9720    2.0840   -4.8669 C   0  0  0  0  0  0  0  0  0  0  0  0
    4.2797    2.1073   -3.6519 C   0  0  0  0  0  0  0  0  0  0  0  0
    3.2913    3.1320   -3.1227 C   0  0  0  0  0  0  0  0  0  0  0  0
    3.9208    4.5038   -2.8774 C   0  0  0  0  0  0  0  0  0  0  0  0
    2.0063    3.2147   -3.9456 C   0  0  0  0  0  0  0  0  0  0  0  0
    6.5355   -0.0752    1.8421 H   0  0  0  0  0  0  0  0  0  0  0  0
    6.1843    1.1395    0.5904 H   0  0  0  0  0  0  0  0  0  0  0  0
    7.3196   -0.1549    0.2448 H   0  0  0  0  0  0  0  0  0  0  0  0
    4.3113   -0.5741    0.7570 H   0  0  0  0  0  0  0  0  0  0  0  0
    5.4860   -1.8430    0.4028 H   0  0  0  0  0  0  0  0  0  0  0  0
    6.2298   -0.6051   -3.5619 H   0  0  0  0  0  0  0  0  0  0  0  0
    7.2542    1.2051   -7.7492 H   0  0  0  0  0  0  0  0  0  0  0  0
    6.7606    5.0634   -6.4878 H   0  0  0  0  0  0  0  0  0  0  0  0
    7.2416    7.1152   -7.7835 H   0  0  0  0  0  0  0  0  0  0  0  0
    5.9412    9.1770   -9.1794 H   0  0  0  0  0  0  0  0  0  0  0  0
    3.6192    9.8636   -9.8395 H   0  0  0  0  0  0  0  0  0  0  0  0
    1.9277    7.9697   -8.8595 H   0  0  0  0  0  0  0  0  0  0  0  0
    2.5314    5.5051   -7.2356 H   0  0  0  0  0  0  0  0  0  0  0  0
    2.9575    2.8032   -2.1348 H   0  0  0  0  0  0  0  0  0  0  0  0
    4.2989    4.9696   -3.7881 H   0  0  0  0  0  0  0  0  0  0  0  0
    4.7623    4.4232   -2.1800 H   0  0  0  0  0  0  0  0  0  0  0  0
    3.1890    5.1905   -2.4380 H   0  0  0  0  0  0  0  0  0  0  0  0
    2.1665    3.6208   -4.9456 H   0  0  0  0  0  0  0  0  0  0  0  0
    1.2745    3.8581   -3.4438 H   0  0  0  0  0  0  0  0  0  0  0  0
    1.5526    2.2235   -4.0574 H   0  0  0  0  0  0  0  0  0  0  0  0
  1  2  1  0  0  0  0
  1 28  1  0  0  0  0
  1 29  1  0  0  0  0
  1 30  1  0  0  0  0
  2  3  1  0  0  0  0
  2 31  1  0  0  0  0
  2 32  1  0  0  0  0
  3  4  1  0  0  0  0
  4  5  2  0  0  0  0
  4  6  1  0  0  0  0
  6  7  2  0  0  0  0
  6 24  1  0  0  0  0
  7  8  1  0  0  0  0
  7 33  1  0  0  0  0
  8  9  1  0  0  0  0
  8 23  1  0  0  0  0
  9 10  2  0  0  0  0
 10 11  1  0  0  0  0
 10 34  1  0  0  0  0
 11 12  2  0  0  0  0
 12 13  1  0  0  0  0
 12 23  1  0  0  0  0
 13 14  1  0  0  0  0
 14 15  1  0  0  0  0
 14 22  2  0  0  0  0
 15 16  2  0  0  0  0
 15 35  1  0  0  0  0
 16 17  1  0  0  0  0
 16 36  1  0  0  0  0
 17 18  1  0  0  0  0
 17 21  2  0  0  0  0
 18 19  1  0  0  0  0
 18 37  1  0  0  0  0
 19 20  2  0  0  0  0
 19 38  1  0  0  0  0
 20 21  1  0  0  0  0
 20 39  1  0  0  0  0
 21 22  1  0  0  0  0
 22 40  1  0  0  0  0
 23 24  2  0  0  0  0
 24 25  1  0  0  0  0
 25 26  1  0  0  0  0
 25 27  1  0  0  0  0
 25 41  1  0  0  0  0
 26 42  1  0  0  0  0
 26 43  1  0  0  0  0
 26 44  1  0  0  0  0
 27 45  1  0  0  0  0
 27 46  1  0  0  0  0
 27 47  1  0  0  0  0
M  END
$$$$
