CHEMBL1681936
 OpenBabel04072215363D

 43 44  0  0  0  0  0  0  0  0999 V2000
    9.2322   -7.6632   -1.2578 C   0  0  0  0  0  0  0  0  0  0  0  0
    8.6458   -6.6836   -0.4018 O   0  0  0  0  0  0  0  0  0  0  0  0
    7.5897   -6.0876   -1.0986 N   0  0  0  0  0  0  0  0  0  0  0  0
    6.9966   -5.2051   -0.3542 C   0  0  0  0  0  0  0  0  0  0  0  0
    5.8469   -4.4472   -0.8723 C   0  0  0  0  0  0  0  0  0  0  0  0
    5.0461   -4.9452   -1.8972 C   0  0  0  0  0  0  0  0  0  0  0  0
    5.1777   -6.2415   -2.3981 N   0  0  0  0  0  0  0  0  0  0  0  0
    4.0054   -4.2664   -2.4052 N   0  0  0  0  0  0  0  0  0  0  0  0
    3.7789   -3.0533   -1.8976 C   0  0  0  0  0  0  0  0  0  0  0  0
    4.4957   -2.4665   -0.9363 N   0  0  0  0  0  0  0  0  0  0  0  0
    5.5070   -3.1919   -0.4046 C   0  0  0  0  0  0  0  0  0  0  0  0
    6.2356   -2.6131    0.6415 O   0  0  0  0  0  0  0  0  0  0  0  0
    5.5884   -1.6246    1.3639 C   0  0  0  0  0  0  0  0  0  0  0  0
    4.2882   -1.8078    1.8334 C   0  0  0  0  0  0  0  0  0  0  0  0
    3.6011   -0.7580    2.4429 C   0  0  0  0  0  0  0  0  0  0  0  0
    4.2023    0.4876    2.6275 C   0  0  0  0  0  0  0  0  0  0  0  0
    3.4544    1.5881    3.1394 N   0  0  0  0  0  0  0  0  0  0  0  0
    2.0822    1.6966    3.0393 C   0  0  0  0  0  0  0  0  0  0  0  0
    1.3314    0.9129    2.4622 O   0  0  0  0  0  0  0  0  0  0  0  0
    1.5837    2.8358    3.6310 N   0  0  0  0  0  0  0  0  0  0  0  0
    0.1530    3.1021    3.5608 C   0  0  0  0  0  0  0  0  0  0  0  0
   -0.6667    2.4077    4.6564 C   0  0  0  0  0  0  0  0  0  0  0  0
   -0.4733    0.9980    4.6977 O   0  0  0  0  0  0  0  0  0  0  0  0
    5.5573    0.6190    2.2803 C   0  0  0  0  0  0  0  0  0  0  0  0
    6.4076    2.1022    2.5733 Cl  0  0  0  0  0  0  0  0  0  0  0  0
    6.2512   -0.4288    1.6436 C   0  0  0  0  0  0  0  0  0  0  0  0
   10.1645   -8.0118   -0.8057 H   0  0  0  0  0  0  0  0  0  0  0  0
    9.4590   -7.2305   -2.2381 H   0  0  0  0  0  0  0  0  0  0  0  0
    8.5543   -8.5140   -1.3763 H   0  0  0  0  0  0  0  0  0  0  0  0
    7.3439   -4.9910    0.6722 H   0  0  0  0  0  0  0  0  0  0  0  0
    6.1560   -6.4962   -2.5289 H   0  0  0  0  0  0  0  0  0  0  0  0
    4.5942   -6.3531   -3.2201 H   0  0  0  0  0  0  0  0  0  0  0  0
    2.9301   -2.5029   -2.2881 H   0  0  0  0  0  0  0  0  0  0  0  0
    3.7599   -2.7434    1.6717 H   0  0  0  0  0  0  0  0  0  0  0  0
    2.5763   -0.9452    2.7477 H   0  0  0  0  0  0  0  0  0  0  0  0
    3.9646    2.4503    3.2754 H   0  0  0  0  0  0  0  0  0  0  0  0
    2.0875    3.1715    4.4382 H   0  0  0  0  0  0  0  0  0  0  0  0
   -0.2118    2.7762    2.5819 H   0  0  0  0  0  0  0  0  0  0  0  0
    0.0190    4.1865    3.6250 H   0  0  0  0  0  0  0  0  0  0  0  0
   -1.7353    2.5903    4.4877 H   0  0  0  0  0  0  0  0  0  0  0  0
   -0.4095    2.8083    5.6420 H   0  0  0  0  0  0  0  0  0  0  0  0
   -0.2460    0.7000    3.7928 H   0  0  0  0  0  0  0  0  0  0  0  0
    7.2859   -0.2984    1.3366 H   0  0  0  0  0  0  0  0  0  0  0  0
  1  2  1  0  0  0  0
  1 27  1  0  0  0  0
  1 28  1  0  0  0  0
  1 29  1  0  0  0  0
  2  3  1  0  0  0  0
  3  4  2  0  0  0  0
  4  5  1  0  0  0  0
  4 30  1  0  0  0  0
  5  6  1  0  0  0  0
  5 11  2  0  0  0  0
  6  7  1  0  0  0  0
  6  8  2  0  0  0  0
  7 31  1  0  0  0  0
  7 32  1  0  0  0  0
  8  9  1  0  0  0  0
  9 10  2  0  0  0  0
  9 33  1  0  0  0  0
 10 11  1  0  0  0  0
 11 12  1  0  0  0  0
 12 13  1  0  0  0  0
 13 14  1  0  0  0  0
 13 26  2  0  0  0  0
 14 15  2  0  0  0  0
 14 34  1  0  0  0  0
 15 16  1  0  0  0  0
 15 35  1  0  0  0  0
 16 17  1  0  0  0  0
 16 24  2  0  0  0  0
 17 18  1  0  0  0  0
 17 36  1  0  0  0  0
 18 19  2  0  0  0  0
 18 20  1  0  0  0  0
 20 21  1  0  0  0  0
 20 37  1  0  0  0  0
 21 22  1  0  0  0  0
 21 38  1  0  0  0  0
 21 39  1  0  0  0  0
 22 23  1  0  0  0  0
 22 40  1  0  0  0  0
 22 41  1  0  0  0  0
 23 42  1  0  0  0  0
 24 25  1  0  0  0  0
 24 26  1  0  0  0  0
 26 43  1  0  0  0  0
M  END
$$$$
