CHEMBL1934324
 OpenBabel04072215363D

 63 67  0  0  0  0  0  0  0  0999 V2000
    7.4378   -3.8166   -1.2308 C   0  0  0  0  0  0  0  0  0  0  0  0
    6.3567   -3.1726   -0.4831 N   0  0  0  0  0  0  0  0  0  0  0  0
    5.9462   -1.9359   -1.1633 C   0  0  0  0  0  0  0  0  0  0  0  0
    4.7961   -1.2450   -0.4305 C   0  0  0  0  0  0  0  0  0  0  0  0
    3.5995   -2.1814   -0.2650 C   0  0  0  0  0  0  0  0  0  0  0  0
    2.9472   -2.5114   -1.6037 C   0  0  0  0  0  0  0  0  0  0  0  0
    2.4915   -1.3095   -2.2568 O   0  0  0  0  0  0  0  0  0  0  0  0
    2.5046   -1.4247   -3.6291 C   0  0  0  0  0  0  0  0  0  0  0  0
    2.6796   -0.3204   -4.4224 C   0  0  0  0  0  0  0  0  0  0  0  0
    2.6718   -0.4723   -5.8112 C   0  0  0  0  0  0  0  0  0  0  0  0
    2.6150   -1.7435   -6.4134 C   0  0  0  0  0  0  0  0  0  0  0  0
    2.7624   -2.0104   -7.7974 C   0  0  0  0  0  0  0  0  0  0  0  0
    3.0720   -0.9728   -8.7019 N   0  0  0  0  0  0  0  0  0  0  0  0
    2.7683   -0.9044  -10.0832 C   0  0  0  0  0  0  0  0  0  0  0  0
    2.0470   -1.8973  -10.7320 C   0  0  0  0  0  0  0  0  0  0  0  0
    1.9642   -1.9478  -12.1234 C   0  0  0  0  0  0  0  0  0  0  0  0
    2.5956   -0.9947  -12.9204 C   0  0  0  0  0  0  0  0  0  0  0  0
    2.6392   -1.0856  -14.3372 N   0  0  0  0  0  0  0  0  0  0  0  0
    2.0422   -2.1000  -15.0791 C   0  0  0  0  0  0  0  0  0  0  0  0
    1.4195   -3.0406  -14.6357 O   0  0  0  0  0  0  0  0  0  0  0  0
    2.1719   -1.9252  -16.4493 N   0  0  0  0  0  0  0  0  0  0  0  0
    1.5707   -2.9000  -17.3227 C   0  0  0  0  0  0  0  0  0  0  0  0
    1.0663   -2.5751  -18.7002 C   0  0  0  0  0  0  0  0  0  0  0  0
    0.0879   -2.8193  -17.5917 C   0  0  0  0  0  0  0  0  0  0  0  0
    3.2394    0.0705  -12.2799 C   0  0  0  0  0  0  0  0  0  0  0  0
    3.3239    0.1134  -10.8715 C   0  0  0  0  0  0  0  0  0  0  0  0
    2.6359   -3.2564   -8.2808 N   0  0  0  0  0  0  0  0  0  0  0  0
    2.3429   -4.2211   -7.4253 C   0  0  0  0  0  0  0  0  0  0  0  0
    2.2387   -4.0931   -6.0980 N   0  0  0  0  0  0  0  0  0  0  0  0
    2.3889   -2.8660   -5.6119 C   0  0  0  0  0  0  0  0  0  0  0  0
    2.3103   -2.6859   -4.2338 C   0  0  0  0  0  0  0  0  0  0  0  0
    4.0616   -3.4645    0.4376 C   0  0  0  0  0  0  0  0  0  0  0  0
    5.2497   -4.1166   -0.2800 C   0  0  0  0  0  0  0  0  0  0  0  0
    8.2866   -3.1339   -1.3452 H   0  0  0  0  0  0  0  0  0  0  0  0
    7.1139   -4.1324   -2.2300 H   0  0  0  0  0  0  0  0  0  0  0  0
    7.8072   -4.6963   -0.6937 H   0  0  0  0  0  0  0  0  0  0  0  0
    5.6636   -2.1348   -2.2048 H   0  0  0  0  0  0  0  0  0  0  0  0
    6.7907   -1.2378   -1.1949 H   0  0  0  0  0  0  0  0  0  0  0  0
    4.5060   -0.3347   -0.9678 H   0  0  0  0  0  0  0  0  0  0  0  0
    5.1344   -0.9254    0.5625 H   0  0  0  0  0  0  0  0  0  0  0  0
    2.8479   -1.6771    0.3515 H   0  0  0  0  0  0  0  0  0  0  0  0
    2.1025   -3.1886   -1.4128 H   0  0  0  0  0  0  0  0  0  0  0  0
    3.6642   -3.0349   -2.2512 H   0  0  0  0  0  0  0  0  0  0  0  0
    2.8621    0.6744   -4.0264 H   0  0  0  0  0  0  0  0  0  0  0  0
    2.7187    0.4378   -6.4012 H   0  0  0  0  0  0  0  0  0  0  0  0
    3.1948   -0.0790   -8.2706 H   0  0  0  0  0  0  0  0  0  0  0  0
    1.5586   -2.6940  -10.1766 H   0  0  0  0  0  0  0  0  0  0  0  0
    1.4380   -2.7977  -12.5407 H   0  0  0  0  0  0  0  0  0  0  0  0
    3.2167   -0.4247  -14.8264 H   0  0  0  0  0  0  0  0  0  0  0  0
    2.9309   -1.3687  -16.8059 H   0  0  0  0  0  0  0  0  0  0  0  0
    1.9757   -3.8997  -17.1731 H   0  0  0  0  0  0  0  0  0  0  0  0
    1.1343   -3.3419  -19.4651 H   0  0  0  0  0  0  0  0  0  0  0  0
    1.1566   -1.5638  -19.0743 H   0  0  0  0  0  0  0  0  0  0  0  0
   -0.4696   -3.7485  -17.5735 H   0  0  0  0  0  0  0  0  0  0  0  0
   -0.4589   -1.9726  -17.1928 H   0  0  0  0  0  0  0  0  0  0  0  0
    3.7258    0.8561  -12.8513 H   0  0  0  0  0  0  0  0  0  0  0  0
    3.8838    0.9176  -10.4028 H   0  0  0  0  0  0  0  0  0  0  0  0
    2.1818   -5.2032   -7.8457 H   0  0  0  0  0  0  0  0  0  0  0  0
    2.1308   -3.5548   -3.6091 H   0  0  0  0  0  0  0  0  0  0  0  0
    3.2355   -4.1822    0.5057 H   0  0  0  0  0  0  0  0  0  0  0  0
    4.3514   -3.2207    1.4663 H   0  0  0  0  0  0  0  0  0  0  0  0
    4.9187   -4.5466   -1.2340 H   0  0  0  0  0  0  0  0  0  0  0  0
    5.5950   -4.9568    0.3355 H   0  0  0  0  0  0  0  0  0  0  0  0
  1  2  1  0  0  0  0
  1 34  1  0  0  0  0
  1 35  1  0  0  0  0
  1 36  1  0  0  0  0
  2  3  1  0  0  0  0
  2 33  1  0  0  0  0
  3  4  1  0  0  0  0
  3 37  1  0  0  0  0
  3 38  1  0  0  0  0
  4  5  1  0  0  0  0
  4 39  1  0  0  0  0
  4 40  1  0  0  0  0
  5  6  1  0  0  0  0
  5 32  1  0  0  0  0
  5 41  1  0  0  0  0
  6  7  1  0  0  0  0
  6 42  1  0  0  0  0
  6 43  1  0  0  0  0
  7  8  1  0  0  0  0
  8  9  1  0  0  0  0
  8 31  2  0  0  0  0
  9 10  2  0  0  0  0
  9 44  1  0  0  0  0
 10 11  1  0  0  0  0
 10 45  1  0  0  0  0
 11 12  1  0  0  0  0
 11 30  2  0  0  0  0
 12 13  1  0  0  0  0
 12 27  2  0  0  0  0
 13 14  1  0  0  0  0
 13 46  1  0  0  0  0
 14 15  1  0  0  0  0
 14 26  2  0  0  0  0
 15 16  2  0  0  0  0
 15 47  1  0  0  0  0
 16 17  1  0  0  0  0
 16 48  1  0  0  0  0
 17 18  1  0  0  0  0
 17 25  2  0  0  0  0
 18 19  1  0  0  0  0
 18 49  1  0  0  0  0
 19 20  2  0  0  0  0
 19 21  1  0  0  0  0
 21 22  1  0  0  0  0
 21 50  1  0  0  0  0
 22 23  1  0  0  0  0
 22 24  1  0  0  0  0
 22 51  1  0  0  0  0
 23 24  1  0  0  0  0
 23 52  1  0  0  0  0
 23 53  1  0  0  0  0
 24 54  1  0  0  0  0
 24 55  1  0  0  0  0
 25 26  1  0  0  0  0
 25 56  1  0  0  0  0
 26 57  1  0  0  0  0
 27 28  1  0  0  0  0
 28 29  2  0  0  0  0
 28 58  1  0  0  0  0
 29 30  1  0  0  0  0
 30 31  1  0  0  0  0
 31 59  1  0  0  0  0
 32 33  1  0  0  0  0
 32 60  1  0  0  0  0
 32 61  1  0  0  0  0
 33 62  1  0  0  0  0
 33 63  1  0  0  0  0
M  END
$$$$
