CHEMBL4796483
 OpenBabel04072215383D

 56 60  0  0  0  0  0  0  0  0999 V2000
   -2.5156   -3.9441   -1.7334 C   0  0  0  0  0  0  0  0  0  0  0  0
   -3.8488   -4.4181   -2.2648 C   0  0  0  0  0  0  0  0  0  0  0  0
   -3.8291   -5.5549   -3.0972 C   0  0  0  0  0  0  0  0  0  0  0  0
   -5.0062   -6.0676   -3.6400 C   0  0  0  0  0  0  0  0  0  0  0  0
   -4.9588   -7.4391   -4.6791 Cl  0  0  0  0  0  0  0  0  0  0  0  0
   -6.2188   -5.4754   -3.3443 C   0  0  0  0  0  0  0  0  0  0  0  0
   -6.2604   -4.3531   -2.5262 C   0  0  0  0  0  0  0  0  0  0  0  0
   -5.0840   -3.7924   -1.9912 C   0  0  0  0  0  0  0  0  0  0  0  0
   -5.1371   -2.5981   -1.1904 N   0  0  0  0  0  0  0  0  0  0  0  0
   -6.2583   -1.7904   -0.9905 C   0  0  0  0  0  0  0  0  0  0  0  0
   -7.3798   -2.0011   -1.4358 O   0  0  0  0  0  0  0  0  0  0  0  0
   -5.9316   -0.6347   -0.3095 N   0  0  0  0  0  0  0  0  0  0  0  0
   -6.9171    0.3547   -0.2114 C   0  0  0  0  0  0  0  0  0  0  0  0
   -7.9848    0.1773    0.5823 N   0  0  0  0  0  0  0  0  0  0  0  0
   -8.8280    1.2133    0.7273 C   0  0  0  0  0  0  0  0  0  0  0  0
   -9.9174    1.1731    1.6439 N   0  0  0  0  0  0  0  0  0  0  0  0
  -10.4342    0.0412    2.3092 C   0  0  0  0  0  0  0  0  0  0  0  0
  -10.8989    0.1526    3.6312 C   0  0  0  0  0  0  0  0  0  0  0  0
  -11.4391   -0.9504    4.2973 C   0  0  0  0  0  0  0  0  0  0  0  0
  -11.5470   -2.1751    3.6426 C   0  0  0  0  0  0  0  0  0  0  0  0
  -11.1198   -2.2924    2.3222 C   0  0  0  0  0  0  0  0  0  0  0  0
  -10.5695   -1.1910    1.6620 C   0  0  0  0  0  0  0  0  0  0  0  0
   -8.6613    2.3834    0.0146 C   0  0  0  0  0  0  0  0  0  0  0  0
   -7.5374    2.4718   -0.7746 C   0  0  0  0  0  0  0  0  0  0  0  0
   -7.0979    4.0284   -1.4955 S   0  0  0  0  0  0  0  0  0  0  0  0
   -7.5838    4.0317   -3.1741 C   0  0  0  0  0  0  0  0  0  0  0  0
   -7.0095    4.9190   -4.0637 C   0  0  0  0  0  0  0  0  0  0  0  0
   -7.5742    4.6862   -5.2827 N   0  0  0  0  0  0  0  0  0  0  0  0
   -8.7868    4.0764   -5.0811 C   0  0  0  0  0  0  0  0  0  0  0  0
   -9.9335    4.0471   -5.8789 C   0  0  0  0  0  0  0  0  0  0  0  0
  -10.9794    3.2273   -5.4585 C   0  0  0  0  0  0  0  0  0  0  0  0
  -10.8146    2.3768   -4.3670 C   0  0  0  0  0  0  0  0  0  0  0  0
   -9.6639    2.4408   -3.5637 C   0  0  0  0  0  0  0  0  0  0  0  0
   -8.6784    3.4063   -3.8522 C   0  0  0  0  0  0  0  0  0  0  0  0
   -6.6239    1.4903   -0.8464 N   0  0  0  0  0  0  0  0  0  0  0  0
   -1.6821   -4.4250   -2.2660 H   0  0  0  0  0  0  0  0  0  0  0  0
   -2.4217   -4.2015   -0.6764 H   0  0  0  0  0  0  0  0  0  0  0  0
   -2.3902   -2.8676   -1.8741 H   0  0  0  0  0  0  0  0  0  0  0  0
   -2.8900   -6.0532   -3.3320 H   0  0  0  0  0  0  0  0  0  0  0  0
   -7.1530   -5.8730   -3.7345 H   0  0  0  0  0  0  0  0  0  0  0  0
   -7.2327   -3.9517   -2.3025 H   0  0  0  0  0  0  0  0  0  0  0  0
   -4.2877   -2.3090   -0.7313 H   0  0  0  0  0  0  0  0  0  0  0  0
   -5.0871   -0.2186   -0.6626 H   0  0  0  0  0  0  0  0  0  0  0  0
   -9.8652    1.9764    2.2602 H   0  0  0  0  0  0  0  0  0  0  0  0
  -10.8303    1.0962    4.1660 H   0  0  0  0  0  0  0  0  0  0  0  0
  -11.7753   -0.8572    5.3287 H   0  0  0  0  0  0  0  0  0  0  0  0
  -11.9685   -3.0363    4.1550 H   0  0  0  0  0  0  0  0  0  0  0  0
  -11.2112   -3.2389    1.7981 H   0  0  0  0  0  0  0  0  0  0  0  0
  -10.2521   -1.2995    0.6281 H   0  0  0  0  0  0  0  0  0  0  0  0
   -9.3582    3.2083    0.1040 H   0  0  0  0  0  0  0  0  0  0  0  0
   -6.2362    5.6646   -3.9426 H   0  0  0  0  0  0  0  0  0  0  0  0
   -7.2231    5.0046   -6.1756 H   0  0  0  0  0  0  0  0  0  0  0  0
  -10.0348    4.6805   -6.7552 H   0  0  0  0  0  0  0  0  0  0  0  0
  -11.9230    3.2357   -6.0006 H   0  0  0  0  0  0  0  0  0  0  0  0
  -11.6057    1.6770   -4.1088 H   0  0  0  0  0  0  0  0  0  0  0  0
   -9.5695    1.7703   -2.7166 H   0  0  0  0  0  0  0  0  0  0  0  0
  1  2  1  0  0  0  0
  1 36  1  0  0  0  0
  1 37  1  0  0  0  0
  1 38  1  0  0  0  0
  2  3  1  0  0  0  0
  2  8  2  0  0  0  0
  3  4  2  0  0  0  0
  3 39  1  0  0  0  0
  4  5  1  0  0  0  0
  4  6  1  0  0  0  0
  6  7  2  0  0  0  0
  6 40  1  0  0  0  0
  7  8  1  0  0  0  0
  7 41  1  0  0  0  0
  8  9  1  0  0  0  0
  9 10  1  0  0  0  0
  9 42  1  0  0  0  0
 10 11  2  0  0  0  0
 10 12  1  0  0  0  0
 12 13  1  0  0  0  0
 12 43  1  0  0  0  0
 13 14  1  0  0  0  0
 13 35  2  0  0  0  0
 14 15  2  0  0  0  0
 15 16  1  0  0  0  0
 15 23  1  0  0  0  0
 16 17  1  0  0  0  0
 16 44  1  0  0  0  0
 17 18  1  0  0  0  0
 17 22  2  0  0  0  0
 18 19  2  0  0  0  0
 18 45  1  0  0  0  0
 19 20  1  0  0  0  0
 19 46  1  0  0  0  0
 20 21  2  0  0  0  0
 20 47  1  0  0  0  0
 21 22  1  0  0  0  0
 21 48  1  0  0  0  0
 22 49  1  0  0  0  0
 23 24  2  0  0  0  0
 23 50  1  0  0  0  0
 24 25  1  0  0  0  0
 24 35  1  0  0  0  0
 25 26  1  0  0  0  0
 26 27  2  0  0  0  0
 26 34  1  0  0  0  0
 27 28  1  0  0  0  0
 27 51  1  0  0  0  0
 28 29  1  0  0  0  0
 28 52  1  0  0  0  0
 29 30  1  0  0  0  0
 29 34  2  0  0  0  0
 30 31  2  0  0  0  0
 30 53  1  0  0  0  0
 31 32  1  0  0  0  0
 31 54  1  0  0  0  0
 32 33  2  0  0  0  0
 32 55  1  0  0  0  0
 33 34  1  0  0  0  0
 33 56  1  0  0  0  0
M  END
$$$$
