CHEMBL3671574
 OpenBabel04072215373D

 64 67  0  0  1  0  0  0  0  0999 V2000
    2.7839    0.6401   -2.5447 C   0  0  0  0  0  0  0  0  0  0  0  0
    3.3534    0.4159   -1.3481 C   0  0  0  0  0  0  0  0  0  0  0  0
    4.1592    1.4756   -0.6882 C   0  0  0  0  0  0  0  0  0  0  0  0
    4.4062    2.5328   -1.2819 O   0  0  0  0  0  0  0  0  0  0  0  0
    4.5300    1.1710    0.6039 N   0  0  0  0  0  0  0  0  0  0  0  0
    5.2572    2.0967    1.3783 C   0  0  0  0  0  0  0  0  0  0  0  0
    6.4489    2.5870    0.8253 C   0  0  0  0  0  0  0  0  0  0  0  0
    7.1971    3.5894    1.4713 C   0  0  0  0  0  0  0  0  0  0  0  0
    8.3178    4.2336    0.9327 C   0  0  0  0  0  0  0  0  0  0  0  0
    8.7381    3.9265   -0.3924 N   0  0  0  0  0  0  0  0  0  0  0  0
    9.5364    4.7840   -1.1789 C   0  0  0  0  0  0  0  0  0  0  0  0
    9.2655    6.1589   -1.2321 C   0  0  0  0  0  0  0  0  0  0  0  0
   10.1070    7.0315   -1.9279 C   0  0  0  0  0  0  0  0  0  0  0  0
   11.2216    6.5242   -2.5880 C   0  0  0  0  0  0  0  0  0  0  0  0
   12.4040    7.7143   -3.4602 Br  0  0  0  0  0  0  0  0  0  0  0  0
   11.4820    5.1543   -2.5970 C   0  0  0  0  0  0  0  0  0  0  0  0
   10.6324    4.2981   -1.8981 C   0  0  0  0  0  0  0  0  0  0  0  0
   10.8989    2.9820   -1.8921 F   0  0  0  0  0  0  0  0  0  0  0  0
    8.9607    5.2018    1.5928 N   0  0  0  0  0  0  0  0  0  0  0  0
    8.4882    5.5434    2.7980 C   0  0  0  0  0  0  0  0  0  0  0  0
    7.4237    5.0009    3.3912 N   0  0  0  0  0  0  0  0  0  0  0  0
    6.7896    4.0322    2.7266 C   0  0  0  0  0  0  0  0  0  0  0  0
    5.6289    3.5153    3.2876 C   0  0  0  0  0  0  0  0  0  0  0  0
    4.8271    2.5694    2.6310 C   0  0  0  0  0  0  0  0  0  0  0  0
    3.5869    2.1821    3.1192 O   0  0  0  0  0  0  0  0  0  0  0  0
    3.0392    3.0784    4.1169 C   0  0  0  0  0  0  0  0  0  0  0  0
    1.5553    2.8179    4.3926 C   0  0  0  0  0  0  0  0  0  0  0  0
    0.9575    3.8908    5.1845 N   0  0  0  0  0  0  0  0  0  0  0  0
    1.0766    3.9388    6.5550 C   0  0  0  0  0  0  0  0  0  0  0  0
    1.4857    2.9955    7.2200 O   0  0  0  0  0  0  0  0  0  0  0  0
    0.5126    5.2227    7.2439 C   0  0  3  0  0  0  0  0  0  0  0  0
   -0.9792    5.3837    6.9292 C   0  0  0  0  0  0  0  0  0  0  0  0
   -1.2669    6.8561    7.1897 C   0  0  0  0  0  0  0  0  0  0  0  0
    0.0457    7.5633    6.8899 C   0  0  0  0  0  0  0  0  0  0  0  0
    1.0596    6.5210    6.8066 N   0  0  0  0  0  0  0  0  0  0  0  0
    2.4203    6.7569    6.8475 C   0  0  0  0  0  0  0  0  0  0  0  0
    2.9061    8.1803    6.6997 C   0  0  0  0  0  0  0  0  0  0  0  0
    3.2355    5.8374    6.9381 O   0  0  0  0  0  0  0  0  0  0  0  0
    2.1929   -0.1207   -3.0341 H   0  0  0  0  0  0  0  0  0  0  0  0
    2.8981    1.5923   -3.0535 H   0  0  0  0  0  0  0  0  0  0  0  0
    3.2375   -0.5324   -0.8438 H   0  0  0  0  0  0  0  0  0  0  0  0
    4.1523    0.3651    1.0727 H   0  0  0  0  0  0  0  0  0  0  0  0
    6.7771    2.2039   -0.1373 H   0  0  0  0  0  0  0  0  0  0  0  0
    8.9914    2.9467   -0.4874 H   0  0  0  0  0  0  0  0  0  0  0  0
    8.4033    6.5616   -0.7085 H   0  0  0  0  0  0  0  0  0  0  0  0
    9.8872    8.0936   -1.9246 H   0  0  0  0  0  0  0  0  0  0  0  0
   12.3403    4.7467   -3.1172 H   0  0  0  0  0  0  0  0  0  0  0  0
    8.9999    6.3330    3.3222 H   0  0  0  0  0  0  0  0  0  0  0  0
    5.3531    3.9204    4.2570 H   0  0  0  0  0  0  0  0  0  0  0  0
    3.1267    4.1155    3.7654 H   0  0  0  0  0  0  0  0  0  0  0  0
    3.5922    2.9633    5.0576 H   0  0  0  0  0  0  0  0  0  0  0  0
    1.4287    1.8618    4.9122 H   0  0  0  0  0  0  0  0  0  0  0  0
    0.9942    2.7570    3.4537 H   0  0  0  0  0  0  0  0  0  0  0  0
    0.6285    4.7184    4.7019 H   0  0  0  0  0  0  0  0  0  0  0  0
    0.6787    5.1488    8.3186 H   0  0  0  0  0  0  0  0  0  0  0  0
   -1.6059    4.7197    7.5338 H   0  0  0  0  0  0  0  0  0  0  0  0
   -1.2034    5.1691    5.8762 H   0  0  0  0  0  0  0  0  0  0  0  0
   -1.5465    7.0048    8.2389 H   0  0  0  0  0  0  0  0  0  0  0  0
   -2.0847    7.2372    6.5707 H   0  0  0  0  0  0  0  0  0  0  0  0
    0.2830    8.2615    7.7001 H   0  0  0  0  0  0  0  0  0  0  0  0
    0.0277    8.1099    5.9419 H   0  0  0  0  0  0  0  0  0  0  0  0
    2.1897    8.9223    7.0509 H   0  0  0  0  0  0  0  0  0  0  0  0
    3.1395    8.3761    5.6502 H   0  0  0  0  0  0  0  0  0  0  0  0
    3.8119    8.3062    7.3007 H   0  0  0  0  0  0  0  0  0  0  0  0
  1  2  2  0  0  0  0
  1 39  1  0  0  0  0
  1 40  1  0  0  0  0
  2  3  1  0  0  0  0
  2 41  1  0  0  0  0
  3  4  2  0  0  0  0
  3  5  1  0  0  0  0
  5  6  1  0  0  0  0
  5 42  1  0  0  0  0
  6  7  1  0  0  0  0
  6 24  2  0  0  0  0
  7  8  2  0  0  0  0
  7 43  1  0  0  0  0
  8  9  1  0  0  0  0
  8 22  1  0  0  0  0
  9 10  1  0  0  0  0
  9 19  2  0  0  0  0
 10 11  1  0  0  0  0
 10 44  1  0  0  0  0
 11 12  1  0  0  0  0
 11 17  2  0  0  0  0
 12 13  2  0  0  0  0
 12 45  1  0  0  0  0
 13 14  1  0  0  0  0
 13 46  1  0  0  0  0
 14 15  1  0  0  0  0
 14 16  2  0  0  0  0
 16 17  1  0  0  0  0
 16 47  1  0  0  0  0
 17 18  1  0  0  0  0
 19 20  1  0  0  0  0
 20 21  2  0  0  0  0
 20 48  1  0  0  0  0
 21 22  1  0  0  0  0
 22 23  2  0  0  0  0
 23 24  1  0  0  0  0
 23 49  1  0  0  0  0
 24 25  1  0  0  0  0
 25 26  1  0  0  0  0
 26 27  1  0  0  0  0
 26 50  1  0  0  0  0
 26 51  1  0  0  0  0
 27 28  1  0  0  0  0
 27 52  1  0  0  0  0
 27 53  1  0  0  0  0
 28 29  1  0  0  0  0
 28 54  1  0  0  0  0
 29 30  2  0  0  0  0
 29 31  1  0  0  0  0
 31 32  1  0  0  0  0
 31 35  1  0  0  0  0
 31 55  1  0  0  0  0
 32 33  1  0  0  0  0
 32 56  1  0  0  0  0
 32 57  1  0  0  0  0
 33 34  1  0  0  0  0
 33 58  1  0  0  0  0
 33 59  1  0  0  0  0
 34 35  1  0  0  0  0
 34 60  1  0  0  0  0
 34 61  1  0  0  0  0
 35 36  1  0  0  0  0
 36 37  1  0  0  0  0
 36 38  2  0  0  0  0
 37 62  1  0  0  0  0
 37 63  1  0  0  0  0
 37 64  1  0  0  0  0
M  END
$$$$
