CHEMBL183051
 OpenBabel04072215363D

 46 49  0  0  0  0  0  0  0  0999 V2000
    1.9722    0.5015    1.5037 C   0  0  0  0  0  0  0  0  0  0  0  0
    0.5524    0.1506    1.8384 C   0  0  0  0  0  0  0  0  0  0  0  0
   -0.1047    0.7521    2.9119 C   0  0  0  0  0  0  0  0  0  0  0  0
   -1.4292    0.4215    3.1920 C   0  0  0  0  0  0  0  0  0  0  0  0
   -2.1109   -0.5107    2.3998 C   0  0  0  0  0  0  0  0  0  0  0  0
   -1.4843   -1.1221    1.3103 C   0  0  0  0  0  0  0  0  0  0  0  0
   -2.1165   -2.0024    0.4047 N   0  0  0  0  0  0  0  0  0  0  0  0
   -3.4392   -2.3510    0.2805 C   0  0  0  0  0  0  0  0  0  0  0  0
   -4.6376   -1.0660    0.0694 S   0  0  0  0  0  0  0  0  0  0  0  0
   -3.9507   -3.5303    0.1330 N   0  0  0  0  0  0  0  0  0  0  0  0
   -3.2272   -4.7274    0.1621 C   0  0  0  0  0  0  0  0  0  0  0  0
   -2.1673   -4.9938    1.0262 C   0  0  0  0  0  0  0  0  0  0  0  0
   -1.5142   -6.2354    0.9997 C   0  0  0  0  0  0  0  0  0  0  0  0
   -1.9577   -7.2923    0.1823 C   0  0  0  0  0  0  0  0  0  0  0  0
   -1.2980   -8.6247    0.2174 C   0  0  0  0  0  0  0  0  0  0  0  0
   -0.7319   -9.1119    1.4226 C   0  0  0  0  0  0  0  0  0  0  0  0
   -0.0970  -10.3695    1.5199 C   0  0  0  0  0  0  0  0  0  0  0  0
   -0.0171  -11.1967    0.4097 C   0  0  0  0  0  0  0  0  0  0  0  0
   -0.5652  -10.7273   -0.7658 C   0  0  0  0  0  0  0  0  0  0  0  0
   -1.1872   -9.4733   -0.8850 C   0  0  0  0  0  0  0  0  0  0  0  0
   -1.6244   -9.3026   -2.3093 C   0  0  0  0  0  0  0  0  0  0  0  0
   -1.1837  -10.5119   -2.9482 N   0  0  0  0  0  0  0  0  0  0  0  0
   -0.5996  -11.3949   -2.0709 C   0  0  0  0  0  0  0  0  0  0  0  0
   -0.2001  -12.5147   -2.3149 O   0  0  0  0  0  0  0  0  0  0  0  0
   -3.0746   -7.0268   -0.6182 C   0  0  0  0  0  0  0  0  0  0  0  0
   -3.6756   -5.7626   -0.6557 C   0  0  0  0  0  0  0  0  0  0  0  0
   -0.1413   -0.7848    1.0545 C   0  0  0  0  0  0  0  0  0  0  0  0
    2.3516    1.3006    2.1492 H   0  0  0  0  0  0  0  0  0  0  0  0
    2.0369    0.8532    0.4687 H   0  0  0  0  0  0  0  0  0  0  0  0
    2.6199   -0.3720    1.6283 H   0  0  0  0  0  0  0  0  0  0  0  0
    0.4069    1.4841    3.5337 H   0  0  0  0  0  0  0  0  0  0  0  0
   -1.9354    0.8952    4.0308 H   0  0  0  0  0  0  0  0  0  0  0  0
   -3.1303   -0.7592    2.6798 H   0  0  0  0  0  0  0  0  0  0  0  0
   -1.4809   -2.7347    0.1113 H   0  0  0  0  0  0  0  0  0  0  0  0
   -4.1747   -0.2129    0.9796 H   0  0  0  0  0  0  0  0  0  0  0  0
   -1.8425   -4.2561    1.7523 H   0  0  0  0  0  0  0  0  0  0  0  0
   -0.6607   -6.3652    1.6629 H   0  0  0  0  0  0  0  0  0  0  0  0
   -0.7826   -8.5171    2.3360 H   0  0  0  0  0  0  0  0  0  0  0  0
    0.3222  -10.6876    2.4708 H   0  0  0  0  0  0  0  0  0  0  0  0
    0.4547  -12.1744    0.4573 H   0  0  0  0  0  0  0  0  0  0  0  0
   -1.1461   -8.4468   -2.7961 H   0  0  0  0  0  0  0  0  0  0  0  0
   -2.7107   -9.2703   -2.4179 H   0  0  0  0  0  0  0  0  0  0  0  0
   -1.3970  -10.7874   -3.8973 H   0  0  0  0  0  0  0  0  0  0  0  0
   -3.5449   -7.8062   -1.2115 H   0  0  0  0  0  0  0  0  0  0  0  0
   -4.5320   -5.5969   -1.3063 H   0  0  0  0  0  0  0  0  0  0  0  0
    0.3751   -1.2454    0.2140 H   0  0  0  0  0  0  0  0  0  0  0  0
  1  2  1  0  0  0  0
  1 28  1  0  0  0  0
  1 29  1  0  0  0  0
  1 30  1  0  0  0  0
  2  3  1  0  0  0  0
  2 27  2  0  0  0  0
  3  4  2  0  0  0  0
  3 31  1  0  0  0  0
  4  5  1  0  0  0  0
  4 32  1  0  0  0  0
  5  6  2  0  0  0  0
  5 33  1  0  0  0  0
  6  7  1  0  0  0  0
  6 27  1  0  0  0  0
  7  8  1  0  0  0  0
  7 34  1  0  0  0  0
  8  9  1  0  0  0  0
  8 10  2  0  0  0  0
  9 35  1  0  0  0  0
 10 11  1  0  0  0  0
 11 12  1  0  0  0  0
 11 26  2  0  0  0  0
 12 13  2  0  0  0  0
 12 36  1  0  0  0  0
 13 14  1  0  0  0  0
 13 37  1  0  0  0  0
 14 15  1  0  0  0  0
 14 25  2  0  0  0  0
 15 16  1  0  0  0  0
 15 20  2  0  0  0  0
 16 17  2  0  0  0  0
 16 38  1  0  0  0  0
 17 18  1  0  0  0  0
 17 39  1  0  0  0  0
 18 19  2  0  0  0  0
 18 40  1  0  0  0  0
 19 20  1  0  0  0  0
 19 23  1  0  0  0  0
 20 21  1  0  0  0  0
 21 22  1  0  0  0  0
 21 41  1  0  0  0  0
 21 42  1  0  0  0  0
 22 23  1  0  0  0  0
 22 43  1  0  0  0  0
 23 24  2  0  0  0  0
 25 26  1  0  0  0  0
 25 44  1  0  0  0  0
 26 45  1  0  0  0  0
 27 46  1  0  0  0  0
M  END
$$$$
