CHEMBL4246128
 OpenBabel04072215383D

 57 59  0  0  0  0  0  0  0  0999 V2000
    1.0864    0.2400    0.2181 C   0  0  0  0  0  0  0  0  0  0  0  0
    2.5771   -0.0566    0.0794 C   0  0  0  0  0  0  0  0  0  0  0  0
    3.0147   -0.4354   -1.2771 N   0  0  0  0  0  0  0  0  0  0  0  0
    2.6376    0.5378   -2.3162 C   0  0  0  0  0  0  0  0  0  0  0  0
    3.3267    1.8968   -2.2472 C   0  0  0  0  0  0  0  0  0  0  0  0
    4.4585   -0.7624   -1.2451 C   0  0  0  0  0  0  0  0  0  0  0  0
    5.0499   -1.2438   -2.5761 C   0  0  0  0  0  0  0  0  0  0  0  0
    6.4429   -1.5435   -2.4012 O   0  0  0  0  0  0  0  0  0  0  0  0
    7.0824   -1.9643   -3.5379 C   0  0  0  0  0  0  0  0  0  0  0  0
    6.6912   -1.6359   -4.8339 C   0  0  0  0  0  0  0  0  0  0  0  0
    7.4002   -2.1275   -5.9282 C   0  0  0  0  0  0  0  0  0  0  0  0
    8.5438   -2.9146   -5.7532 C   0  0  0  0  0  0  0  0  0  0  0  0
    9.2824   -3.4038   -6.8497 N   0  0  0  0  0  0  0  0  0  0  0  0
    9.4066   -2.7840   -8.1092 C   0  0  0  0  0  0  0  0  0  0  0  0
    9.4916   -1.4111   -8.2059 C   0  0  0  0  0  0  0  0  0  0  0  0
    9.5235   -0.9090   -9.4743 C   0  0  0  0  0  0  0  0  0  0  0  0
    9.4773    0.7838   -9.7472 Cl  0  0  0  0  0  0  0  0  0  0  0  0
    9.5342   -1.6517  -10.5860 N   0  0  0  0  0  0  0  0  0  0  0  0
    9.5112   -2.9754  -10.3959 C   0  0  0  0  0  0  0  0  0  0  0  0
    9.5150   -3.8270  -11.6024 C   0  0  0  0  0  0  0  0  0  0  0  0
    9.4665   -3.2586  -12.8915 C   0  0  0  0  0  0  0  0  0  0  0  0
    9.4314   -4.0484  -14.0461 C   0  0  0  0  0  0  0  0  0  0  0  0
    9.4439   -5.4359  -13.9436 C   0  0  0  0  0  0  0  0  0  0  0  0
    9.3866   -6.3185  -14.9864 O   0  0  0  0  0  0  0  0  0  0  0  0
    9.3077   -5.7583  -16.2921 C   0  0  0  0  0  0  0  0  0  0  0  0
    9.5133   -6.0207  -12.6796 C   0  0  0  0  0  0  0  0  0  0  0  0
    9.5505   -5.2294  -11.5258 C   0  0  0  0  0  0  0  0  0  0  0  0
    9.4405   -3.5767   -9.1887 N   0  0  0  0  0  0  0  0  0  0  0  0
    8.9263   -3.2520   -4.4521 C   0  0  0  0  0  0  0  0  0  0  0  0
    8.2123   -2.7617   -3.3506 C   0  0  0  0  0  0  0  0  0  0  0  0
    0.8132    0.2730    1.2781 H   0  0  0  0  0  0  0  0  0  0  0  0
    0.4760   -0.5329   -0.2605 H   0  0  0  0  0  0  0  0  0  0  0  0
    0.8272    1.2113   -0.2148 H   0  0  0  0  0  0  0  0  0  0  0  0
    2.7979   -0.8924    0.7549 H   0  0  0  0  0  0  0  0  0  0  0  0
    3.1448    0.8047    0.4511 H   0  0  0  0  0  0  0  0  0  0  0  0
    1.5531    0.6894   -2.3002 H   0  0  0  0  0  0  0  0  0  0  0  0
    2.8149    0.1014   -3.3079 H   0  0  0  0  0  0  0  0  0  0  0  0
    3.3101    2.3197   -1.2386 H   0  0  0  0  0  0  0  0  0  0  0  0
    2.8127    2.6062   -2.9060 H   0  0  0  0  0  0  0  0  0  0  0  0
    4.3679    1.8336   -2.5772 H   0  0  0  0  0  0  0  0  0  0  0  0
    4.6280   -1.5593   -0.5084 H   0  0  0  0  0  0  0  0  0  0  0  0
    5.0445    0.0955   -0.8887 H   0  0  0  0  0  0  0  0  0  0  0  0
    4.9393   -0.4405   -3.3077 H   0  0  0  0  0  0  0  0  0  0  0  0
    4.5238   -2.1442   -2.9170 H   0  0  0  0  0  0  0  0  0  0  0  0
    5.8459   -0.9906   -5.0411 H   0  0  0  0  0  0  0  0  0  0  0  0
    7.0407   -1.8769   -6.9226 H   0  0  0  0  0  0  0  0  0  0  0  0
    9.1448   -4.4019   -6.9956 H   0  0  0  0  0  0  0  0  0  0  0  0
    9.4823   -0.7675   -7.3400 H   0  0  0  0  0  0  0  0  0  0  0  0
    9.4443   -2.1759  -13.0081 H   0  0  0  0  0  0  0  0  0  0  0  0
    9.3860   -3.5410  -15.0036 H   0  0  0  0  0  0  0  0  0  0  0  0
    9.1901   -6.5816  -17.0027 H   0  0  0  0  0  0  0  0  0  0  0  0
   10.2318   -5.2270  -16.5421 H   0  0  0  0  0  0  0  0  0  0  0  0
    8.4352   -5.1055  -16.3977 H   0  0  0  0  0  0  0  0  0  0  0  0
    9.5316   -7.1042  -12.5875 H   0  0  0  0  0  0  0  0  0  0  0  0
    9.6009   -5.7228  -10.5567 H   0  0  0  0  0  0  0  0  0  0  0  0
    9.8039   -3.8721   -4.2850 H   0  0  0  0  0  0  0  0  0  0  0  0
    8.5382   -3.0108   -2.3438 H   0  0  0  0  0  0  0  0  0  0  0  0
  1  2  1  0  0  0  0
  1 31  1  0  0  0  0
  1 32  1  0  0  0  0
  1 33  1  0  0  0  0
  2  3  1  0  0  0  0
  2 34  1  0  0  0  0
  2 35  1  0  0  0  0
  3  4  1  0  0  0  0
  3  6  1  0  0  0  0
  4  5  1  0  0  0  0
  4 36  1  0  0  0  0
  4 37  1  0  0  0  0
  5 38  1  0  0  0  0
  5 39  1  0  0  0  0
  5 40  1  0  0  0  0
  6  7  1  0  0  0  0
  6 41  1  0  0  0  0
  6 42  1  0  0  0  0
  7  8  1  0  0  0  0
  7 43  1  0  0  0  0
  7 44  1  0  0  0  0
  8  9  1  0  0  0  0
  9 10  1  0  0  0  0
  9 30  2  0  0  0  0
 10 11  2  0  0  0  0
 10 45  1  0  0  0  0
 11 12  1  0  0  0  0
 11 46  1  0  0  0  0
 12 13  1  0  0  0  0
 12 29  2  0  0  0  0
 13 14  1  0  0  0  0
 13 47  1  0  0  0  0
 14 15  1  0  0  0  0
 14 28  2  0  0  0  0
 15 16  2  0  0  0  0
 15 48  1  0  0  0  0
 16 17  1  0  0  0  0
 16 18  1  0  0  0  0
 18 19  2  0  0  0  0
 19 20  1  0  0  0  0
 19 28  1  0  0  0  0
 20 21  1  0  0  0  0
 20 27  2  0  0  0  0
 21 22  2  0  0  0  0
 21 49  1  0  0  0  0
 22 23  1  0  0  0  0
 22 50  1  0  0  0  0
 23 24  1  0  0  0  0
 23 26  2  0  0  0  0
 24 25  1  0  0  0  0
 25 51  1  0  0  0  0
 25 52  1  0  0  0  0
 25 53  1  0  0  0  0
 26 27  1  0  0  0  0
 26 54  1  0  0  0  0
 27 55  1  0  0  0  0
 29 30  1  0  0  0  0
 29 56  1  0  0  0  0
 30 57  1  0  0  0  0
M  END
$$$$
