CHEMBL360190
 OpenBabel04072215363D

 76 80  0  0  0  0  0  0  0  0999 V2000
    4.1104   -3.1524    2.4134 O   0  0  0  0  0  0  0  0  0  0  0  0
    5.0943   -2.5888    1.9481 C   0  0  0  0  0  0  0  0  0  0  0  0
    6.5060   -2.9664    2.4035 N   0  0  0  0  0  0  0  0  0  0  0  0
    6.8798   -4.1105    3.2597 C   0  0  0  0  0  0  0  0  0  0  0  0
    8.1141   -4.6829    3.5335 C   0  0  0  0  0  0  0  0  0  0  0  0
    8.4155   -6.0504    4.2423 C   0  0  0  0  0  0  0  0  0  0  0  0
    7.8156   -6.5186    5.4311 C   0  0  0  0  0  0  0  0  0  0  0  0
    7.7852   -7.9090    5.7654 C   0  0  0  0  0  0  0  0  0  0  0  0
    8.3375   -8.8517    4.8892 C   0  0  0  0  0  0  0  0  0  0  0  0
    9.2365   -8.3869    3.9347 C   0  0  0  0  0  0  0  0  0  0  0  0
   10.3037   -9.6186    2.9583 Br  0  0  0  0  0  0  0  0  0  0  0  0
    9.2949   -6.9942    3.6365 C   0  0  0  0  0  0  0  0  0  0  0  0
    7.7903  -10.1381    4.7958 O   0  0  0  0  0  0  0  0  0  0  0  0
    6.5240  -10.2129    4.1898 C   0  0  0  0  0  0  0  0  0  0  0  0
    5.8535   -9.0523    3.7707 C   0  0  0  0  0  0  0  0  0  0  0  0
    4.5495   -9.0428    3.2864 C   0  0  0  0  0  0  0  0  0  0  0  0
    3.8902  -10.2622    3.1495 C   0  0  0  0  0  0  0  0  0  0  0  0
    4.5606  -11.4504    3.4506 C   0  0  0  0  0  0  0  0  0  0  0  0
    3.6447  -13.0801    3.0989 Br  0  0  0  0  0  0  0  0  0  0  0  0
    5.8681  -11.4361    3.9821 C   0  0  0  0  0  0  0  0  0  0  0  0
    6.4919  -12.6228    4.2667 O   0  0  0  0  0  0  0  0  0  0  0  0
    3.9323   -7.6999    2.9685 C   0  0  0  0  0  0  0  0  0  0  0  0
    3.1807   -7.7545    1.6523 C   0  0  0  0  0  0  0  0  0  0  0  0
    2.5276   -6.5253    1.2720 N   0  0  0  0  0  0  0  0  0  0  0  0
    1.2759   -6.6643    0.6751 C   0  0  0  0  0  0  0  0  0  0  0  0
    0.3167   -6.0667    1.1430 O   0  0  0  0  0  0  0  0  0  0  0  0
    1.1628   -7.5771   -0.5904 C   0  0  0  0  0  0  0  0  0  0  0  0
    1.6814   -8.7683   -0.4729 N   0  0  0  0  0  0  0  0  0  0  0  0
    1.5654   -9.5208   -1.6408 O   0  0  0  0  0  0  0  0  0  0  0  0
    0.4783   -7.1327   -1.8881 C   0  0  0  0  0  0  0  0  0  0  0  0
   -0.1099   -5.7623   -2.0118 C   0  0  0  0  0  0  0  0  0  0  0  0
    0.3340   -4.7576   -1.1938 C   0  0  0  0  0  0  0  0  0  0  0  0
   -0.4434   -3.6595   -0.9898 C   0  0  0  0  0  0  0  0  0  0  0  0
   -1.1173   -3.1867   -2.0784 C   0  0  0  0  0  0  0  0  0  0  0  0
   -1.5435   -4.0933   -3.0331 C   0  0  0  0  0  0  0  0  0  0  0  0
   -2.7353   -3.6068   -4.4217 Br  0  0  0  0  0  0  0  0  0  0  0  0
   -1.0796   -5.4276   -2.9452 C   0  0  0  0  0  0  0  0  0  0  0  0
   -1.1965   -1.8297   -2.2244 O   0  0  0  0  0  0  0  0  0  0  0  0
   -0.2598   -1.0160   -1.5621 C   0  0  0  0  0  0  0  0  0  0  0  0
    1.0980   -1.3654   -1.1512 C   0  0  0  0  0  0  0  0  0  0  0  0
    2.0042   -0.5437   -0.4103 C   0  0  0  0  0  0  0  0  0  0  0  0
    1.5136    0.7981   -0.3752 C   0  0  0  0  0  0  0  0  0  0  0  0
    0.1960    1.1914   -0.8348 C   0  0  0  0  0  0  0  0  0  0  0  0
   -0.2604    3.0438   -0.9440 Br  0  0  0  0  0  0  0  0  0  0  0  0
   -0.7142    0.2793   -1.3569 C   0  0  0  0  0  0  0  0  0  0  0  0
   -1.9895    0.6118   -1.7380 O   0  0  0  0  0  0  0  0  0  0  0  0
    3.5768   -0.9475   -0.2811 C   0  0  0  0  0  0  0  0  0  0  0  0
    4.8960   -1.4101    0.7004 C   0  0  0  0  0  0  0  0  0  0  0  0
    6.0879   -1.0044    0.3031 N   0  0  0  0  0  0  0  0  0  0  0  0
    6.0066   -0.2556   -0.8874 O   0  0  0  0  0  0  0  0  0  0  0  0
    7.2745   -2.4337    1.9982 H   0  0  0  0  0  0  0  0  0  0  0  0
    6.0113   -4.5683    3.7327 H   0  0  0  0  0  0  0  0  0  0  0  0
    9.0313   -4.2478    3.1316 H   0  0  0  0  0  0  0  0  0  0  0  0
    7.2876   -5.8393    6.0935 H   0  0  0  0  0  0  0  0  0  0  0  0
    7.1782   -8.2632    6.5989 H   0  0  0  0  0  0  0  0  0  0  0  0
    9.9957   -6.6817    2.8654 H   0  0  0  0  0  0  0  0  0  0  0  0
    6.3348   -8.0856    3.8084 H   0  0  0  0  0  0  0  0  0  0  0  0
    2.8652  -10.3009    2.7881 H   0  0  0  0  0  0  0  0  0  0  0  0
    5.8931  -13.3407    3.9827 H   0  0  0  0  0  0  0  0  0  0  0  0
    4.7038   -6.9201    2.9089 H   0  0  0  0  0  0  0  0  0  0  0  0
    3.2688   -7.4126    3.7939 H   0  0  0  0  0  0  0  0  0  0  0  0
    2.3905   -8.4992    1.7697 H   0  0  0  0  0  0  0  0  0  0  0  0
    3.8489   -8.0524    0.8378 H   0  0  0  0  0  0  0  0  0  0  0  0
    2.5091   -5.8097    1.9955 H   0  0  0  0  0  0  0  0  0  0  0  0
    2.0005  -10.3598   -1.3949 H   0  0  0  0  0  0  0  0  0  0  0  0
   -0.3357   -7.8532   -2.0537 H   0  0  0  0  0  0  0  0  0  0  0  0
    1.2011   -7.2535   -2.7048 H   0  0  0  0  0  0  0  0  0  0  0  0
    1.2510   -4.8100   -0.6253 H   0  0  0  0  0  0  0  0  0  0  0  0
   -0.2694   -3.0666   -0.1044 H   0  0  0  0  0  0  0  0  0  0  0  0
   -1.4545   -6.1792   -3.6576 H   0  0  0  0  0  0  0  0  0  0  0  0
    1.4900   -2.3152   -1.5038 H   0  0  0  0  0  0  0  0  0  0  0  0
    2.1863    1.6131   -0.1206 H   0  0  0  0  0  0  0  0  0  0  0  0
   -2.2061    1.5175   -1.4831 H   0  0  0  0  0  0  0  0  0  0  0  0
    3.9128    0.0823   -0.4872 H   0  0  0  0  0  0  0  0  0  0  0  0
    3.7597   -1.4995   -1.2146 H   0  0  0  0  0  0  0  0  0  0  0  0
    6.9326   -0.1196   -1.1583 H   0  0  0  0  0  0  0  0  0  0  0  0
  1  2  2  0  0  0  0
  2  3  1  0  0  0  0
  2 48  1  0  0  0  0
  3  4  1  0  0  0  0
  3 51  1  0  0  0  0
  4  5  2  0  0  0  0
  4 52  1  0  0  0  0
  5  6  1  0  0  0  0
  5 53  1  0  0  0  0
  6  7  1  0  0  0  0
  6 12  2  0  0  0  0
  7  8  2  0  0  0  0
  7 54  1  0  0  0  0
  8  9  1  0  0  0  0
  8 55  1  0  0  0  0
  9 10  2  0  0  0  0
  9 13  1  0  0  0  0
 10 11  1  0  0  0  0
 10 12  1  0  0  0  0
 12 56  1  0  0  0  0
 13 14  1  0  0  0  0
 14 15  1  0  0  0  0
 14 20  2  0  0  0  0
 15 16  2  0  0  0  0
 15 57  1  0  0  0  0
 16 17  1  0  0  0  0
 16 22  1  0  0  0  0
 17 18  2  0  0  0  0
 17 58  1  0  0  0  0
 18 19  1  0  0  0  0
 18 20  1  0  0  0  0
 20 21  1  0  0  0  0
 21 59  1  0  0  0  0
 22 23  1  0  0  0  0
 22 60  1  0  0  0  0
 22 61  1  0  0  0  0
 23 24  1  0  0  0  0
 23 62  1  0  0  0  0
 23 63  1  0  0  0  0
 24 25  1  0  0  0  0
 24 64  1  0  0  0  0
 25 26  2  0  0  0  0
 25 27  1  0  0  0  0
 27 28  2  0  0  0  0
 27 30  1  0  0  0  0
 28 29  1  0  0  0  0
 29 65  1  0  0  0  0
 30 31  1  0  0  0  0
 30 66  1  0  0  0  0
 30 67  1  0  0  0  0
 31 32  1  0  0  0  0
 31 37  2  0  0  0  0
 32 33  2  0  0  0  0
 32 68  1  0  0  0  0
 33 34  1  0  0  0  0
 33 69  1  0  0  0  0
 34 35  2  0  0  0  0
 34 38  1  0  0  0  0
 35 36  1  0  0  0  0
 35 37  1  0  0  0  0
 37 70  1  0  0  0  0
 38 39  1  0  0  0  0
 39 40  1  0  0  0  0
 39 45  2  0  0  0  0
 40 41  2  0  0  0  0
 40 71  1  0  0  0  0
 41 42  1  0  0  0  0
 41 47  1  0  0  0  0
 42 43  2  0  0  0  0
 42 72  1  0  0  0  0
 43 44  1  0  0  0  0
 43 45  1  0  0  0  0
 45 46  1  0  0  0  0
 46 73  1  0  0  0  0
 47 48  1  0  0  0  0
 47 74  1  0  0  0  0
 47 75  1  0  0  0  0
 48 49  2  0  0  0  0
 49 50  1  0  0  0  0
 50 76  1  0  0  0  0
M  END
$$$$
