CHEMBL468829
 OpenBabel04072215383D

 46 50  0  0  0  0  0  0  0  0999 V2000
    3.4888    0.6577    0.7322 O   0  0  0  0  0  0  0  0  0  0  0  0
    2.6717    0.3624   -0.1322 C   0  0  0  0  0  0  0  0  0  0  0  0
    3.0265   -0.6121   -1.1927 C   0  0  0  0  0  0  0  0  0  0  0  0
    2.6681   -0.2858   -2.5089 C   0  0  0  0  0  0  0  0  0  0  0  0
    3.3338   -0.8823   -3.5871 C   0  0  0  0  0  0  0  0  0  0  0  0
    4.3583   -1.7901   -3.3387 C   0  0  0  0  0  0  0  0  0  0  0  0
    4.6499   -2.1745   -2.0239 C   0  0  0  0  0  0  0  0  0  0  0  0
    3.9395   -1.6710   -0.9367 C   0  0  0  0  0  0  0  0  0  0  0  0
    4.2958   -2.1439    0.3503 N   0  0  0  0  0  0  0  0  0  0  0  0
    3.2816   -2.3287    1.3784 C   0  0  0  0  0  0  0  0  0  0  0  0
    2.7500   -3.7581    1.3624 C   0  0  0  0  0  0  0  0  0  0  0  0
    1.5472   -4.0492    0.7013 C   0  0  0  0  0  0  0  0  0  0  0  0
    1.0089   -5.3428    0.6988 C   0  0  0  0  0  0  0  0  0  0  0  0
    1.7221   -6.3687    1.3363 C   0  0  0  0  0  0  0  0  0  0  0  0
    1.5359   -7.7493    1.5676 C   0  0  0  0  0  0  0  0  0  0  0  0
    2.5637   -8.3064    2.2146 N   0  0  0  0  0  0  0  0  0  0  0  0
    3.4062   -7.2746    2.4080 N   0  0  0  0  0  0  0  0  0  0  0  0
    2.9379   -6.0734    1.9400 C   0  0  0  0  0  0  0  0  0  0  0  0
    3.4737   -4.7825    1.9904 C   0  0  0  0  0  0  0  0  0  0  0  0
    1.4047    1.0695   -0.1948 C   0  0  0  0  0  0  0  0  0  0  0  0
    1.3401    2.4445   -0.0129 C   0  0  0  0  0  0  0  0  0  0  0  0
    0.0224    2.7736   -0.1218 N   0  0  0  0  0  0  0  0  0  0  0  0
   -0.7076    1.6710    0.2471 C   0  0  0  0  0  0  0  0  0  0  0  0
   -1.9334    1.5331    0.8997 C   0  0  0  0  0  0  0  0  0  0  0  0
   -2.4108    0.2311    1.0238 C   0  0  0  0  0  0  0  0  0  0  0  0
   -3.4839    0.0015    1.7933 F   0  0  0  0  0  0  0  0  0  0  0  0
   -1.7966   -0.8400    0.3812 C   0  0  0  0  0  0  0  0  0  0  0  0
   -0.5578   -0.6742   -0.2549 C   0  0  0  0  0  0  0  0  0  0  0  0
    0.0669    0.5869   -0.1694 C   0  0  0  0  0  0  0  0  0  0  0  0
    1.9479    0.4832   -2.7257 H   0  0  0  0  0  0  0  0  0  0  0  0
    3.0879   -0.6027   -4.6084 H   0  0  0  0  0  0  0  0  0  0  0  0
    4.9344   -2.1965   -4.1537 H   0  0  0  0  0  0  0  0  0  0  0  0
    5.4504   -2.8883   -1.8595 H   0  0  0  0  0  0  0  0  0  0  0  0
    4.9123   -2.9503    0.2909 H   0  0  0  0  0  0  0  0  0  0  0  0
    2.4364   -1.6406    1.3171 H   0  0  0  0  0  0  0  0  0  0  0  0
    3.7388   -2.1412    2.3571 H   0  0  0  0  0  0  0  0  0  0  0  0
    1.0069   -3.2626    0.1854 H   0  0  0  0  0  0  0  0  0  0  0  0
    0.0639   -5.5474    0.2048 H   0  0  0  0  0  0  0  0  0  0  0  0
    0.6931   -8.3686    1.2892 H   0  0  0  0  0  0  0  0  0  0  0  0
    4.2956   -7.4581    2.8540 H   0  0  0  0  0  0  0  0  0  0  0  0
    4.4069   -4.5774    2.5053 H   0  0  0  0  0  0  0  0  0  0  0  0
    2.1117    3.1846    0.1502 H   0  0  0  0  0  0  0  0  0  0  0  0
   -0.3494    3.6691   -0.4176 H   0  0  0  0  0  0  0  0  0  0  0  0
   -2.4284    2.3646    1.3884 H   0  0  0  0  0  0  0  0  0  0  0  0
   -2.2510   -1.8239    0.4417 H   0  0  0  0  0  0  0  0  0  0  0  0
   -0.0599   -1.5189   -0.7125 H   0  0  0  0  0  0  0  0  0  0  0  0
  1  2  2  0  0  0  0
  2  3  1  0  0  0  0
  2 20  1  0  0  0  0
  3  4  1  0  0  0  0
  3  8  2  0  0  0  0
  4  5  2  0  0  0  0
  4 30  1  0  0  0  0
  5  6  1  0  0  0  0
  5 31  1  0  0  0  0
  6  7  2  0  0  0  0
  6 32  1  0  0  0  0
  7  8  1  0  0  0  0
  7 33  1  0  0  0  0
  8  9  1  0  0  0  0
  9 10  1  0  0  0  0
  9 34  1  0  0  0  0
 10 11  1  0  0  0  0
 10 35  1  0  0  0  0
 10 36  1  0  0  0  0
 11 12  1  0  0  0  0
 11 19  2  0  0  0  0
 12 13  2  0  0  0  0
 12 37  1  0  0  0  0
 13 14  1  0  0  0  0
 13 38  1  0  0  0  0
 14 15  1  0  0  0  0
 14 18  2  0  0  0  0
 15 16  2  0  0  0  0
 15 39  1  0  0  0  0
 16 17  1  0  0  0  0
 17 18  1  0  0  0  0
 17 40  1  0  0  0  0
 18 19  1  0  0  0  0
 19 41  1  0  0  0  0
 20 21  2  0  0  0  0
 20 29  1  0  0  0  0
 21 22  1  0  0  0  0
 21 42  1  0  0  0  0
 22 23  1  0  0  0  0
 22 43  1  0  0  0  0
 23 24  1  0  0  0  0
 23 29  2  0  0  0  0
 24 25  2  0  0  0  0
 24 44  1  0  0  0  0
 25 26  1  0  0  0  0
 25 27  1  0  0  0  0
 27 28  2  0  0  0  0
 27 45  1  0  0  0  0
 28 29  1  0  0  0  0
 28 46  1  0  0  0  0
M  END
$$$$
