CHEMBL1986590
 OpenBabel04072215363D

 32 35  0  0  0  0  0  0  0  0999 V2000
   -2.9643    0.9781    0.1971 O   0  0  0  0  0  0  0  0  0  0  0  0
   -1.7965    0.6436    0.1227 C   0  0  0  0  0  0  0  0  0  0  0  0
   -0.7177    1.5080    0.0846 N   0  0  0  0  0  0  0  0  0  0  0  0
    0.4883    0.8198    0.0572 C   0  0  0  0  0  0  0  0  0  0  0  0
    1.7445    1.3873    0.0298 C   0  0  0  0  0  0  0  0  0  0  0  0
    2.8353    0.5202   -0.0045 C   0  0  0  0  0  0  0  0  0  0  0  0
    2.6411   -0.8750   -0.0197 C   0  0  0  0  0  0  0  0  0  0  0  0
    1.3516   -1.4287    0.0103 C   0  0  0  0  0  0  0  0  0  0  0  0
    0.2715   -0.5643    0.0605 C   0  0  0  0  0  0  0  0  0  0  0  0
   -1.1878   -0.7412    0.0952 C   0  0  0  0  0  0  0  0  0  0  0  0
   -1.8819   -1.8923    0.0865 C   0  0  0  0  0  0  0  0  0  0  0  0
   -3.3022   -1.9740   -0.0065 C   0  0  0  0  0  0  0  0  0  0  0  0
   -4.1718   -1.9700    1.0604 C   0  0  0  0  0  0  0  0  0  0  0  0
   -5.4452   -1.9056    0.5517 N   0  0  0  0  0  0  0  0  0  0  0  0
   -5.4156   -1.9186   -0.8263 C   0  0  0  0  0  0  0  0  0  0  0  0
   -6.4603   -1.8453   -1.7567 C   0  0  0  0  0  0  0  0  0  0  0  0
   -6.1220   -1.8571   -3.1141 C   0  0  0  0  0  0  0  0  0  0  0  0
   -4.7931   -1.9407   -3.5228 C   0  0  0  0  0  0  0  0  0  0  0  0
   -3.7612   -2.0030   -2.5801 C   0  0  0  0  0  0  0  0  0  0  0  0
   -4.0741   -1.9873   -1.2054 C   0  0  0  0  0  0  0  0  0  0  0  0
   -0.8306    2.5080    0.0946 H   0  0  0  0  0  0  0  0  0  0  0  0
    1.8833    2.4620    0.0343 H   0  0  0  0  0  0  0  0  0  0  0  0
    3.8446    0.9261   -0.0236 H   0  0  0  0  0  0  0  0  0  0  0  0
    3.5103   -1.5288   -0.0588 H   0  0  0  0  0  0  0  0  0  0  0  0
    1.2212   -2.5046   -0.0104 H   0  0  0  0  0  0  0  0  0  0  0  0
   -1.3516   -2.8392    0.0860 H   0  0  0  0  0  0  0  0  0  0  0  0
   -4.0052   -1.9375    2.1282 H   0  0  0  0  0  0  0  0  0  0  0  0
   -6.2871   -1.8185    1.1026 H   0  0  0  0  0  0  0  0  0  0  0  0
   -7.4960   -1.7634   -1.4439 H   0  0  0  0  0  0  0  0  0  0  0  0
   -6.9086   -1.7891   -3.8620 H   0  0  0  0  0  0  0  0  0  0  0  0
   -4.5508   -1.9418   -4.5821 H   0  0  0  0  0  0  0  0  0  0  0  0
   -2.7265   -2.0476   -2.9055 H   0  0  0  0  0  0  0  0  0  0  0  0
  1  2  2  0  0  0  0
  2  3  1  0  0  0  0
  2 10  1  0  0  0  0
  3  4  1  0  0  0  0
  3 21  1  0  0  0  0
  4  5  1  0  0  0  0
  4  9  2  0  0  0  0
  5  6  2  0  0  0  0
  5 22  1  0  0  0  0
  6  7  1  0  0  0  0
  6 23  1  0  0  0  0
  7  8  2  0  0  0  0
  7 24  1  0  0  0  0
  8  9  1  0  0  0  0
  8 25  1  0  0  0  0
  9 10  1  0  0  0  0
 10 11  2  3  0  0  0
 11 12  1  0  0  0  0
 11 26  1  0  0  0  0
 12 13  2  0  0  0  0
 12 20  1  0  0  0  0
 13 14  1  0  0  0  0
 13 27  1  0  0  0  0
 14 15  1  0  0  0  0
 14 28  1  0  0  0  0
 15 16  1  0  0  0  0
 15 20  2  0  0  0  0
 16 17  2  0  0  0  0
 16 29  1  0  0  0  0
 17 18  1  0  0  0  0
 17 30  1  0  0  0  0
 18 19  2  0  0  0  0
 18 31  1  0  0  0  0
 19 20  1  0  0  0  0
 19 32  1  0  0  0  0
M  END
$$$$
