CHEMBL1997909
 OpenBabel04072215363D

 62 67  0  0  0  0  0  0  0  0999 V2000
   -1.5194   -4.0580    1.9290 C   0  0  0  0  0  0  0  0  0  0  0  0
   -0.9897   -2.6644    2.1311 C   0  0  0  0  0  0  0  0  0  0  0  0
   -1.7488   -1.7700    2.9088 C   0  0  0  0  0  0  0  0  0  0  0  0
   -1.3035   -0.4726    3.1580 C   0  0  0  0  0  0  0  0  0  0  0  0
   -0.1023   -0.0418    2.6147 C   0  0  0  0  0  0  0  0  0  0  0  0
    0.6438   -0.9081    1.8208 C   0  0  0  0  0  0  0  0  0  0  0  0
    0.2341   -2.2338    1.5777 C   0  0  0  0  0  0  0  0  0  0  0  0
    0.9990   -3.0870    0.7434 N   0  0  0  0  0  0  0  0  0  0  0  0
    2.3697   -2.9463    0.4802 C   0  0  0  0  0  0  0  0  0  0  0  0
    2.8102   -3.2751   -0.7423 N   0  0  0  0  0  0  0  0  0  0  0  0
    4.1216   -3.0787   -0.9898 C   0  0  0  0  0  0  0  0  0  0  0  0
    4.9997   -2.5471   -0.0775 C   0  0  0  0  0  0  0  0  0  0  0  0
    4.4458   -2.1841    1.1252 C   0  0  0  0  0  0  0  0  0  0  0  0
    5.1246   -1.3735    2.1258 C   0  0  0  0  0  0  0  0  0  0  0  0
    5.9851   -0.2668    2.0541 C   0  0  0  0  0  0  0  0  0  0  0  0
    6.5288    0.3889    0.8653 C   0  0  0  0  0  0  0  0  0  0  0  0
    7.7999    0.9681    0.9613 C   0  0  0  0  0  0  0  0  0  0  0  0
    8.4093    1.5305   -0.1555 C   0  0  0  0  0  0  0  0  0  0  0  0
    7.7745    1.4843   -1.3964 C   0  0  0  0  0  0  0  0  0  0  0  0
    6.5092    0.9135   -1.5291 C   0  0  0  0  0  0  0  0  0  0  0  0
    5.8577    0.7431   -2.7784 N   0  0  0  0  0  0  0  0  0  0  0  0
    6.3578    1.0806   -4.0278 C   0  0  0  0  0  0  0  0  0  0  0  0
    7.4455    1.6088   -4.2576 O   0  0  0  0  0  0  0  0  0  0  0  0
    5.4255    0.7367   -5.1834 C   0  0  0  0  0  0  0  0  0  0  0  0
    5.7221   -0.5962   -5.8310 C   0  0  0  0  0  0  0  0  0  0  0  0
    4.7111   -1.5571   -5.9714 C   0  0  0  0  0  0  0  0  0  0  0  0
    4.9734   -2.7780   -6.5978 C   0  0  0  0  0  0  0  0  0  0  0  0
    6.2453   -3.0501   -7.0976 C   0  0  0  0  0  0  0  0  0  0  0  0
    7.2541   -2.0973   -6.9804 C   0  0  0  0  0  0  0  0  0  0  0  0
    6.9935   -0.8755   -6.3562 C   0  0  0  0  0  0  0  0  0  0  0  0
    5.8640    0.4376   -0.3745 C   0  0  0  0  0  0  0  0  0  0  0  0
    6.3729    0.1610    3.3218 N   0  0  0  0  0  0  0  0  0  0  0  0
    5.7379   -0.6413    4.1230 C   0  0  0  0  0  0  0  0  0  0  0  0
    5.6594   -0.8197    5.8491 S   0  0  0  0  0  0  0  0  0  0  0  0
    4.5395   -2.1674    5.6184 C   0  0  0  0  0  0  0  0  0  0  0  0
    4.2854   -2.4253    4.3272 C   0  0  0  0  0  0  0  0  0  0  0  0
    4.9674   -1.5637    3.4848 N   0  0  0  0  0  0  0  0  0  0  0  0
    3.1633   -2.4272    1.4268 N   0  0  0  0  0  0  0  0  0  0  0  0
   -2.3416   -4.2691    2.6237 H   0  0  0  0  0  0  0  0  0  0  0  0
   -0.7441   -4.8052    2.1241 H   0  0  0  0  0  0  0  0  0  0  0  0
   -1.9020   -4.1774    0.9114 H   0  0  0  0  0  0  0  0  0  0  0  0
   -2.6960   -2.0863    3.3413 H   0  0  0  0  0  0  0  0  0  0  0  0
   -1.8934    0.2000    3.7738 H   0  0  0  0  0  0  0  0  0  0  0  0
    0.2587    0.9653    2.8012 H   0  0  0  0  0  0  0  0  0  0  0  0
    1.5670   -0.5257    1.3928 H   0  0  0  0  0  0  0  0  0  0  0  0
    0.5455   -3.2592   -0.1465 H   0  0  0  0  0  0  0  0  0  0  0  0
    4.4512   -3.3320   -1.9941 H   0  0  0  0  0  0  0  0  0  0  0  0
    6.0359   -2.3619   -0.3273 H   0  0  0  0  0  0  0  0  0  0  0  0
    8.3299    0.9773    1.9129 H   0  0  0  0  0  0  0  0  0  0  0  0
    9.3945    1.9823   -0.0691 H   0  0  0  0  0  0  0  0  0  0  0  0
    8.3090    1.9025   -2.2421 H   0  0  0  0  0  0  0  0  0  0  0  0
    4.9713    0.2540   -2.7568 H   0  0  0  0  0  0  0  0  0  0  0  0
    5.5205    1.5272   -5.9388 H   0  0  0  0  0  0  0  0  0  0  0  0
    4.3868    0.7792   -4.8355 H   0  0  0  0  0  0  0  0  0  0  0  0
    3.7049   -1.3601   -5.6091 H   0  0  0  0  0  0  0  0  0  0  0  0
    4.1816   -3.5150   -6.7055 H   0  0  0  0  0  0  0  0  0  0  0  0
    6.4478   -3.9993   -7.5870 H   0  0  0  0  0  0  0  0  0  0  0  0
    8.2443   -2.3013   -7.3812 H   0  0  0  0  0  0  0  0  0  0  0  0
    7.7937   -0.1387   -6.2892 H   0  0  0  0  0  0  0  0  0  0  0  0
    4.8411    0.0827   -0.4485 H   0  0  0  0  0  0  0  0  0  0  0  0
    4.1168   -2.7074    6.4621 H   0  0  0  0  0  0  0  0  0  0  0  0
    3.6359   -3.1889    3.9296 H   0  0  0  0  0  0  0  0  0  0  0  0
  1  2  1  0  0  0  0
  1 39  1  0  0  0  0
  1 40  1  0  0  0  0
  1 41  1  0  0  0  0
  2  3  1  0  0  0  0
  2  7  2  0  0  0  0
  3  4  2  0  0  0  0
  3 42  1  0  0  0  0
  4  5  1  0  0  0  0
  4 43  1  0  0  0  0
  5  6  2  0  0  0  0
  5 44  1  0  0  0  0
  6  7  1  0  0  0  0
  6 45  1  0  0  0  0
  7  8  1  0  0  0  0
  8  9  1  0  0  0  0
  8 46  1  0  0  0  0
  9 10  1  0  0  0  0
  9 38  2  0  0  0  0
 10 11  2  0  0  0  0
 11 12  1  0  0  0  0
 11 47  1  0  0  0  0
 12 13  2  0  0  0  0
 12 48  1  0  0  0  0
 13 14  1  0  0  0  0
 13 38  1  0  0  0  0
 14 15  2  0  0  0  0
 14 37  1  0  0  0  0
 15 16  1  0  0  0  0
 15 32  1  0  0  0  0
 16 17  1  0  0  0  0
 16 31  2  0  0  0  0
 17 18  2  0  0  0  0
 17 49  1  0  0  0  0
 18 19  1  0  0  0  0
 18 50  1  0  0  0  0
 19 20  2  0  0  0  0
 19 51  1  0  0  0  0
 20 21  1  0  0  0  0
 20 31  1  0  0  0  0
 21 22  1  0  0  0  0
 21 52  1  0  0  0  0
 22 23  2  0  0  0  0
 22 24  1  0  0  0  0
 24 25  1  0  0  0  0
 24 53  1  0  0  0  0
 24 54  1  0  0  0  0
 25 26  1  0  0  0  0
 25 30  2  0  0  0  0
 26 27  2  0  0  0  0
 26 55  1  0  0  0  0
 27 28  1  0  0  0  0
 27 56  1  0  0  0  0
 28 29  2  0  0  0  0
 28 57  1  0  0  0  0
 29 30  1  0  0  0  0
 29 58  1  0  0  0  0
 30 59  1  0  0  0  0
 31 60  1  0  0  0  0
 32 33  2  0  0  0  0
 33 34  1  0  0  0  0
 33 37  1  0  0  0  0
 34 35  1  0  0  0  0
 35 36  2  0  0  0  0
 35 61  1  0  0  0  0
 36 37  1  0  0  0  0
 36 62  1  0  0  0  0
M  END
$$$$
