CHEMBL3612325
 OpenBabel04072215363D

 44 47  0  0  0  0  0  0  0  0999 V2000
    1.2318    0.6920   -0.1054 O   0  0  0  0  0  0  0  0  0  0  0  0
    2.3082    0.1198    0.0221 C   0  0  0  0  0  0  0  0  0  0  0  0
    2.8300   -0.7686   -0.9075 N   0  0  0  0  0  0  0  0  0  0  0  0
    2.1917   -1.1659   -2.1074 C   0  0  0  0  0  0  0  0  0  0  0  0
    1.1017   -0.4876   -2.6592 C   0  0  0  0  0  0  0  0  0  0  0  0
    0.4434   -0.9810   -3.7894 C   0  0  0  0  0  0  0  0  0  0  0  0
    0.8891   -2.1480   -4.4101 C   0  0  0  0  0  0  0  0  0  0  0  0
   -0.0045   -2.8223   -5.7958 S   0  0  0  0  0  0  0  0  0  0  0  0
    0.8432   -2.0809   -7.1707 C   0  0  0  0  0  0  0  0  0  0  0  0
    0.8079   -0.7031   -7.3864 C   0  0  0  0  0  0  0  0  0  0  0  0
    1.4409   -0.1799   -8.4958 C   0  0  0  0  0  0  0  0  0  0  0  0
    2.1055   -0.8963   -9.4171 N   0  0  0  0  0  0  0  0  0  0  0  0
    2.1362   -2.2406   -9.2143 C   0  0  0  0  0  0  0  0  0  0  0  0
    2.7869   -3.1668  -10.0808 C   0  0  0  0  0  0  0  0  0  0  0  0
    2.6674   -4.4658   -9.6483 C   0  0  0  0  0  0  0  0  0  0  0  0
    1.7661   -4.5757   -8.2032 S   0  0  0  0  0  0  0  0  0  0  0  0
    1.5251   -2.8655   -8.1223 C   0  0  0  0  0  0  0  0  0  0  0  0
    2.0027   -2.8090   -3.8908 C   0  0  0  0  0  0  0  0  0  0  0  0
    2.6570   -2.3168   -2.7521 C   0  0  0  0  0  0  0  0  0  0  0  0
    3.1332    0.2535    1.1274 N   0  0  0  0  0  0  0  0  0  0  0  0
    2.8418    0.9776    2.3085 C   0  0  0  0  0  0  0  0  0  0  0  0
    1.6411    1.6591    2.5281 C   0  0  0  0  0  0  0  0  0  0  0  0
    1.4096    2.3471    3.7208 C   0  0  0  0  0  0  0  0  0  0  0  0
    2.3731    2.3499    4.7221 C   0  0  0  0  0  0  0  0  0  0  0  0
    3.5791    1.6621    4.5383 C   0  0  0  0  0  0  0  0  0  0  0  0
    4.6166    1.6168    5.6309 C   0  0  0  0  0  0  0  0  0  0  0  0
    4.2633    2.3045    6.7521 F   0  0  0  0  0  0  0  0  0  0  0  0
    4.8772    0.3443    6.0404 F   0  0  0  0  0  0  0  0  0  0  0  0
    5.8129    2.1330    5.2354 F   0  0  0  0  0  0  0  0  0  0  0  0
    3.8083    0.9877    3.3217 C   0  0  0  0  0  0  0  0  0  0  0  0
    3.6157   -1.3283   -0.6132 H   0  0  0  0  0  0  0  0  0  0  0  0
    0.7213    0.4324   -2.2268 H   0  0  0  0  0  0  0  0  0  0  0  0
   -0.4298   -0.4485   -4.1576 H   0  0  0  0  0  0  0  0  0  0  0  0
    0.2863   -0.0389   -6.7059 H   0  0  0  0  0  0  0  0  0  0  0  0
    1.4214    0.8914   -8.6821 H   0  0  0  0  0  0  0  0  0  0  0  0
    3.3166   -2.8776  -10.9790 H   0  0  0  0  0  0  0  0  0  0  0  0
    3.0655   -5.3569  -10.1143 H   0  0  0  0  0  0  0  0  0  0  0  0
    2.3547   -3.7293   -4.3511 H   0  0  0  0  0  0  0  0  0  0  0  0
    3.5051   -2.8731   -2.3619 H   0  0  0  0  0  0  0  0  0  0  0  0
    4.0441   -0.1745    1.0728 H   0  0  0  0  0  0  0  0  0  0  0  0
    0.8452    1.6801    1.7911 H   0  0  0  0  0  0  0  0  0  0  0  0
    0.4675    2.8721    3.8619 H   0  0  0  0  0  0  0  0  0  0  0  0
    2.1736    2.8854    5.6490 H   0  0  0  0  0  0  0  0  0  0  0  0
    4.7500    0.4588    3.1879 H   0  0  0  0  0  0  0  0  0  0  0  0
  1  2  2  0  0  0  0
  2  3  1  0  0  0  0
  2 20  1  0  0  0  0
  3  4  1  0  0  0  0
  3 31  1  0  0  0  0
  4  5  1  0  0  0  0
  4 19  2  0  0  0  0
  5  6  2  0  0  0  0
  5 32  1  0  0  0  0
  6  7  1  0  0  0  0
  6 33  1  0  0  0  0
  7  8  1  0  0  0  0
  7 18  2  0  0  0  0
  8  9  1  0  0  0  0
  9 10  1  0  0  0  0
  9 17  2  0  0  0  0
 10 11  2  0  0  0  0
 10 34  1  0  0  0  0
 11 12  1  0  0  0  0
 11 35  1  0  0  0  0
 12 13  2  0  0  0  0
 13 14  1  0  0  0  0
 13 17  1  0  0  0  0
 14 15  2  0  0  0  0
 14 36  1  0  0  0  0
 15 16  1  0  0  0  0
 15 37  1  0  0  0  0
 16 17  1  0  0  0  0
 18 19  1  0  0  0  0
 18 38  1  0  0  0  0
 19 39  1  0  0  0  0
 20 21  1  0  0  0  0
 20 40  1  0  0  0  0
 21 22  1  0  0  0  0
 21 30  2  0  0  0  0
 22 23  2  0  0  0  0
 22 41  1  0  0  0  0
 23 24  1  0  0  0  0
 23 42  1  0  0  0  0
 24 25  2  0  0  0  0
 24 43  1  0  0  0  0
 25 26  1  0  0  0  0
 25 30  1  0  0  0  0
 26 27  1  0  0  0  0
 26 28  1  0  0  0  0
 26 29  1  0  0  0  0
 30 44  1  0  0  0  0
M  END
$$$$
