CHEMBL3809144
 OpenBabel04072215373D

 52 57  0  0  0  0  0  0  0  0999 V2000
    4.2150   -1.9582    0.0462 C   0  0  0  0  0  0  0  0  0  0  0  0
    4.3365   -1.7597    1.5380 C   0  0  0  0  0  0  0  0  0  0  0  0
    3.4648   -0.6748    2.1786 C   0  0  0  0  0  0  0  0  0  0  0  0
    3.3291   -0.3438    3.5101 C   0  0  0  0  0  0  0  0  0  0  0  0
    2.5631    0.8476    3.5193 C   0  0  0  0  0  0  0  0  0  0  0  0
    2.2846    1.5943    4.6444 N   0  0  0  0  0  0  0  0  0  0  0  0
    1.6214    2.8030    4.6083 C   0  0  0  0  0  0  0  0  0  0  0  0
    1.1343    3.3459    3.6191 O   0  0  0  0  0  0  0  0  0  0  0  0
    1.4609    3.4506    5.9107 C   0  0  0  0  0  0  0  0  0  0  0  0
    0.3494    4.2868    6.2378 C   0  0  0  0  0  0  0  0  0  0  0  0
    0.5246    4.7611    7.5125 C   0  0  0  0  0  0  0  0  0  0  0  0
    1.7186    4.2808    7.9900 N   0  0  0  0  0  0  0  0  0  0  0  0
    2.2939    4.5420    9.2265 C   0  0  0  0  0  0  0  0  0  0  0  0
    3.4921    4.0148    9.5281 C   0  0  0  0  0  0  0  0  0  0  0  0
    4.1177    4.3211   10.7264 O   0  0  0  0  0  0  0  0  0  0  0  0
    4.9480    3.3945   11.3306 C   0  0  0  0  0  0  0  0  0  0  0  0
    4.7395    2.0744   11.1407 N   0  0  0  0  0  0  0  0  0  0  0  0
    5.6068    1.2450   11.7521 C   0  0  0  0  0  0  0  0  0  0  0  0
    6.6316    1.6031   12.5436 N   0  0  0  0  0  0  0  0  0  0  0  0
    6.7555    2.9266   12.7077 C   0  0  0  0  0  0  0  0  0  0  0  0
    5.9433    3.8652   12.1328 C   0  0  0  0  0  0  0  0  0  0  0  0
    6.3580    5.2316   12.5084 C   0  0  0  0  0  0  0  0  0  0  0  0
    7.5437    5.0806   13.3902 N   0  0  0  0  0  0  0  0  0  0  0  0
    7.7958    3.6209   13.5373 C   0  0  0  0  0  0  0  0  0  0  0  0
    4.1810    3.2362    8.5019 C   0  0  0  0  0  0  0  0  0  0  0  0
    3.6146    2.9728    7.3078 C   0  0  0  0  0  0  0  0  0  0  0  0
    2.3133    3.4843    7.0092 C   0  0  0  0  0  0  0  0  0  0  0  0
    2.1749    1.1689    2.2868 N   0  0  0  0  0  0  0  0  0  0  0  0
    2.7022    0.2296    1.5025 N   0  0  0  0  0  0  0  0  0  0  0  0
    5.7192   -1.9139    2.1630 C   0  0  0  0  0  0  0  0  0  0  0  0
    4.7003   -2.9805    2.3687 C   0  0  0  0  0  0  0  0  0  0  0  0
    4.0922   -1.0064   -0.4797 H   0  0  0  0  0  0  0  0  0  0  0  0
    3.3482   -2.5889   -0.1804 H   0  0  0  0  0  0  0  0  0  0  0  0
    5.1031   -2.4421   -0.3737 H   0  0  0  0  0  0  0  0  0  0  0  0
    3.7818   -0.8479    4.3514 H   0  0  0  0  0  0  0  0  0  0  0  0
    2.5796    1.2213    5.5315 H   0  0  0  0  0  0  0  0  0  0  0  0
   -0.4837    4.5107    5.5795 H   0  0  0  0  0  0  0  0  0  0  0  0
   -0.0894    5.4196    8.1123 H   0  0  0  0  0  0  0  0  0  0  0  0
    1.7473    5.1821    9.9077 H   0  0  0  0  0  0  0  0  0  0  0  0
    5.4677    0.1832   11.5784 H   0  0  0  0  0  0  0  0  0  0  0  0
    5.5563    5.7480   13.0468 H   0  0  0  0  0  0  0  0  0  0  0  0
    6.6381    5.8152   11.6263 H   0  0  0  0  0  0  0  0  0  0  0  0
    7.3193    5.4617   14.3084 H   0  0  0  0  0  0  0  0  0  0  0  0
    7.6991    3.3231   14.5862 H   0  0  0  0  0  0  0  0  0  0  0  0
    8.7996    3.3792   13.1759 H   0  0  0  0  0  0  0  0  0  0  0  0
    5.1830    2.8730    8.7058 H   0  0  0  0  0  0  0  0  0  0  0  0
    4.1712    2.4089    6.5685 H   0  0  0  0  0  0  0  0  0  0  0  0
    2.5530    0.3132    0.5026 H   0  0  0  0  0  0  0  0  0  0  0  0
    5.9865   -1.2889    3.0083 H   0  0  0  0  0  0  0  0  0  0  0  0
    6.5587   -2.1148    1.5071 H   0  0  0  0  0  0  0  0  0  0  0  0
    4.2730   -3.0996    3.3573 H   0  0  0  0  0  0  0  0  0  0  0  0
    4.8556   -3.9258    1.8588 H   0  0  0  0  0  0  0  0  0  0  0  0
  1  2  1  0  0  0  0
  1 32  1  0  0  0  0
  1 33  1  0  0  0  0
  1 34  1  0  0  0  0
  2  3  1  0  0  0  0
  2 30  1  0  0  0  0
  2 31  1  0  0  0  0
  3  4  2  0  0  0  0
  3 29  1  0  0  0  0
  4  5  1  0  0  0  0
  4 35  1  0  0  0  0
  5  6  1  0  0  0  0
  5 28  2  0  0  0  0
  6  7  1  0  0  0  0
  6 36  1  0  0  0  0
  7  8  2  0  0  0  0
  7  9  1  0  0  0  0
  9 10  1  0  0  0  0
  9 27  2  0  0  0  0
 10 11  2  0  0  0  0
 10 37  1  0  0  0  0
 11 12  1  0  0  0  0
 11 38  1  0  0  0  0
 12 13  1  0  0  0  0
 12 27  1  0  0  0  0
 13 14  2  0  0  0  0
 13 39  1  0  0  0  0
 14 15  1  0  0  0  0
 14 25  1  0  0  0  0
 15 16  1  0  0  0  0
 16 17  1  0  0  0  0
 16 21  2  0  0  0  0
 17 18  2  0  0  0  0
 18 19  1  0  0  0  0
 18 40  1  0  0  0  0
 19 20  2  0  0  0  0
 20 21  1  0  0  0  0
 20 24  1  0  0  0  0
 21 22  1  0  0  0  0
 22 23  1  0  0  0  0
 22 41  1  0  0  0  0
 22 42  1  0  0  0  0
 23 24  1  0  0  0  0
 23 43  1  0  0  0  0
 24 44  1  0  0  0  0
 24 45  1  0  0  0  0
 25 26  2  0  0  0  0
 25 46  1  0  0  0  0
 26 27  1  0  0  0  0
 26 47  1  0  0  0  0
 28 29  1  0  0  0  0
 29 48  1  0  0  0  0
 30 31  1  0  0  0  0
 30 49  1  0  0  0  0
 30 50  1  0  0  0  0
 31 51  1  0  0  0  0
 31 52  1  0  0  0  0
M  END
$$$$
