CHEMBL205413
 OpenBabel04072215363D

 45 48  0  0  0  0  0  0  0  0999 V2000
    1.9506   -0.6143   -0.6774 O   0  0  0  0  0  0  0  0  0  0  0  0
    2.1033    0.1189    0.2909 C   0  0  0  0  0  0  0  0  0  0  0  0
    1.4827   -0.0541    1.5266 N   0  0  0  0  0  0  0  0  0  0  0  0
    0.5329   -1.0472    1.8654 C   0  0  0  0  0  0  0  0  0  0  0  0
    0.1208   -2.0510    0.9897 C   0  0  0  0  0  0  0  0  0  0  0  0
   -0.7855   -3.0383    1.3923 C   0  0  0  0  0  0  0  0  0  0  0  0
   -1.3067   -3.0326    2.6823 C   0  0  0  0  0  0  0  0  0  0  0  0
   -2.2030   -3.9410    3.1672 O   0  0  0  0  0  0  0  0  0  0  0  0
   -2.0686   -5.2791    2.6882 C   0  0  0  0  0  0  0  0  0  0  0  0
   -2.3876   -5.3449    1.3721 F   0  0  0  0  0  0  0  0  0  0  0  0
   -0.7866   -5.6975    2.8361 F   0  0  0  0  0  0  0  0  0  0  0  0
   -3.1498   -6.3434    3.5966 Cl  0  0  0  0  0  0  0  0  0  0  0  0
   -0.9519   -1.9964    3.5474 C   0  0  0  0  0  0  0  0  0  0  0  0
   -0.0279   -1.0193    3.1482 C   0  0  0  0  0  0  0  0  0  0  0  0
    3.0035    1.3164    0.1515 C   0  0  0  0  0  0  0  0  0  0  0  0
    2.7174    2.4531    0.9394 C   0  0  0  0  0  0  0  0  0  0  0  0
    3.4931    3.6089    0.8576 C   0  0  0  0  0  0  0  0  0  0  0  0
    4.5732    3.6519   -0.0098 C   0  0  0  0  0  0  0  0  0  0  0  0
    4.8505    2.5554   -0.8249 C   0  0  0  0  0  0  0  0  0  0  0  0
    4.0593    1.3832   -0.7935 C   0  0  0  0  0  0  0  0  0  0  0  0
    4.3719    0.3284   -1.8468 C   0  0  0  0  0  0  0  0  0  0  0  0
    5.4686   -0.5859   -1.4659 N   0  0  0  0  0  0  0  0  0  0  0  0
    5.1925   -1.8424   -0.9107 C   0  0  0  0  0  0  0  0  0  0  0  0
    6.1103   -2.7758   -0.6075 C   0  0  0  0  0  0  0  0  0  0  0  0
    7.5008   -2.4191   -0.8967 C   0  0  0  0  0  0  0  0  0  0  0  0
    8.6070   -3.0671   -0.7138 N   0  0  0  0  0  0  0  0  0  0  0  0
    9.5711   -2.1957   -1.2117 C   0  0  0  0  0  0  0  0  0  0  0  0
    9.1572   -1.0583   -1.6988 N   0  0  0  0  0  0  0  0  0  0  0  0
    7.8081   -1.1279   -1.5170 C   0  0  0  0  0  0  0  0  0  0  0  0
    6.8029   -0.2913   -1.7785 C   0  0  0  0  0  0  0  0  0  0  0  0
    1.7474    0.5629    2.2827 H   0  0  0  0  0  0  0  0  0  0  0  0
    0.4886   -2.1091   -0.0288 H   0  0  0  0  0  0  0  0  0  0  0  0
   -1.0641   -3.7823    0.6534 H   0  0  0  0  0  0  0  0  0  0  0  0
   -1.3826   -1.9548    4.5453 H   0  0  0  0  0  0  0  0  0  0  0  0
    0.2319   -0.2367    3.8576 H   0  0  0  0  0  0  0  0  0  0  0  0
    1.8518    2.4845    1.5955 H   0  0  0  0  0  0  0  0  0  0  0  0
    3.2423    4.4785    1.4601 H   0  0  0  0  0  0  0  0  0  0  0  0
    5.1828    4.5496   -0.0791 H   0  0  0  0  0  0  0  0  0  0  0  0
    5.6829    2.6330   -1.5229 H   0  0  0  0  0  0  0  0  0  0  0  0
    4.6589    0.8560   -2.7692 H   0  0  0  0  0  0  0  0  0  0  0  0
    3.4920   -0.2304   -2.1710 H   0  0  0  0  0  0  0  0  0  0  0  0
    4.1356   -2.0367   -0.7451 H   0  0  0  0  0  0  0  0  0  0  0  0
    5.8818   -3.7443   -0.1906 H   0  0  0  0  0  0  0  0  0  0  0  0
   10.6377   -2.4742   -1.1851 H   0  0  0  0  0  0  0  0  0  0  0  0
    6.9835    0.6650   -2.2553 H   0  0  0  0  0  0  0  0  0  0  0  0
  1  2  2  0  0  0  0
  2  3  1  0  0  0  0
  2 15  1  0  0  0  0
  3  4  1  0  0  0  0
  3 31  1  0  0  0  0
  4  5  1  0  0  0  0
  4 14  2  0  0  0  0
  5  6  2  0  0  0  0
  5 32  1  0  0  0  0
  6  7  1  0  0  0  0
  6 33  1  0  0  0  0
  7  8  1  0  0  0  0
  7 13  2  0  0  0  0
  8  9  1  0  0  0  0
  9 10  1  0  0  0  0
  9 11  1  0  0  0  0
  9 12  1  0  0  0  0
 13 14  1  0  0  0  0
 13 34  1  0  0  0  0
 14 35  1  0  0  0  0
 15 16  1  0  0  0  0
 15 20  2  0  0  0  0
 16 17  2  0  0  0  0
 16 36  1  0  0  0  0
 17 18  1  0  0  0  0
 17 37  1  0  0  0  0
 18 19  2  0  0  0  0
 18 38  1  0  0  0  0
 19 20  1  0  0  0  0
 19 39  1  0  0  0  0
 20 21  1  0  0  0  0
 21 22  1  0  0  0  0
 21 40  1  0  0  0  0
 21 41  1  0  0  0  0
 22 23  1  0  0  0  0
 22 30  1  0  0  0  0
 23 24  2  0  0  0  0
 23 42  1  0  0  0  0
 24 25  1  0  0  0  0
 24 43  1  0  0  0  0
 25 26  2  0  0  0  0
 25 29  1  0  0  0  0
 26 27  1  0  0  0  0
 27 28  2  0  0  0  0
 27 44  1  0  0  0  0
 28 29  1  0  0  0  0
 29 30  2  0  0  0  0
 30 45  1  0  0  0  0
M  END
$$$$
