CHEMBL146694
 OpenBabel04072215363D

 55 58  0  0  0  0  0  0  0  0999 V2000
    5.8738    0.6367    2.0860 C   0  0  0  0  0  0  0  0  0  0  0  0
    5.4052    0.3418    0.7745 O   0  0  0  0  0  0  0  0  0  0  0  0
    4.5565    1.2464    0.1820 C   0  0  0  0  0  0  0  0  0  0  0  0
    4.0294    2.3557    0.8591 C   0  0  0  0  0  0  0  0  0  0  0  0
    3.1591    3.2467    0.2324 C   0  0  0  0  0  0  0  0  0  0  0  0
    2.8220    3.0574   -1.0971 C   0  0  0  0  0  0  0  0  0  0  0  0
    3.3445    1.9640   -1.7835 C   0  0  0  0  0  0  0  0  0  0  0  0
    4.1917    1.0118   -1.1661 C   0  0  0  0  0  0  0  0  0  0  0  0
    4.6001   -0.1864   -1.9519 C   0  0  0  0  0  0  0  0  0  0  0  0
    3.6693   -0.7589   -2.8636 C   0  0  0  0  0  0  0  0  0  0  0  0
    3.9696   -1.8671   -3.6513 C   0  0  0  0  0  0  0  0  0  0  0  0
    5.2148   -2.4380   -3.5108 C   0  0  0  0  0  0  0  0  0  0  0  0
    6.1493   -1.8924   -2.6326 C   0  0  0  0  0  0  0  0  0  0  0  0
    5.8728   -0.7841   -1.8501 C   0  0  0  0  0  0  0  0  0  0  0  0
    7.3375   -2.6164   -2.6915 N   0  0  0  0  0  0  0  0  0  0  0  0
    7.2421   -3.6734   -3.5906 C   0  0  0  0  0  0  0  0  0  0  0  0
    8.1217   -4.4630   -3.8825 O   0  0  0  0  0  0  0  0  0  0  0  0
    5.8298   -3.6218   -4.1216 C   0  0  0  0  0  0  0  0  0  0  0  0
    5.1139   -4.4351   -4.9153 C   0  0  0  0  0  0  0  0  0  0  0  0
    5.4694   -5.6736   -5.5096 C   0  0  0  0  0  0  0  0  0  0  0  0
    6.7146   -6.2131   -5.3612 N   0  0  0  0  0  0  0  0  0  0  0  0
    6.7871   -7.4359   -5.9787 C   0  0  0  0  0  0  0  0  0  0  0  0
    8.0500   -8.2139   -5.9003 C   0  0  0  0  0  0  0  0  0  0  0  0
    5.5671   -7.6810   -6.5963 C   0  0  0  0  0  0  0  0  0  0  0  0
    5.1925   -8.8725   -7.4420 C   0  0  0  0  0  0  0  0  0  0  0  0
    5.2222  -10.1872   -6.6712 C   0  0  0  0  0  0  0  0  0  0  0  0
    4.7883  -11.3570   -7.5214 C   0  0  0  0  0  0  0  0  0  0  0  0
    4.4307  -11.3011   -8.6832 O   0  0  0  0  0  0  0  0  0  0  0  0
    4.8452  -12.5240   -6.8318 O   0  0  0  0  0  0  0  0  0  0  0  0
    4.7228   -6.5575   -6.2844 C   0  0  0  0  0  0  0  0  0  0  0  0
    3.3004   -6.3560   -6.6979 C   0  0  0  0  0  0  0  0  0  0  0  0
    6.6208   -0.1166    2.3536 H   0  0  0  0  0  0  0  0  0  0  0  0
    5.0544    0.5674    2.8078 H   0  0  0  0  0  0  0  0  0  0  0  0
    6.3645    1.6154    2.1319 H   0  0  0  0  0  0  0  0  0  0  0  0
    4.2655    2.5520    1.9033 H   0  0  0  0  0  0  0  0  0  0  0  0
    2.7448    4.0861    0.7849 H   0  0  0  0  0  0  0  0  0  0  0  0
    2.1468    3.7432   -1.6004 H   0  0  0  0  0  0  0  0  0  0  0  0
    3.0660    1.8536   -2.8308 H   0  0  0  0  0  0  0  0  0  0  0  0
    2.6699   -0.3392   -2.9648 H   0  0  0  0  0  0  0  0  0  0  0  0
    3.2304   -2.2525   -4.3431 H   0  0  0  0  0  0  0  0  0  0  0  0
    6.6254   -0.3960   -1.1726 H   0  0  0  0  0  0  0  0  0  0  0  0
    8.1775   -2.4054   -2.1740 H   0  0  0  0  0  0  0  0  0  0  0  0
    4.0872   -4.1487   -5.1187 H   0  0  0  0  0  0  0  0  0  0  0  0
    7.4820   -5.7803   -4.8545 H   0  0  0  0  0  0  0  0  0  0  0  0
    8.7974   -7.6970   -5.2872 H   0  0  0  0  0  0  0  0  0  0  0  0
    8.4745   -8.3644   -6.8962 H   0  0  0  0  0  0  0  0  0  0  0  0
    7.8749   -9.1869   -5.4344 H   0  0  0  0  0  0  0  0  0  0  0  0
    5.8637   -8.9190   -8.3085 H   0  0  0  0  0  0  0  0  0  0  0  0
    4.1890   -8.7394   -7.8610 H   0  0  0  0  0  0  0  0  0  0  0  0
    4.5540  -10.1297   -5.8048 H   0  0  0  0  0  0  0  0  0  0  0  0
    6.2374  -10.3978   -6.3250 H   0  0  0  0  0  0  0  0  0  0  0  0
    5.1521  -12.4160   -5.9107 H   0  0  0  0  0  0  0  0  0  0  0  0
    2.9235   -7.1669   -7.3242 H   0  0  0  0  0  0  0  0  0  0  0  0
    3.1940   -5.4269   -7.2675 H   0  0  0  0  0  0  0  0  0  0  0  0
    2.6536   -6.2983   -5.8159 H   0  0  0  0  0  0  0  0  0  0  0  0
  1  2  1  0  0  0  0
  1 32  1  0  0  0  0
  1 33  1  0  0  0  0
  1 34  1  0  0  0  0
  2  3  1  0  0  0  0
  3  4  1  0  0  0  0
  3  8  2  0  0  0  0
  4  5  2  0  0  0  0
  4 35  1  0  0  0  0
  5  6  1  0  0  0  0
  5 36  1  0  0  0  0
  6  7  2  0  0  0  0
  6 37  1  0  0  0  0
  7  8  1  0  0  0  0
  7 38  1  0  0  0  0
  8  9  1  0  0  0  0
  9 10  1  0  0  0  0
  9 14  2  0  0  0  0
 10 11  2  0  0  0  0
 10 39  1  0  0  0  0
 11 12  1  0  0  0  0
 11 40  1  0  0  0  0
 12 13  2  0  0  0  0
 12 18  1  0  0  0  0
 13 14  1  0  0  0  0
 13 15  1  0  0  0  0
 14 41  1  0  0  0  0
 15 16  1  0  0  0  0
 15 42  1  0  0  0  0
 16 17  2  0  0  0  0
 16 18  1  0  0  0  0
 18 19  2  0  0  0  0
 19 20  1  0  0  0  0
 19 43  1  0  0  0  0
 20 21  1  0  0  0  0
 20 30  2  0  0  0  0
 21 22  1  0  0  0  0
 21 44  1  0  0  0  0
 22 23  1  0  0  0  0
 22 24  2  0  0  0  0
 23 45  1  0  0  0  0
 23 46  1  0  0  0  0
 23 47  1  0  0  0  0
 24 25  1  0  0  0  0
 24 30  1  0  0  0  0
 25 26  1  0  0  0  0
 25 48  1  0  0  0  0
 25 49  1  0  0  0  0
 26 27  1  0  0  0  0
 26 50  1  0  0  0  0
 26 51  1  0  0  0  0
 27 28  2  0  0  0  0
 27 29  1  0  0  0  0
 29 52  1  0  0  0  0
 30 31  1  0  0  0  0
 31 53  1  0  0  0  0
 31 54  1  0  0  0  0
 31 55  1  0  0  0  0
M  END
$$$$
