CHEMBL184223
 OpenBabel04072215363D

 50 53  0  0  0  0  0  0  0  0999 V2000
    2.0008   -0.0612    0.7377 C   0  0  0  0  0  0  0  0  0  0  0  0
    2.2665   -0.6921   -0.5059 O   0  0  0  0  0  0  0  0  0  0  0  0
    3.0969   -0.0675   -1.3860 C   0  0  0  0  0  0  0  0  0  0  0  0
    2.8166   -0.3990   -2.7184 C   0  0  0  0  0  0  0  0  0  0  0  0
    3.5842    0.0927   -3.7922 C   0  0  0  0  0  0  0  0  0  0  0  0
    4.6905    0.9293   -3.5877 C   0  0  0  0  0  0  0  0  0  0  0  0
    5.5011    1.4174   -4.7299 C   0  0  0  0  0  0  0  0  0  0  0  0
    5.9986    2.7228   -4.7463 C   0  0  0  0  0  0  0  0  0  0  0  0
    6.8290    3.1890   -5.7650 C   0  0  0  0  0  0  0  0  0  0  0  0
    7.1457    2.3937   -6.8616 C   0  0  0  0  0  0  0  0  0  0  0  0
    7.9412    2.8639   -7.9354 N   0  0  0  0  0  0  0  0  0  0  0  0
    8.6455    4.0601   -7.9377 C   0  0  0  0  0  0  0  0  0  0  0  0
    8.7967    4.7876   -6.9634 O   0  0  0  0  0  0  0  0  0  0  0  0
    9.1329    4.3756   -9.1994 N   0  0  0  0  0  0  0  0  0  0  0  0
    9.8433    5.5849   -9.4051 C   0  0  0  0  0  0  0  0  0  0  0  0
    9.5190    6.3768  -10.5063 C   0  0  0  0  0  0  0  0  0  0  0  0
   10.1321    7.6208  -10.6727 C   0  0  0  0  0  0  0  0  0  0  0  0
   11.1009    8.0586   -9.7670 C   0  0  0  0  0  0  0  0  0  0  0  0
   11.4653    7.2577   -8.6812 C   0  0  0  0  0  0  0  0  0  0  0  0
   12.5111    7.7049   -7.7024 C   0  0  0  0  0  0  0  0  0  0  0  0
   10.8295    6.0205   -8.5087 C   0  0  0  0  0  0  0  0  0  0  0  0
    6.6095    1.1048   -6.9078 C   0  0  0  0  0  0  0  0  0  0  0  0
    5.8105    0.6208   -5.8493 C   0  0  0  0  0  0  0  0  0  0  0  0
    4.9660    1.2510   -2.2465 C   0  0  0  0  0  0  0  0  0  0  0  0
    4.1830    0.7656   -1.1685 C   0  0  0  0  0  0  0  0  0  0  0  0
    4.8129    1.2821    0.0704 C   0  0  0  0  0  0  0  0  0  0  0  0
    4.4515    1.1645    1.2208 O   0  0  0  0  0  0  0  0  0  0  0  0
    5.9324    1.9866   -0.2964 N   0  0  0  0  0  0  0  0  0  0  0  0
    6.0946    2.0827   -1.7110 C   0  0  0  0  0  0  0  0  0  0  0  0
    1.0609   -0.4739    1.1190 H   0  0  0  0  0  0  0  0  0  0  0  0
    1.8663    1.0199    0.6343 H   0  0  0  0  0  0  0  0  0  0  0  0
    2.7655   -0.3246    1.4700 H   0  0  0  0  0  0  0  0  0  0  0  0
    1.9745   -1.0588   -2.9322 H   0  0  0  0  0  0  0  0  0  0  0  0
    3.2844   -0.1942   -4.7993 H   0  0  0  0  0  0  0  0  0  0  0  0
    5.7434    3.4366   -3.9706 H   0  0  0  0  0  0  0  0  0  0  0  0
    7.1905    4.2053   -5.6582 H   0  0  0  0  0  0  0  0  0  0  0  0
    8.1239    2.2289   -8.6982 H   0  0  0  0  0  0  0  0  0  0  0  0
    8.5466    4.0696   -9.9614 H   0  0  0  0  0  0  0  0  0  0  0  0
    8.7439    6.0740  -11.2030 H   0  0  0  0  0  0  0  0  0  0  0  0
    9.8387    8.2629  -11.4987 H   0  0  0  0  0  0  0  0  0  0  0  0
   11.5627    9.0329   -9.9103 H   0  0  0  0  0  0  0  0  0  0  0  0
   12.8611    8.7189   -7.9236 H   0  0  0  0  0  0  0  0  0  0  0  0
   13.3756    7.0342   -7.7419 H   0  0  0  0  0  0  0  0  0  0  0  0
   12.1053    7.7083   -6.6851 H   0  0  0  0  0  0  0  0  0  0  0  0
   11.1000    5.4017   -7.6558 H   0  0  0  0  0  0  0  0  0  0  0  0
    6.8035    0.4504   -7.7535 H   0  0  0  0  0  0  0  0  0  0  0  0
    5.4376   -0.4003   -5.9143 H   0  0  0  0  0  0  0  0  0  0  0  0
    6.4732    2.4951    0.3906 H   0  0  0  0  0  0  0  0  0  0  0  0
    7.0761    1.6898   -1.9835 H   0  0  0  0  0  0  0  0  0  0  0  0
    6.0013    3.1420   -1.9588 H   0  0  0  0  0  0  0  0  0  0  0  0
  1  2  1  0  0  0  0
  1 30  1  0  0  0  0
  1 31  1  0  0  0  0
  1 32  1  0  0  0  0
  2  3  1  0  0  0  0
  3  4  1  0  0  0  0
  3 25  2  0  0  0  0
  4  5  2  0  0  0  0
  4 33  1  0  0  0  0
  5  6  1  0  0  0  0
  5 34  1  0  0  0  0
  6  7  1  0  0  0  0
  6 24  2  0  0  0  0
  7  8  1  0  0  0  0
  7 23  2  0  0  0  0
  8  9  2  0  0  0  0
  8 35  1  0  0  0  0
  9 10  1  0  0  0  0
  9 36  1  0  0  0  0
 10 11  1  0  0  0  0
 10 22  2  0  0  0  0
 11 12  1  0  0  0  0
 11 37  1  0  0  0  0
 12 13  2  0  0  0  0
 12 14  1  0  0  0  0
 14 15  1  0  0  0  0
 14 38  1  0  0  0  0
 15 16  1  0  0  0  0
 15 21  2  0  0  0  0
 16 17  2  0  0  0  0
 16 39  1  0  0  0  0
 17 18  1  0  0  0  0
 17 40  1  0  0  0  0
 18 19  2  0  0  0  0
 18 41  1  0  0  0  0
 19 20  1  0  0  0  0
 19 21  1  0  0  0  0
 20 42  1  0  0  0  0
 20 43  1  0  0  0  0
 20 44  1  0  0  0  0
 21 45  1  0  0  0  0
 22 23  1  0  0  0  0
 22 46  1  0  0  0  0
 23 47  1  0  0  0  0
 24 25  1  0  0  0  0
 24 29  1  0  0  0  0
 25 26  1  0  0  0  0
 26 27  2  0  0  0  0
 26 28  1  0  0  0  0
 28 29  1  0  0  0  0
 28 48  1  0  0  0  0
 29 49  1  0  0  0  0
 29 50  1  0  0  0  0
M  END
$$$$
