CHEMBL2071216
 OpenBabel04072215363D

 46 49  0  0  1  0  0  0  0  0999 V2000
   -8.9765   13.5147   -4.2408 C   0  0  0  0  0  0  0  0  0  0  0  0
   -8.0747   14.1201   -3.1822 C   0  0  0  0  0  0  0  0  0  0  0  0
   -6.8999   13.3030   -2.9500 N   0  0  0  0  0  0  0  0  0  0  0  0
   -5.6941   13.4025   -3.5867 C   0  0  0  0  0  0  0  0  0  0  0  0
   -4.8925   12.4390   -3.0249 C   0  0  0  0  0  0  0  0  0  0  0  0
   -3.6020   12.2273   -3.3506 N   0  0  0  0  0  0  0  0  0  0  0  0
   -2.6417   11.4244   -2.7287 C   0  0  0  0  0  0  0  0  0  0  0  0
   -1.3723   11.6536   -3.0944 N   0  0  0  0  0  0  0  0  0  0  0  0
   -0.4226   10.9529   -2.4403 C   0  0  0  0  0  0  0  0  0  0  0  0
   -0.6919   10.0271   -1.4577 C   0  0  0  0  0  0  0  0  0  0  0  0
    0.5851    9.1606   -0.7019 Cl  0  0  0  0  0  0  0  0  0  0  0  0
   -2.0315    9.8128   -1.1685 C   0  0  0  0  0  0  0  0  0  0  0  0
   -2.4126    8.9544   -0.1205 N   0  0  0  0  0  0  0  0  0  0  0  0
   -3.7899    8.4514   -0.1531 C   0  0  1  0  0  0  0  0  0  0  0  0
   -3.9917    7.0685   -0.8627 C   0  0  1  0  0  0  0  0  0  0  0  0
   -2.7406    6.4028   -1.4027 C   0  0  0  0  0  0  0  0  0  0  0  0
   -2.3490    6.8059   -2.6439 N   0  0  0  0  0  0  0  0  0  0  0  0
   -2.0768    5.5729   -0.7920 O   0  0  0  0  0  0  0  0  0  0  0  0
   -4.6321    6.2111    0.2617 C   0  0  2  0  0  0  0  0  0  0  0  0
   -6.0000    6.7890    0.5654 C   0  0  0  0  0  0  0  0  0  0  0  0
   -5.8040    7.9574    1.1962 C   0  0  0  0  0  0  0  0  0  0  0  0
   -4.3046    8.1655    1.2914 C   0  0  1  0  0  0  0  0  0  0  0  0
   -3.8907    6.7106    1.5070 C   0  0  0  0  0  0  0  0  0  0  0  0
   -2.9908   10.5062   -1.8114 N   0  0  0  0  0  0  0  0  0  0  0  0
   -5.7121   11.8064   -2.0682 C   0  0  0  0  0  0  0  0  0  0  0  0
   -6.9437   12.3255   -2.0268 N   0  0  0  0  0  0  0  0  0  0  0  0
   -9.8562   14.1454   -4.3974 H   0  0  0  0  0  0  0  0  0  0  0  0
   -9.3176   12.5169   -3.9449 H   0  0  0  0  0  0  0  0  0  0  0  0
   -8.4499   13.4168   -5.1958 H   0  0  0  0  0  0  0  0  0  0  0  0
   -8.6057   14.2215   -2.2289 H   0  0  0  0  0  0  0  0  0  0  0  0
   -7.7336   15.1161   -3.4836 H   0  0  0  0  0  0  0  0  0  0  0  0
   -5.5174   14.1420   -4.3534 H   0  0  0  0  0  0  0  0  0  0  0  0
   -3.1248   12.8337   -4.0071 H   0  0  0  0  0  0  0  0  0  0  0  0
    0.5979   11.1767   -2.7404 H   0  0  0  0  0  0  0  0  0  0  0  0
   -1.7049    8.2481    0.0771 H   0  0  0  0  0  0  0  0  0  0  0  0
   -4.4699    9.1856   -0.5967 H   0  0  0  0  0  0  0  0  0  0  0  0
   -4.6969    7.1766   -1.6984 H   0  0  0  0  0  0  0  0  0  0  0  0
   -2.8438    7.5066   -3.1808 H   0  0  0  0  0  0  0  0  0  0  0  0
   -1.5310    6.3664   -3.0453 H   0  0  0  0  0  0  0  0  0  0  0  0
   -4.6170    5.1284    0.1257 H   0  0  0  0  0  0  0  0  0  0  0  0
   -6.9488    6.3622    0.2759 H   0  0  0  0  0  0  0  0  0  0  0  0
   -6.5600    8.6616    1.5104 H   0  0  0  0  0  0  0  0  0  0  0  0
   -3.9871    8.8579    2.0724 H   0  0  0  0  0  0  0  0  0  0  0  0
   -4.2773    6.2802    2.4405 H   0  0  0  0  0  0  0  0  0  0  0  0
   -2.8080    6.5584    1.4765 H   0  0  0  0  0  0  0  0  0  0  0  0
   -5.4740   10.9975   -1.3953 H   0  0  0  0  0  0  0  0  0  0  0  0
  1  2  1  0  0  0  0
  1 27  1  0  0  0  0
  1 28  1  0  0  0  0
  1 29  1  0  0  0  0
  2  3  1  0  0  0  0
  2 30  1  0  0  0  0
  2 31  1  0  0  0  0
  3  4  1  0  0  0  0
  3 26  1  0  0  0  0
  4  5  2  0  0  0  0
  4 32  1  0  0  0  0
  5  6  1  0  0  0  0
  5 25  1  0  0  0  0
  6  7  1  0  0  0  0
  6 33  1  0  0  0  0
  7  8  1  0  0  0  0
  7 24  2  0  0  0  0
  8  9  2  0  0  0  0
  9 10  1  0  0  0  0
  9 34  1  0  0  0  0
 10 11  1  0  0  0  0
 10 12  2  0  0  0  0
 12 13  1  0  0  0  0
 12 24  1  0  0  0  0
 13 35  1  0  0  0  0
 14 15  1  0  0  0  0
 14 22  1  0  0  0  0
 14 13  1  0  0  0  0
 14 36  1  6  0  0  0
 15 16  1  0  0  0  0
 15 19  1  0  0  0  0
 15 37  1  6  0  0  0
 16 17  1  0  0  0  0
 16 18  2  0  0  0  0
 17 38  1  0  0  0  0
 17 39  1  0  0  0  0
 19 20  1  0  0  0  0
 19 23  1  0  0  0  0
 19 40  1  6  0  0  0
 20 21  2  0  0  0  0
 20 41  1  0  0  0  0
 21 22  1  0  0  0  0
 21 42  1  0  0  0  0
 22 23  1  0  0  0  0
 22 43  1  1  0  0  0
 23 44  1  0  0  0  0
 23 45  1  0  0  0  0
 25 26  2  0  0  0  0
 25 46  1  0  0  0  0
M  END
$$$$
