CHEMBL3891816
 OpenBabel04072215373D

 66 70  0  0  0  0  0  0  0  0999 V2000
    1.3215   -0.4344   -0.0188 C   0  0  0  0  0  0  0  0  0  0  0  0
    2.1124    0.7075   -0.3373 O   0  0  0  0  0  0  0  0  0  0  0  0
    2.8754    1.2241    0.6561 C   0  0  0  0  0  0  0  0  0  0  0  0
    2.6054    1.1962    1.9648 C   0  0  0  0  0  0  0  0  0  0  0  0
    3.5341    1.6941    2.8759 C   0  0  0  0  0  0  0  0  0  0  0  0
    3.3283    1.6188    4.2210 O   0  0  0  0  0  0  0  0  0  0  0  0
    2.0984    0.9920    4.5709 C   0  0  0  0  0  0  0  0  0  0  0  0
    4.7607    2.2433    2.4678 C   0  0  0  0  0  0  0  0  0  0  0  0
    5.1375    2.2530    1.1472 C   0  0  0  0  0  0  0  0  0  0  0  0
    6.4378    2.7244    0.7216 N   0  0  0  0  0  0  0  0  0  0  0  0
    7.0148    2.0789   -0.5526 C   0  0  0  0  0  0  0  0  0  0  0  0
    7.2051    0.5536   -0.3670 C   0  0  0  0  0  0  0  0  0  0  0  0
    7.3466   -0.6663   -0.2150 C   0  0  0  0  0  0  0  0  0  0  0  0
    7.5228   -2.1920   -0.0184 C   0  0  0  0  0  0  0  0  0  0  0  0
    6.4690   -2.6332    0.8387 O   0  0  0  0  0  0  0  0  0  0  0  0
    8.8841   -2.5130    0.6021 C   0  0  0  0  0  0  0  0  0  0  0  0
    9.9820   -2.2708   -0.4133 C   0  0  0  0  0  0  0  0  0  0  0  0
    9.7515   -3.0510   -1.5872 O   0  0  0  0  0  0  0  0  0  0  0  0
    8.5058   -2.7298   -2.2095 C   0  0  0  0  0  0  0  0  0  0  0  0
    7.3521   -3.0115   -1.2853 C   0  0  0  0  0  0  0  0  0  0  0  0
    7.4762    3.1543    1.6571 C   0  0  0  0  0  0  0  0  0  0  0  0
    8.3237    4.1217    1.2085 C   0  0  0  0  0  0  0  0  0  0  0  0
    9.3265    4.5341    2.0200 C   0  0  0  0  0  0  0  0  0  0  0  0
    9.6853    3.9530    3.1777 C   0  0  0  0  0  0  0  0  0  0  0  0
   10.9419    3.8948    3.0995 N   0  0  0  0  0  0  0  0  0  0  0  0
   11.4685    4.8955    3.7446 C   0  0  0  0  0  0  0  0  0  0  0  0
   11.7263    4.7789    5.0389 C   0  0  0  0  0  0  0  0  0  0  0  0
   13.1634    5.8505    4.7231 C   0  0  0  0  0  0  0  0  0  0  0  0
   13.9534    6.8959    5.5555 C   0  0  0  0  0  0  0  0  0  0  0  0
   15.0662    7.4753    5.0099 N   0  0  0  0  0  0  0  0  0  0  0  0
   15.2260    6.8916    3.8145 N   0  0  0  0  0  0  0  0  0  0  0  0
   16.4030    7.2510    2.9475 C   0  0  0  0  0  0  0  0  0  0  0  0
   14.1516    5.9189    3.6352 C   0  0  0  0  0  0  0  0  0  0  0  0
   10.4340    3.8288    5.1769 N   0  0  0  0  0  0  0  0  0  0  0  0
    9.1396    3.2718    4.1115 C   0  0  0  0  0  0  0  0  0  0  0  0
    7.8318    2.6737    3.0621 C   0  0  0  0  0  0  0  0  0  0  0  0
    4.0532    1.8773    0.3368 C   0  0  0  0  0  0  0  0  0  0  0  0
    0.9278   -0.8655   -0.9465 H   0  0  0  0  0  0  0  0  0  0  0  0
    0.4841   -0.0966    0.5907 H   0  0  0  0  0  0  0  0  0  0  0  0
    1.8842   -1.2234    0.4850 H   0  0  0  0  0  0  0  0  0  0  0  0
    1.6541    0.8053    2.2520 H   0  0  0  0  0  0  0  0  0  0  0  0
    2.0454    0.9657    5.6538 H   0  0  0  0  0  0  0  0  0  0  0  0
    2.0445   -0.0426    4.1997 H   0  0  0  0  0  0  0  0  0  0  0  0
    1.2476    1.5765    4.1965 H   0  0  0  0  0  0  0  0  0  0  0  0
    5.4168    2.6887    3.1975 H   0  0  0  0  0  0  0  0  0  0  0  0
    7.9563    2.5375   -0.9117 H   0  0  0  0  0  0  0  0  0  0  0  0
    6.2447    2.2458   -1.3138 H   0  0  0  0  0  0  0  0  0  0  0  0
    6.5313   -2.0899    1.6401 H   0  0  0  0  0  0  0  0  0  0  0  0
    8.8972   -3.5594    0.9355 H   0  0  0  0  0  0  0  0  0  0  0  0
    9.0874   -1.9012    1.4804 H   0  0  0  0  0  0  0  0  0  0  0  0
   10.9501   -2.5483    0.0152 H   0  0  0  0  0  0  0  0  0  0  0  0
   10.0383   -1.2086   -0.6792 H   0  0  0  0  0  0  0  0  0  0  0  0
    8.3858   -3.3308   -3.1140 H   0  0  0  0  0  0  0  0  0  0  0  0
    8.5010   -1.6719   -2.4834 H   0  0  0  0  0  0  0  0  0  0  0  0
    7.3393   -4.0830   -1.0260 H   0  0  0  0  0  0  0  0  0  0  0  0
    6.3983   -2.7935   -1.7756 H   0  0  0  0  0  0  0  0  0  0  0  0
    8.3595    4.5067    0.1965 H   0  0  0  0  0  0  0  0  0  0  0  0
   10.0728    5.2021    1.6098 H   0  0  0  0  0  0  0  0  0  0  0  0
   11.8430    5.5624    3.0031 H   0  0  0  0  0  0  0  0  0  0  0  0
   13.8154    7.2854    6.5636 H   0  0  0  0  0  0  0  0  0  0  0  0
   17.0041    8.1148    3.3152 H   0  0  0  0  0  0  0  0  0  0  0  0
   16.0840    7.5241    1.9309 H   0  0  0  0  0  0  0  0  0  0  0  0
   17.1094    6.4109    2.8749 H   0  0  0  0  0  0  0  0  0  0  0  0
   14.2810    5.3854    2.7136 H   0  0  0  0  0  0  0  0  0  0  0  0
    7.1866    1.7625    3.2405 H   0  0  0  0  0  0  0  0  0  0  0  0
    3.9022    2.4011   -0.5711 H   0  0  0  0  0  0  0  0  0  0  0  0
  1  2  1  0  0  0  0
  1 38  1  0  0  0  0
  1 39  1  0  0  0  0
  1 40  1  0  0  0  0
  2  3  1  0  0  0  0
  3  4  1  0  0  0  0
  3 37  2  0  0  0  0
  4  5  2  0  0  0  0
  4 41  1  0  0  0  0
  5  6  1  0  0  0  0
  5  8  1  0  0  0  0
  6  7  1  0  0  0  0
  7 42  1  0  0  0  0
  7 43  1  0  0  0  0
  7 44  1  0  0  0  0
  8  9  2  0  0  0  0
  8 45  1  0  0  0  0
  9 10  1  0  0  0  0
  9 37  1  0  0  0  0
 10 11  1  0  0  0  0
 10 21  1  0  0  0  0
 11 12  1  0  0  0  0
 11 46  1  0  0  0  0
 11 47  1  0  0  0  0
 12 13  3  0  0  0  0
 13 14  1  0  0  0  0
 14 15  1  0  0  0  0
 14 16  1  0  0  0  0
 14 20  1  0  0  0  0
 15 48  1  0  0  0  0
 16 17  1  0  0  0  0
 16 49  1  0  0  0  0
 16 50  1  0  0  0  0
 17 18  1  0  0  0  0
 17 51  1  0  0  0  0
 17 52  1  0  0  0  0
 18 19  1  0  0  0  0
 19 20  1  0  0  0  0
 19 53  1  0  0  0  0
 19 54  1  0  0  0  0
 20 55  1  0  0  0  0
 20 56  1  0  0  0  0
 21 22  1  0  0  0  0
 21 36  2  0  0  0  0
 22 23  2  0  0  0  0
 22 57  1  0  0  0  0
 23 24  1  0  0  0  0
 23 58  1  0  0  0  0
 24 25  1  0  0  0  0
 24 35  2  0  0  0  0
 25 26  2  0  0  0  0
 26 27  1  0  0  0  0
 26 59  1  0  0  0  0
 27 28  1  0  0  0  0
 27 34  2  0  0  0  0
 28 29  1  0  0  0  0
 28 33  2  0  0  0  0
 29 30  2  0  0  0  0
 29 60  1  0  0  0  0
 30 31  1  0  0  0  0
 31 32  1  0  0  0  0
 31 33  1  0  0  0  0
 32 61  1  0  0  0  0
 32 62  1  0  0  0  0
 32 63  1  0  0  0  0
 33 64  1  0  0  0  0
 34 35  1  0  0  0  0
 35 36  1  0  0  0  0
 36 65  1  0  0  0  0
 37 66  1  0  0  0  0
M  END
$$$$
