CHEMBL3931674
 OpenBabel04072215373D

 66 70  0  0  0  0  0  0  0  0999 V2000
    2.4603   -1.4193   -2.2128 C   0  0  0  0  0  0  0  0  0  0  0  0
    3.6218   -1.4443   -1.3462 N   0  0  0  0  0  0  0  0  0  0  0  0
    3.8672   -0.4195   -0.4488 C   0  0  0  0  0  0  0  0  0  0  0  0
    3.1461    0.5707   -0.3690 O   0  0  0  0  0  0  0  0  0  0  0  0
    5.1006   -0.5344    0.4077 C   0  0  0  0  0  0  0  0  0  0  0  0
    5.6940    0.6447    0.8493 C   0  0  0  0  0  0  0  0  0  0  0  0
    6.8405    0.5816    1.6353 C   0  0  0  0  0  0  0  0  0  0  0  0
    7.3979    1.6305    2.3162 O   0  0  0  0  0  0  0  0  0  0  0  0
    6.6474    2.8341    2.2426 C   0  0  0  0  0  0  0  0  0  0  0  0
    7.5028   -0.6331    1.8084 C   0  0  0  0  0  0  0  0  0  0  0  0
    6.9419   -1.8533    1.4351 C   0  0  0  0  0  0  0  0  0  0  0  0
    7.6800   -3.0517    1.6643 N   0  0  0  0  0  0  0  0  0  0  0  0
    6.9020   -4.3792    1.6796 C   0  0  0  0  0  0  0  0  0  0  0  0
    6.4514   -5.0277    0.3442 C   0  0  0  0  0  0  0  0  0  0  0  0
    5.5933   -6.3102    0.3382 C   0  0  0  0  0  0  0  0  0  0  0  0
    6.9893   -6.3608   -0.1852 C   0  0  0  0  0  0  0  0  0  0  0  0
    9.0783   -3.2101    2.0724 C   0  0  0  0  0  0  0  0  0  0  0  0
    9.7559   -4.1396    1.3157 C   0  0  0  0  0  0  0  0  0  0  0  0
   10.9207   -4.5702    1.7873 C   0  0  0  0  0  0  0  0  0  0  0  0
   11.4607   -4.1934    2.9788 C   0  0  0  0  0  0  0  0  0  0  0  0
   11.9854   -5.2813    3.4128 N   0  0  0  0  0  0  0  0  0  0  0  0
   13.2830   -5.3160    3.3077 C   0  0  0  0  0  0  0  0  0  0  0  0
   14.0053   -4.4003    3.9358 C   0  0  0  0  0  0  0  0  0  0  0  0
   15.5348   -5.0575    4.0280 C   0  0  0  0  0  0  0  0  0  0  0  0
   16.6660   -4.9190    4.8811 C   0  0  0  0  0  0  0  0  0  0  0  0
   17.7063   -5.7833    4.6789 N   0  0  0  0  0  0  0  0  0  0  0  0
   17.3380   -6.5667    3.6496 N   0  0  0  0  0  0  0  0  0  0  0  0
   18.2908   -7.6325    3.1942 C   0  0  0  0  0  0  0  0  0  0  0  0
   17.8713   -8.5883    2.0620 C   0  0  0  0  0  0  0  0  0  0  0  0
   17.6324   -7.9023    0.8337 O   0  0  0  0  0  0  0  0  0  0  0  0
   17.1531   -8.8050   -0.1617 C   0  0  0  0  0  0  0  0  0  0  0  0
   16.0462   -6.1744    3.2307 C   0  0  0  0  0  0  0  0  0  0  0  0
   13.0898   -3.2452    4.3004 N   0  0  0  0  0  0  0  0  0  0  0  0
   11.5309   -3.0341    3.6433 C   0  0  0  0  0  0  0  0  0  0  0  0
    9.9385   -2.5981    3.1829 C   0  0  0  0  0  0  0  0  0  0  0  0
    5.6621   -1.7693    0.8129 C   0  0  0  0  0  0  0  0  0  0  0  0
    2.4891   -2.2809   -2.8864 H   0  0  0  0  0  0  0  0  0  0  0  0
    2.4425   -0.4963   -2.8007 H   0  0  0  0  0  0  0  0  0  0  0  0
    1.5572   -1.4684   -1.5981 H   0  0  0  0  0  0  0  0  0  0  0  0
    4.2855   -2.1974   -1.4564 H   0  0  0  0  0  0  0  0  0  0  0  0
    5.2338    1.5963    0.5971 H   0  0  0  0  0  0  0  0  0  0  0  0
    7.0933    3.5661    2.9177 H   0  0  0  0  0  0  0  0  0  0  0  0
    5.6052    2.6854    2.5530 H   0  0  0  0  0  0  0  0  0  0  0  0
    6.7058    3.2196    1.2213 H   0  0  0  0  0  0  0  0  0  0  0  0
    8.4649   -0.6042    2.2989 H   0  0  0  0  0  0  0  0  0  0  0  0
    6.0090   -4.2105    2.2924 H   0  0  0  0  0  0  0  0  0  0  0  0
    7.4868   -5.1285    2.2246 H   0  0  0  0  0  0  0  0  0  0  0  0
    6.1364   -4.2930   -0.3850 H   0  0  0  0  0  0  0  0  0  0  0  0
    4.8230   -6.4635   -0.4189 H   0  0  0  0  0  0  0  0  0  0  0  0
    5.3989   -6.8872    1.2384 H   0  0  0  0  0  0  0  0  0  0  0  0
    7.0687   -6.5253   -1.2590 H   0  0  0  0  0  0  0  0  0  0  0  0
    7.6813   -6.9769    0.3790 H   0  0  0  0  0  0  0  0  0  0  0  0
    9.3436   -4.6952    0.4817 H   0  0  0  0  0  0  0  0  0  0  0  0
   11.3694   -5.4420    1.3402 H   0  0  0  0  0  0  0  0  0  0  0  0
   13.6637   -6.0338    2.6032 H   0  0  0  0  0  0  0  0  0  0  0  0
   16.8121   -4.2191    5.6790 H   0  0  0  0  0  0  0  0  0  0  0  0
   18.5208   -8.2735    4.0644 H   0  0  0  0  0  0  0  0  0  0  0  0
   19.2579   -7.1708    2.9279 H   0  0  0  0  0  0  0  0  0  0  0  0
   16.9725   -9.1285    2.3684 H   0  0  0  0  0  0  0  0  0  0  0  0
   18.6618   -9.3376    1.8715 H   0  0  0  0  0  0  0  0  0  0  0  0
   16.9333   -8.2446   -1.0739 H   0  0  0  0  0  0  0  0  0  0  0  0
   16.2322   -9.2871    0.1817 H   0  0  0  0  0  0  0  0  0  0  0  0
   17.9083   -9.5648   -0.3882 H   0  0  0  0  0  0  0  0  0  0  0  0
   15.6561   -6.7326    2.3867 H   0  0  0  0  0  0  0  0  0  0  0  0
    9.3977   -1.8341    3.7763 H   0  0  0  0  0  0  0  0  0  0  0  0
    5.0480   -2.6462    0.6444 H   0  0  0  0  0  0  0  0  0  0  0  0
  1  2  1  0  0  0  0
  1 37  1  0  0  0  0
  1 38  1  0  0  0  0
  1 39  1  0  0  0  0
  2  3  1  0  0  0  0
  2 40  1  0  0  0  0
  3  4  2  0  0  0  0
  3  5  1  0  0  0  0
  5  6  1  0  0  0  0
  5 36  2  0  0  0  0
  6  7  2  0  0  0  0
  6 41  1  0  0  0  0
  7  8  1  0  0  0  0
  7 10  1  0  0  0  0
  8  9  1  0  0  0  0
  9 42  1  0  0  0  0
  9 43  1  0  0  0  0
  9 44  1  0  0  0  0
 10 11  2  0  0  0  0
 10 45  1  0  0  0  0
 11 12  1  0  0  0  0
 11 36  1  0  0  0  0
 12 13  1  0  0  0  0
 12 17  1  0  0  0  0
 13 14  1  0  0  0  0
 13 46  1  0  0  0  0
 13 47  1  0  0  0  0
 14 15  1  0  0  0  0
 14 16  1  0  0  0  0
 14 48  1  0  0  0  0
 15 16  1  0  0  0  0
 15 49  1  0  0  0  0
 15 50  1  0  0  0  0
 16 51  1  0  0  0  0
 16 52  1  0  0  0  0
 17 18  1  0  0  0  0
 17 35  2  0  0  0  0
 18 19  2  0  0  0  0
 18 53  1  0  0  0  0
 19 20  1  0  0  0  0
 19 54  1  0  0  0  0
 20 21  1  0  0  0  0
 20 34  2  0  0  0  0
 21 22  2  0  0  0  0
 22 23  1  0  0  0  0
 22 55  1  0  0  0  0
 23 24  1  0  0  0  0
 23 33  2  0  0  0  0
 24 25  1  0  0  0  0
 24 32  2  0  0  0  0
 25 26  2  0  0  0  0
 25 56  1  0  0  0  0
 26 27  1  0  0  0  0
 27 28  1  0  0  0  0
 27 32  1  0  0  0  0
 28 29  1  0  0  0  0
 28 57  1  0  0  0  0
 28 58  1  0  0  0  0
 29 30  1  0  0  0  0
 29 59  1  0  0  0  0
 29 60  1  0  0  0  0
 30 31  1  0  0  0  0
 31 61  1  0  0  0  0
 31 62  1  0  0  0  0
 31 63  1  0  0  0  0
 32 64  1  0  0  0  0
 33 34  1  0  0  0  0
 34 35  1  0  0  0  0
 35 65  1  0  0  0  0
 36 66  1  0  0  0  0
M  END
$$$$
