CHEMBL257788
 OpenBabel04072215363D

 51 56  0  0  0  0  0  0  0  0999 V2000
    0.7261    0.3008   -1.1782 C   0  0  0  0  0  0  0  0  0  0  0  0
    2.2178    0.4591   -1.3406 C   0  0  0  0  0  0  0  0  0  0  0  0
    2.6345    1.5679   -0.5444 O   0  0  0  0  0  0  0  0  0  0  0  0
    4.0167    1.6634   -0.6734 N   0  0  0  0  0  0  0  0  0  0  0  0
    4.4633    2.6993   -0.0406 C   0  0  0  0  0  0  0  0  0  0  0  0
    5.8938    3.0612   -0.1305 C   0  0  0  0  0  0  0  0  0  0  0  0
    6.6525    2.2038   -0.9184 C   0  0  0  0  0  0  0  0  0  0  0  0
    7.9234    2.5479   -1.2845 C   0  0  0  0  0  0  0  0  0  0  0  0
    8.3661    3.7798   -0.8284 C   0  0  0  0  0  0  0  0  0  0  0  0
    9.4817    4.4042   -1.2715 N   0  0  0  0  0  0  0  0  0  0  0  0
    9.9156    5.2848   -0.3396 C   0  0  0  0  0  0  0  0  0  0  0  0
   11.2092    5.7202   -0.1402 C   0  0  0  0  0  0  0  0  0  0  0  0
   11.5276    6.5180    0.9700 C   0  0  0  0  0  0  0  0  0  0  0  0
   10.3622    6.9776    1.6795 C   0  0  0  0  0  0  0  0  0  0  0  0
    9.0003    6.4779    1.4416 C   0  0  0  0  0  0  0  0  0  0  0  0
    8.8116    5.5132    0.4254 C   0  0  0  0  0  0  0  0  0  0  0  0
    7.7607    4.6151    0.1237 C   0  0  0  0  0  0  0  0  0  0  0  0
    6.4238    4.2420    0.4631 C   0  0  0  0  0  0  0  0  0  0  0  0
    7.9747    7.1633    2.2466 C   0  0  0  0  0  0  0  0  0  0  0  0
    8.8107    8.1696    2.8615 N   0  0  0  0  0  0  0  0  0  0  0  0
   10.1955    8.1045    2.6022 C   0  0  0  0  0  0  0  0  0  0  0  0
   10.9632    8.9551    3.0336 O   0  0  0  0  0  0  0  0  0  0  0  0
   12.9403    6.2223    1.4813 C   0  0  0  0  0  0  0  0  0  0  0  0
   14.1482    6.8885    1.1469 C   0  0  0  0  0  0  0  0  0  0  0  0
   15.1905    5.9319    1.1886 N   0  0  0  0  0  0  0  0  0  0  0  0
   16.3850    5.7975    0.3597 C   0  0  0  0  0  0  0  0  0  0  0  0
   14.7175    4.7740    1.6742 N   0  0  0  0  0  0  0  0  0  0  0  0
   13.4626    4.8840    1.2276 C   0  0  0  0  0  0  0  0  0  0  0  0
   13.1759    4.1798   -0.0715 C   0  0  0  0  0  0  0  0  0  0  0  0
   12.2725    5.0217   -0.9514 C   0  0  0  0  0  0  0  0  0  0  0  0
    0.3682   -0.5565   -1.7541 H   0  0  0  0  0  0  0  0  0  0  0  0
    0.2072    1.2034   -1.5165 H   0  0  0  0  0  0  0  0  0  0  0  0
    0.4703    0.1591   -0.1234 H   0  0  0  0  0  0  0  0  0  0  0  0
    2.4680    0.6414   -2.3939 H   0  0  0  0  0  0  0  0  0  0  0  0
    2.7354   -0.4478   -1.0066 H   0  0  0  0  0  0  0  0  0  0  0  0
    3.7958    3.3672    0.5343 H   0  0  0  0  0  0  0  0  0  0  0  0
    6.2532    1.2723   -1.3327 H   0  0  0  0  0  0  0  0  0  0  0  0
    8.5325    1.9294   -1.9363 H   0  0  0  0  0  0  0  0  0  0  0  0
   10.0477    4.0179   -2.0139 H   0  0  0  0  0  0  0  0  0  0  0  0
    5.8285    4.8499    1.1318 H   0  0  0  0  0  0  0  0  0  0  0  0
    7.5306    6.5263    3.0179 H   0  0  0  0  0  0  0  0  0  0  0  0
    7.1959    7.6400    1.6377 H   0  0  0  0  0  0  0  0  0  0  0  0
    8.4327    8.9846    3.3287 H   0  0  0  0  0  0  0  0  0  0  0  0
   14.3618    7.8678    0.7439 H   0  0  0  0  0  0  0  0  0  0  0  0
   16.9002    6.7420    0.2466 H   0  0  0  0  0  0  0  0  0  0  0  0
   16.0867    5.3970   -0.6221 H   0  0  0  0  0  0  0  0  0  0  0  0
   17.0494    5.0472    0.8159 H   0  0  0  0  0  0  0  0  0  0  0  0
   12.7842    3.1755    0.0902 H   0  0  0  0  0  0  0  0  0  0  0  0
   14.0977    4.0663   -0.6612 H   0  0  0  0  0  0  0  0  0  0  0  0
   12.8000    5.7806   -1.5527 H   0  0  0  0  0  0  0  0  0  0  0  0
   11.8520    4.3198   -1.6549 H   0  0  0  0  0  0  0  0  0  0  0  0
  1  2  1  0  0  0  0
  1 31  1  0  0  0  0
  1 32  1  0  0  0  0
  1 33  1  0  0  0  0
  2  3  1  0  0  0  0
  2 34  1  0  0  0  0
  2 35  1  0  0  0  0
  3  4  1  0  0  0  0
  4  5  2  0  0  0  0
  5  6  1  0  0  0  0
  5 36  1  0  0  0  0
  6  7  1  0  0  0  0
  6 18  2  0  0  0  0
  7  8  2  0  0  0  0
  7 37  1  0  0  0  0
  8  9  1  0  0  0  0
  8 38  1  0  0  0  0
  9 10  1  0  0  0  0
  9 17  2  0  0  0  0
 10 11  1  0  0  0  0
 10 39  1  0  0  0  0
 11 12  1  0  0  0  0
 11 16  2  0  0  0  0
 12 13  2  0  0  0  0
 12 30  1  0  0  0  0
 13 14  1  0  0  0  0
 13 23  1  0  0  0  0
 14 15  2  0  0  0  0
 14 21  1  0  0  0  0
 15 16  1  0  0  0  0
 15 19  1  0  0  0  0
 16 17  1  0  0  0  0
 17 18  1  0  0  0  0
 18 40  1  0  0  0  0
 19 20  1  0  0  0  0
 19 41  1  0  0  0  0
 19 42  1  0  0  0  0
 20 21  1  0  0  0  0
 20 43  1  0  0  0  0
 21 22  2  0  0  0  0
 23 24  2  0  0  0  0
 23 28  1  0  0  0  0
 24 25  1  0  0  0  0
 24 44  1  0  0  0  0
 25 26  1  0  0  0  0
 25 27  1  0  0  0  0
 26 45  1  0  0  0  0
 26 46  1  0  0  0  0
 26 47  1  0  0  0  0
 27 28  2  0  0  0  0
 28 29  1  0  0  0  0
 29 30  1  0  0  0  0
 29 48  1  0  0  0  0
 29 49  1  0  0  0  0
 30 50  1  0  0  0  0
 30 51  1  0  0  0  0
M  END
$$$$
