CHEMBL208788
 OpenBabel04072215363D

 50 53  0  0  0  0  0  0  0  0999 V2000
    1.0418   -0.0824   -0.0120 O   0  0  0  0  0  0  0  0  0  0  0  0
    2.2677   -0.0519   -0.1141 C   0  0  0  0  0  0  0  0  0  0  0  0
    2.9963   -0.9899   -0.8077 N   0  0  0  0  0  0  0  0  0  0  0  0
    2.3341   -2.1087   -1.4469 C   0  0  0  0  0  0  0  0  0  0  0  0
    2.2444   -3.3188   -0.5459 C   0  0  0  0  0  0  0  0  0  0  0  0
    1.1334   -3.5054    0.2755 C   0  0  0  0  0  0  0  0  0  0  0  0
    1.0768   -4.6349    1.0875 C   0  0  0  0  0  0  0  0  0  0  0  0
    2.1316   -5.5381    1.0704 C   0  0  0  0  0  0  0  0  0  0  0  0
    3.2072   -5.2704    0.2404 C   0  0  0  0  0  0  0  0  0  0  0  0
    3.2917   -4.1846   -0.5613 N   0  0  0  0  0  0  0  0  0  0  0  0
    3.0353    1.0257    0.5531 C   0  0  0  0  0  0  0  0  0  0  0  0
    2.5463    1.5497    1.7485 C   0  0  0  0  0  0  0  0  0  0  0  0
    3.2436    2.5725    2.3907 C   0  0  0  0  0  0  0  0  0  0  0  0
    4.4146    3.0692    1.8215 C   0  0  0  0  0  0  0  0  0  0  0  0
    5.0541    4.0664    2.4569 F   0  0  0  0  0  0  0  0  0  0  0  0
    4.9020    2.5935    0.5890 C   0  0  0  0  0  0  0  0  0  0  0  0
    6.0623    3.1491    0.0361 N   0  0  0  0  0  0  0  0  0  0  0  0
    6.2921    3.0792   -1.4084 C   0  0  0  0  0  0  0  0  0  0  0  0
    7.2618    4.1026   -1.8813 C   0  0  0  0  0  0  0  0  0  0  0  0
    7.5023    5.3407   -1.3374 C   0  0  0  0  0  0  0  0  0  0  0  0
    8.4804    6.0586   -1.9564 N   0  0  0  0  0  0  0  0  0  0  0  0
    8.9383    5.4466   -3.0264 C   0  0  0  0  0  0  0  0  0  0  0  0
    9.8315    5.9730   -3.8962 N   0  0  0  0  0  0  0  0  0  0  0  0
   10.0178    7.3523   -4.0665 C   0  0  0  0  0  0  0  0  0  0  0  0
    9.7432    8.2888   -3.0660 C   0  0  0  0  0  0  0  0  0  0  0  0
    9.7679    9.6429   -3.3395 C   0  0  0  0  0  0  0  0  0  0  0  0
   10.1321   10.0573   -4.6026 C   0  0  0  0  0  0  0  0  0  0  0  0
   10.4710    9.0838   -5.5299 C   0  0  0  0  0  0  0  0  0  0  0  0
   10.4245    7.7512   -5.2910 N   0  0  0  0  0  0  0  0  0  0  0  0
    8.2448    3.8827   -3.2712 S   0  0  0  0  0  0  0  0  0  0  0  0
    4.2008    1.5525   -0.0299 C   0  0  0  0  0  0  0  0  0  0  0  0
    3.9852   -1.0904   -0.6246 H   0  0  0  0  0  0  0  0  0  0  0  0
    2.9175   -2.3612   -2.3396 H   0  0  0  0  0  0  0  0  0  0  0  0
    1.3354   -1.8094   -1.7851 H   0  0  0  0  0  0  0  0  0  0  0  0
    0.3232   -2.7811    0.2851 H   0  0  0  0  0  0  0  0  0  0  0  0
    0.2162   -4.8055    1.7282 H   0  0  0  0  0  0  0  0  0  0  0  0
    2.1187   -6.4258    1.6927 H   0  0  0  0  0  0  0  0  0  0  0  0
    4.0577   -5.9448    0.1969 H   0  0  0  0  0  0  0  0  0  0  0  0
    1.6235    1.1648    2.1789 H   0  0  0  0  0  0  0  0  0  0  0  0
    2.8709    2.9924    3.3192 H   0  0  0  0  0  0  0  0  0  0  0  0
    6.8871    2.9452    0.5949 H   0  0  0  0  0  0  0  0  0  0  0  0
    5.3486    3.2650   -1.9389 H   0  0  0  0  0  0  0  0  0  0  0  0
    6.6458    2.0785   -1.6802 H   0  0  0  0  0  0  0  0  0  0  0  0
    7.0013    5.7613   -0.4734 H   0  0  0  0  0  0  0  0  0  0  0  0
   10.0140    5.4976   -4.7701 H   0  0  0  0  0  0  0  0  0  0  0  0
    9.4583    7.9855   -2.0629 H   0  0  0  0  0  0  0  0  0  0  0  0
    9.4781   10.3521   -2.5688 H   0  0  0  0  0  0  0  0  0  0  0  0
   10.1489   11.1105   -4.8618 H   0  0  0  0  0  0  0  0  0  0  0  0
   10.7797    9.3624   -6.5339 H   0  0  0  0  0  0  0  0  0  0  0  0
    4.5408    1.1563   -0.9802 H   0  0  0  0  0  0  0  0  0  0  0  0
  1  2  2  0  0  0  0
  2  3  1  0  0  0  0
  2 11  1  0  0  0  0
  3  4  1  0  0  0  0
  3 32  1  0  0  0  0
  4  5  1  0  0  0  0
  4 33  1  0  0  0  0
  4 34  1  0  0  0  0
  5  6  1  0  0  0  0
  5 10  2  0  0  0  0
  6  7  2  0  0  0  0
  6 35  1  0  0  0  0
  7  8  1  0  0  0  0
  7 36  1  0  0  0  0
  8  9  2  0  0  0  0
  8 37  1  0  0  0  0
  9 10  1  0  0  0  0
  9 38  1  0  0  0  0
 11 12  1  0  0  0  0
 11 31  2  0  0  0  0
 12 13  2  0  0  0  0
 12 39  1  0  0  0  0
 13 14  1  0  0  0  0
 13 40  1  0  0  0  0
 14 15  1  0  0  0  0
 14 16  2  0  0  0  0
 16 17  1  0  0  0  0
 16 31  1  0  0  0  0
 17 18  1  0  0  0  0
 17 41  1  0  0  0  0
 18 19  1  0  0  0  0
 18 42  1  0  0  0  0
 18 43  1  0  0  0  0
 19 20  2  0  0  0  0
 19 30  1  0  0  0  0
 20 21  1  0  0  0  0
 20 44  1  0  0  0  0
 21 22  2  0  0  0  0
 22 23  1  0  0  0  0
 22 30  1  0  0  0  0
 23 24  1  0  0  0  0
 23 45  1  0  0  0  0
 24 25  1  0  0  0  0
 24 29  2  0  0  0  0
 25 26  2  0  0  0  0
 25 46  1  0  0  0  0
 26 27  1  0  0  0  0
 26 47  1  0  0  0  0
 27 28  2  0  0  0  0
 27 48  1  0  0  0  0
 28 29  1  0  0  0  0
 28 49  1  0  0  0  0
 31 50  1  0  0  0  0
M  END
$$$$
