CHEMBL3957914
 OpenBabel04072215373D

 62 66  0  0  0  0  0  0  0  0999 V2000
    0.8710    3.9326    2.6898 C   0  0  0  0  0  0  0  0  0  0  0  0
    2.3011    4.0000    2.7103 O   0  0  0  0  0  0  0  0  0  0  0  0
    2.9836    3.0657    1.9667 C   0  0  0  0  0  0  0  0  0  0  0  0
    2.3790    1.9624    1.3657 C   0  0  0  0  0  0  0  0  0  0  0  0
    3.1385    1.1121    0.5793 C   0  0  0  0  0  0  0  0  0  0  0  0
    2.6609    0.0121   -0.0862 O   0  0  0  0  0  0  0  0  0  0  0  0
    1.4840   -0.5858    0.4497 C   0  0  0  0  0  0  0  0  0  0  0  0
    4.4994    1.3914    0.3724 C   0  0  0  0  0  0  0  0  0  0  0  0
    5.1707    2.4884    0.9552 C   0  0  0  0  0  0  0  0  0  0  0  0
    6.5210    2.8155    0.6307 N   0  0  0  0  0  0  0  0  0  0  0  0
    7.1728    2.0834   -0.5311 C   0  0  0  0  0  0  0  0  0  0  0  0
    6.8909    2.4352   -2.0252 C   0  0  0  0  0  0  0  0  0  0  0  0
    7.2581    3.8023   -2.6196 C   0  0  0  0  0  0  0  0  0  0  0  0
    6.7556    3.7226   -4.0750 C   0  0  0  0  0  0  0  0  0  0  0  0
    5.6742    2.6418   -4.0904 C   0  0  0  0  0  0  0  0  0  0  0  0
    5.5096    2.1973   -2.6321 C   0  0  0  0  0  0  0  0  0  0  0  0
    7.5746    3.3994    1.4530 C   0  0  0  0  0  0  0  0  0  0  0  0
    8.3688    4.3308    0.7801 C   0  0  0  0  0  0  0  0  0  0  0  0
    9.6892    4.5166    1.1591 C   0  0  0  0  0  0  0  0  0  0  0  0
   10.2375    3.9116    2.2628 C   0  0  0  0  0  0  0  0  0  0  0  0
   11.5630    4.0513    2.3415 N   0  0  0  0  0  0  0  0  0  0  0  0
   12.1443    3.6662    3.4815 C   0  0  0  0  0  0  0  0  0  0  0  0
   11.4082    3.2420    4.5700 C   0  0  0  0  0  0  0  0  0  0  0  0
   12.1244    3.2673    5.8495 C   0  0  0  0  0  0  0  0  0  0  0  0
   12.1392    4.2808    6.8477 C   0  0  0  0  0  0  0  0  0  0  0  0
   13.1193    4.1215    7.7479 N   0  0  0  0  0  0  0  0  0  0  0  0
   13.7566    3.0182    7.3235 N   0  0  0  0  0  0  0  0  0  0  0  0
   14.7333    2.3660    8.1664 C   0  0  0  0  0  0  0  0  0  0  0  0
   13.3033    2.5771    6.1088 C   0  0  0  0  0  0  0  0  0  0  0  0
   10.0520    2.9786    4.4466 N   0  0  0  0  0  0  0  0  0  0  0  0
    9.4277    3.2654    3.2155 C   0  0  0  0  0  0  0  0  0  0  0  0
    8.0740    2.9512    2.7225 C   0  0  0  0  0  0  0  0  0  0  0  0
    4.3764    3.2980    1.7862 C   0  0  0  0  0  0  0  0  0  0  0  0
    0.4785    4.8597    3.1201 H   0  0  0  0  0  0  0  0  0  0  0  0
    0.5115    3.1009    3.3064 H   0  0  0  0  0  0  0  0  0  0  0  0
    0.4706    3.8601    1.6712 H   0  0  0  0  0  0  0  0  0  0  0  0
    1.3168    1.7747    1.4860 H   0  0  0  0  0  0  0  0  0  0  0  0
    1.3364   -1.5460   -0.0550 H   0  0  0  0  0  0  0  0  0  0  0  0
    0.6001    0.0293    0.2522 H   0  0  0  0  0  0  0  0  0  0  0  0
    1.5931   -0.7859    1.5211 H   0  0  0  0  0  0  0  0  0  0  0  0
    5.0163    0.6994   -0.2819 H   0  0  0  0  0  0  0  0  0  0  0  0
    7.0199    1.0075   -0.3963 H   0  0  0  0  0  0  0  0  0  0  0  0
    8.2657    2.1641   -0.4459 H   0  0  0  0  0  0  0  0  0  0  0  0
    7.5550    1.7292   -2.5530 H   0  0  0  0  0  0  0  0  0  0  0  0
    8.3355    3.9962   -2.6035 H   0  0  0  0  0  0  0  0  0  0  0  0
    6.7459    4.6240   -2.1089 H   0  0  0  0  0  0  0  0  0  0  0  0
    7.5687    3.4370   -4.7559 H   0  0  0  0  0  0  0  0  0  0  0  0
    6.3705    4.6847   -4.4309 H   0  0  0  0  0  0  0  0  0  0  0  0
    6.0091    1.7985   -4.7096 H   0  0  0  0  0  0  0  0  0  0  0  0
    4.7345    3.0008   -4.5229 H   0  0  0  0  0  0  0  0  0  0  0  0
    5.2090    1.1473   -2.5883 H   0  0  0  0  0  0  0  0  0  0  0  0
    4.7446    2.8144   -2.1508 H   0  0  0  0  0  0  0  0  0  0  0  0
    8.0117    4.7975   -0.1241 H   0  0  0  0  0  0  0  0  0  0  0  0
   10.3255    5.1021    0.4947 H   0  0  0  0  0  0  0  0  0  0  0  0
   13.2193    3.7865    3.5115 H   0  0  0  0  0  0  0  0  0  0  0  0
   11.5077    5.1562    6.9349 H   0  0  0  0  0  0  0  0  0  0  0  0
   14.8673    2.9298    9.0943 H   0  0  0  0  0  0  0  0  0  0  0  0
   15.6847    2.2862    7.6347 H   0  0  0  0  0  0  0  0  0  0  0  0
   14.3446    1.3708    8.3999 H   0  0  0  0  0  0  0  0  0  0  0  0
   13.8400    1.8156    5.5619 H   0  0  0  0  0  0  0  0  0  0  0  0
    7.4555    2.2860    3.3274 H   0  0  0  0  0  0  0  0  0  0  0  0
    4.8086    4.1746    2.2662 H   0  0  0  0  0  0  0  0  0  0  0  0
  1  2  1  0  0  0  0
  1 34  1  0  0  0  0
  1 35  1  0  0  0  0
  1 36  1  0  0  0  0
  2  3  1  0  0  0  0
  3  4  1  0  0  0  0
  3 33  2  0  0  0  0
  4  5  2  0  0  0  0
  4 37  1  0  0  0  0
  5  6  1  0  0  0  0
  5  8  1  0  0  0  0
  6  7  1  0  0  0  0
  7 38  1  0  0  0  0
  7 39  1  0  0  0  0
  7 40  1  0  0  0  0
  8  9  2  0  0  0  0
  8 41  1  0  0  0  0
  9 10  1  0  0  0  0
  9 33  1  0  0  0  0
 10 11  1  0  0  0  0
 10 17  1  0  0  0  0
 11 12  1  0  0  0  0
 11 42  1  0  0  0  0
 11 43  1  0  0  0  0
 12 13  1  0  0  0  0
 12 16  1  0  0  0  0
 12 44  1  0  0  0  0
 13 14  1  0  0  0  0
 13 45  1  0  0  0  0
 13 46  1  0  0  0  0
 14 15  1  0  0  0  0
 14 47  1  0  0  0  0
 14 48  1  0  0  0  0
 15 16  1  0  0  0  0
 15 49  1  0  0  0  0
 15 50  1  0  0  0  0
 16 51  1  0  0  0  0
 16 52  1  0  0  0  0
 17 18  1  0  0  0  0
 17 32  2  0  0  0  0
 18 19  2  0  0  0  0
 18 53  1  0  0  0  0
 19 20  1  0  0  0  0
 19 54  1  0  0  0  0
 20 21  1  0  0  0  0
 20 31  2  0  0  0  0
 21 22  2  0  0  0  0
 22 23  1  0  0  0  0
 22 55  1  0  0  0  0
 23 24  1  0  0  0  0
 23 30  2  0  0  0  0
 24 25  1  0  0  0  0
 24 29  2  0  0  0  0
 25 26  2  0  0  0  0
 25 56  1  0  0  0  0
 26 27  1  0  0  0  0
 27 28  1  0  0  0  0
 27 29  1  0  0  0  0
 28 57  1  0  0  0  0
 28 58  1  0  0  0  0
 28 59  1  0  0  0  0
 29 60  1  0  0  0  0
 30 31  1  0  0  0  0
 31 32  1  0  0  0  0
 32 61  1  0  0  0  0
 33 62  1  0  0  0  0
M  END
$$$$
