CHEMBL468612
 OpenBabel04072215383D

 57 60  0  0  0  0  0  0  0  0999 V2000
   -1.5577    2.7913   -9.1498 C   0  0  0  0  0  0  0  0  0  0  0  0
   -0.1825    2.7977   -9.5864 N   0  0  0  0  0  0  0  0  0  0  0  0
    0.7127    2.0646   -8.8223 C   0  0  0  0  0  0  0  0  0  0  0  0
    1.7787    1.6025   -9.4789 N   0  0  0  0  0  0  0  0  0  0  0  0
    2.6500    0.8585   -8.7744 C   0  0  0  0  0  0  0  0  0  0  0  0
    2.4859    0.5366   -7.4434 C   0  0  0  0  0  0  0  0  0  0  0  0
    1.3483    1.0312   -6.8417 C   0  0  0  0  0  0  0  0  0  0  0  0
    0.9098    0.6430   -5.4844 C   0  0  0  0  0  0  0  0  0  0  0  0
   -0.4809    0.6154   -5.2121 C   0  0  0  0  0  0  0  0  0  0  0  0
   -0.9847    0.2227   -3.9776 C   0  0  0  0  0  0  0  0  0  0  0  0
   -0.0856   -0.1895   -3.0235 C   0  0  0  0  0  0  0  0  0  0  0  0
    1.2449   -0.2113   -3.2275 N   0  0  0  0  0  0  0  0  0  0  0  0
    1.7323    0.2622   -4.4127 C   0  0  0  0  0  0  0  0  0  0  0  0
    3.1278    0.4199   -4.4962 O   0  0  0  0  0  0  0  0  0  0  0  0
    3.7794    0.7223   -3.3029 C   0  0  0  0  0  0  0  0  0  0  0  0
    3.2036    1.6214   -2.4040 C   0  0  0  0  0  0  0  0  0  0  0  0
    3.7351    1.8031   -1.1324 C   0  0  0  0  0  0  0  0  0  0  0  0
    4.8965    1.1469   -0.7325 C   0  0  0  0  0  0  0  0  0  0  0  0
    5.4079    1.2351    0.5901 N   0  0  0  0  0  0  0  0  0  0  0  0
    4.8457    1.9912    1.6148 C   0  0  0  0  0  0  0  0  0  0  0  0
    3.8770    2.7341    1.5016 O   0  0  0  0  0  0  0  0  0  0  0  0
    5.5291    1.8581    2.8155 N   0  0  0  0  0  0  0  0  0  0  0  0
    5.1115    2.5944    3.9548 C   0  0  0  0  0  0  0  0  0  0  0  0
    6.0746    3.2981    4.6787 C   0  0  0  0  0  0  0  0  0  0  0  0
    5.6923    4.1091    5.7490 C   0  0  0  0  0  0  0  0  0  0  0  0
    4.3537    4.1767    6.1390 C   0  0  0  0  0  0  0  0  0  0  0  0
    3.3760    3.4403    5.4573 C   0  0  0  0  0  0  0  0  0  0  0  0
    1.9331    3.4726    5.9009 C   0  0  0  0  0  0  0  0  0  0  0  0
    1.7283    4.2367    7.0142 F   0  0  0  0  0  0  0  0  0  0  0  0
    1.0892    3.9683    4.9557 F   0  0  0  0  0  0  0  0  0  0  0  0
    1.4576    2.2355    6.2188 F   0  0  0  0  0  0  0  0  0  0  0  0
    3.7663    2.6620    4.3507 C   0  0  0  0  0  0  0  0  0  0  0  0
    5.5625    0.3528   -1.6848 C   0  0  0  0  0  0  0  0  0  0  0  0
    5.0143    0.1403   -2.9814 C   0  0  0  0  0  0  0  0  0  0  0  0
    5.7957   -0.6611   -3.9850 C   0  0  0  0  0  0  0  0  0  0  0  0
    0.4707    1.8078   -7.5314 N   0  0  0  0  0  0  0  0  0  0  0  0
   -2.2001    3.1172   -9.9750 H   0  0  0  0  0  0  0  0  0  0  0  0
   -1.7062    3.4945   -8.3235 H   0  0  0  0  0  0  0  0  0  0  0  0
   -1.9008    1.7961   -8.8447 H   0  0  0  0  0  0  0  0  0  0  0  0
   -0.0149    2.5380  -10.5525 H   0  0  0  0  0  0  0  0  0  0  0  0
    3.5044    0.4942   -9.3361 H   0  0  0  0  0  0  0  0  0  0  0  0
    3.1869   -0.1104   -6.9493 H   0  0  0  0  0  0  0  0  0  0  0  0
   -1.1912    0.9109   -5.9837 H   0  0  0  0  0  0  0  0  0  0  0  0
   -2.0503    0.2356   -3.7766 H   0  0  0  0  0  0  0  0  0  0  0  0
   -0.4123   -0.5039   -2.0369 H   0  0  0  0  0  0  0  0  0  0  0  0
    2.2775    2.1380   -2.6415 H   0  0  0  0  0  0  0  0  0  0  0  0
    3.1656    2.4392   -0.4707 H   0  0  0  0  0  0  0  0  0  0  0  0
    6.1827    0.6349    0.8224 H   0  0  0  0  0  0  0  0  0  0  0  0
    6.5226    1.7106    2.7201 H   0  0  0  0  0  0  0  0  0  0  0  0
    7.1174    3.2825    4.3770 H   0  0  0  0  0  0  0  0  0  0  0  0
    6.4378    4.7025    6.2719 H   0  0  0  0  0  0  0  0  0  0  0  0
    4.0765    4.8112    6.9804 H   0  0  0  0  0  0  0  0  0  0  0  0
    3.0074    2.1071    3.8001 H   0  0  0  0  0  0  0  0  0  0  0  0
    6.5072   -0.1168   -1.4287 H   0  0  0  0  0  0  0  0  0  0  0  0
    6.6157   -1.2096   -3.5093 H   0  0  0  0  0  0  0  0  0  0  0  0
    6.2354    0.0099   -4.7319 H   0  0  0  0  0  0  0  0  0  0  0  0
    5.1600   -1.3944   -4.4886 H   0  0  0  0  0  0  0  0  0  0  0  0
  1  2  1  0  0  0  0
  1 37  1  0  0  0  0
  1 38  1  0  0  0  0
  1 39  1  0  0  0  0
  2  3  1  0  0  0  0
  2 40  1  0  0  0  0
  3  4  1  0  0  0  0
  3 36  2  0  0  0  0
  4  5  2  0  0  0  0
  5  6  1  0  0  0  0
  5 41  1  0  0  0  0
  6  7  2  0  0  0  0
  6 42  1  0  0  0  0
  7  8  1  0  0  0  0
  7 36  1  0  0  0  0
  8  9  1  0  0  0  0
  8 13  2  0  0  0  0
  9 10  2  0  0  0  0
  9 43  1  0  0  0  0
 10 11  1  0  0  0  0
 10 44  1  0  0  0  0
 11 12  2  0  0  0  0
 11 45  1  0  0  0  0
 12 13  1  0  0  0  0
 13 14  1  0  0  0  0
 14 15  1  0  0  0  0
 15 16  1  0  0  0  0
 15 34  2  0  0  0  0
 16 17  2  0  0  0  0
 16 46  1  0  0  0  0
 17 18  1  0  0  0  0
 17 47  1  0  0  0  0
 18 19  1  0  0  0  0
 18 33  2  0  0  0  0
 19 20  1  0  0  0  0
 19 48  1  0  0  0  0
 20 21  2  0  0  0  0
 20 22  1  0  0  0  0
 22 23  1  0  0  0  0
 22 49  1  0  0  0  0
 23 24  1  0  0  0  0
 23 32  2  0  0  0  0
 24 25  2  0  0  0  0
 24 50  1  0  0  0  0
 25 26  1  0  0  0  0
 25 51  1  0  0  0  0
 26 27  2  0  0  0  0
 26 52  1  0  0  0  0
 27 28  1  0  0  0  0
 27 32  1  0  0  0  0
 28 29  1  0  0  0  0
 28 30  1  0  0  0  0
 28 31  1  0  0  0  0
 32 53  1  0  0  0  0
 33 34  1  0  0  0  0
 33 54  1  0  0  0  0
 34 35  1  0  0  0  0
 35 55  1  0  0  0  0
 35 56  1  0  0  0  0
 35 57  1  0  0  0  0
M  END
$$$$
