CHEMBL307476
 OpenBabel04072215363D

 43 46  0  0  0  0  0  0  0  0999 V2000
    0.9105    0.0465   -0.1749 C   0  0  0  0  0  0  0  0  0  0  0  0
    2.3844    0.0188   -0.1659 N   0  0  0  0  0  0  0  0  0  0  0  0
    2.9873    1.2869    0.0946 C   0  0  0  0  0  0  0  0  0  0  0  0
    2.3309    2.3416    0.7597 C   0  0  0  0  0  0  0  0  0  0  0  0
    2.9349    3.5932    0.9261 C   0  0  0  0  0  0  0  0  0  0  0  0
    4.2243    3.8053    0.4543 C   0  0  0  0  0  0  0  0  0  0  0  0
    4.9584    5.3492    0.6376 Cl  0  0  0  0  0  0  0  0  0  0  0  0
    4.9179    2.7719   -0.1656 C   0  0  0  0  0  0  0  0  0  0  0  0
    4.3032    1.5257   -0.3406 C   0  0  0  0  0  0  0  0  0  0  0  0
    2.9949   -1.2086    0.2397 C   0  0  0  0  0  0  0  0  0  0  0  0
    4.0376   -1.1285    1.1075 N   0  0  0  0  0  0  0  0  0  0  0  0
    4.6768   -2.2418    1.5901 N   0  0  0  0  0  0  0  0  0  0  0  0
    4.2216   -3.4722    1.2842 C   0  0  0  0  0  0  0  0  0  0  0  0
    5.1272   -4.6087    1.7177 C   0  0  0  0  0  0  0  0  0  0  0  0
    6.0750   -5.0627    0.6211 C   0  0  0  0  0  0  0  0  0  0  0  0
    7.0404   -4.1879    0.1061 C   0  0  0  0  0  0  0  0  0  0  0  0
    7.8566   -4.6199   -0.9293 C   0  0  0  0  0  0  0  0  0  0  0  0
    7.7893   -5.8524   -1.4739 N   0  0  0  0  0  0  0  0  0  0  0  0
    6.8672   -6.6891   -0.9541 C   0  0  0  0  0  0  0  0  0  0  0  0
    6.0037   -6.3494    0.0792 C   0  0  0  0  0  0  0  0  0  0  0  0
    3.0935   -3.6483    0.4683 C   0  0  0  0  0  0  0  0  0  0  0  0
    2.5022   -4.9159    0.2284 C   0  0  0  0  0  0  0  0  0  0  0  0
    1.4524   -5.0795   -0.6718 C   0  0  0  0  0  0  0  0  0  0  0  0
    1.0424   -4.0010   -1.4304 C   0  0  0  0  0  0  0  0  0  0  0  0
    1.6101   -2.7490   -1.2008 C   0  0  0  0  0  0  0  0  0  0  0  0
    2.5480   -2.5000   -0.1626 C   0  0  0  0  0  0  0  0  0  0  0  0
    0.5017    1.0489   -0.3552 H   0  0  0  0  0  0  0  0  0  0  0  0
    0.4865   -0.3366    0.7581 H   0  0  0  0  0  0  0  0  0  0  0  0
    0.4855   -0.5011   -1.0146 H   0  0  0  0  0  0  0  0  0  0  0  0
    1.3392    2.2133    1.1844 H   0  0  0  0  0  0  0  0  0  0  0  0
    2.3908    4.3907    1.4253 H   0  0  0  0  0  0  0  0  0  0  0  0
    5.9329    2.9231   -0.5217 H   0  0  0  0  0  0  0  0  0  0  0  0
    4.8612    0.7328   -0.8342 H   0  0  0  0  0  0  0  0  0  0  0  0
    4.5364   -5.4502    2.0968 H   0  0  0  0  0  0  0  0  0  0  0  0
    5.7333   -4.2843    2.5749 H   0  0  0  0  0  0  0  0  0  0  0  0
    7.1506   -3.1781    0.4908 H   0  0  0  0  0  0  0  0  0  0  0  0
    8.6035   -3.9611   -1.3635 H   0  0  0  0  0  0  0  0  0  0  0  0
    6.8356   -7.6757   -1.4094 H   0  0  0  0  0  0  0  0  0  0  0  0
    5.2920   -7.0824    0.4429 H   0  0  0  0  0  0  0  0  0  0  0  0
    2.8395   -5.8000    0.7625 H   0  0  0  0  0  0  0  0  0  0  0  0
    0.9933   -6.0540   -0.8125 H   0  0  0  0  0  0  0  0  0  0  0  0
    0.2857   -4.1225   -2.2004 H   0  0  0  0  0  0  0  0  0  0  0  0
    1.3396   -1.9571   -1.8945 H   0  0  0  0  0  0  0  0  0  0  0  0
  1  2  1  0  0  0  0
  1 27  1  0  0  0  0
  1 28  1  0  0  0  0
  1 29  1  0  0  0  0
  2  3  1  0  0  0  0
  2 10  1  0  0  0  0
  3  4  1  0  0  0  0
  3  9  2  0  0  0  0
  4  5  2  0  0  0  0
  4 30  1  0  0  0  0
  5  6  1  0  0  0  0
  5 31  1  0  0  0  0
  6  7  1  0  0  0  0
  6  8  2  0  0  0  0
  8  9  1  0  0  0  0
  8 32  1  0  0  0  0
  9 33  1  0  0  0  0
 10 11  1  0  0  0  0
 10 26  2  0  0  0  0
 11 12  2  0  0  0  0
 12 13  1  0  0  0  0
 13 14  1  0  0  0  0
 13 21  2  0  0  0  0
 14 15  1  0  0  0  0
 14 34  1  0  0  0  0
 14 35  1  0  0  0  0
 15 16  1  0  0  0  0
 15 20  2  0  0  0  0
 16 17  2  0  0  0  0
 16 36  1  0  0  0  0
 17 18  1  0  0  0  0
 17 37  1  0  0  0  0
 18 19  2  0  0  0  0
 19 20  1  0  0  0  0
 19 38  1  0  0  0  0
 20 39  1  0  0  0  0
 21 22  1  0  0  0  0
 21 26  1  0  0  0  0
 22 23  2  0  0  0  0
 22 40  1  0  0  0  0
 23 24  1  0  0  0  0
 23 41  1  0  0  0  0
 24 25  2  0  0  0  0
 24 42  1  0  0  0  0
 25 26  1  0  0  0  0
 25 43  1  0  0  0  0
M  END
$$$$
