CHEMBL3929942
 OpenBabel04072215373D

 64 67  0  0  1  0  0  0  0  0999 V2000
    6.7045   -1.1844   -9.7132 C   0  0  0  0  0  0  0  0  0  0  0  0
    5.8683   -1.8994   -8.6638 C   0  0  0  0  0  0  0  0  0  0  0  0
    6.7073   -2.9418   -7.9316 C   0  0  0  0  0  0  0  0  0  0  0  0
    5.8872   -3.7174   -6.9016 C   0  0  0  0  0  0  0  0  0  0  0  0
    6.7478   -4.7478   -6.1550 C   0  0  0  0  0  0  0  0  0  0  0  0
    7.8456   -4.1650   -5.3761 N   0  0  0  0  0  0  0  0  0  0  0  0
    8.7301   -5.1952   -4.7952 C   0  0  0  0  0  0  0  0  0  0  0  0
    8.1290   -5.9011   -3.5703 C   0  0  0  0  0  0  0  0  0  0  0  0
    7.7614   -4.9820   -2.5406 O   0  0  0  0  0  0  0  0  0  0  0  0
    6.8908   -3.9324   -2.9997 C   0  0  3  0  0  0  0  0  0  0  0  0
    5.4080   -4.3968   -3.1165 C   0  0  0  0  0  0  0  0  0  0  0  0
    4.7237   -4.6164   -1.8591 O   0  0  0  0  0  0  0  0  0  0  0  0
    4.4641   -3.5236   -1.0680 C   0  0  0  0  0  0  0  0  0  0  0  0
    4.7974   -2.2199   -1.4779 C   0  0  0  0  0  0  0  0  0  0  0  0
    4.8485   -1.1498   -0.6136 C   0  0  0  0  0  0  0  0  0  0  0  0
    5.3627    0.0059   -1.0454 N   0  0  0  0  0  0  0  0  0  0  0  0
    5.4446    0.9904   -0.1485 C   0  0  0  0  0  0  0  0  0  0  0  0
    5.0351    0.9231    1.1203 N   0  0  0  0  0  0  0  0  0  0  0  0
    4.5168   -0.2493    1.5321 C   0  0  0  0  0  0  0  0  0  0  0  0
    4.1073   -0.3922    2.8778 N   0  0  0  0  0  0  0  0  0  0  0  0
    3.8798    0.6974    3.7418 C   0  0  0  0  0  0  0  0  0  0  0  0
    3.1114    1.7864    3.3128 C   0  0  0  0  0  0  0  0  0  0  0  0
    2.9621    2.9156    4.1085 C   0  0  0  0  0  0  0  0  0  0  0  0
    3.5728    2.9571    5.3633 C   0  0  0  0  0  0  0  0  0  0  0  0
    3.4111    4.4128    6.2800 Cl  0  0  0  0  0  0  0  0  0  0  0  0
    4.3039    1.8557    5.8230 C   0  0  0  0  0  0  0  0  0  0  0  0
    5.0821    1.8389    7.3655 Cl  0  0  0  0  0  0  0  0  0  0  0  0
    4.4465    0.7230    5.0179 C   0  0  0  0  0  0  0  0  0  0  0  0
    4.3990   -1.3468    0.6833 C   0  0  0  0  0  0  0  0  0  0  0  0
    3.8712   -2.5964    1.0593 C   0  0  0  0  0  0  0  0  0  0  0  0
    3.9256   -3.7029    0.2126 C   0  0  0  0  0  0  0  0  0  0  0  0
    3.4430   -4.7975    0.8622 O   0  0  0  0  0  0  0  0  0  0  0  0
    3.3941   -6.0759    0.2666 C   0  0  0  0  0  0  0  0  0  0  0  0
    7.4392   -3.2585   -4.2881 C   0  0  0  0  0  0  0  0  0  0  0  0
    6.1088   -0.4231  -10.2242 H   0  0  0  0  0  0  0  0  0  0  0  0
    7.0717   -1.8917  -10.4643 H   0  0  0  0  0  0  0  0  0  0  0  0
    7.5697   -0.6931   -9.2557 H   0  0  0  0  0  0  0  0  0  0  0  0
    5.0086   -2.3766   -9.1475 H   0  0  0  0  0  0  0  0  0  0  0  0
    5.4773   -1.1669   -7.9480 H   0  0  0  0  0  0  0  0  0  0  0  0
    7.5498   -2.4394   -7.4425 H   0  0  0  0  0  0  0  0  0  0  0  0
    7.1303   -3.6481   -8.6565 H   0  0  0  0  0  0  0  0  0  0  0  0
    5.0747   -4.2496   -7.4122 H   0  0  0  0  0  0  0  0  0  0  0  0
    5.3996   -3.0287   -6.2026 H   0  0  0  0  0  0  0  0  0  0  0  0
    7.1747   -5.4200   -6.9108 H   0  0  0  0  0  0  0  0  0  0  0  0
    6.0950   -5.3726   -5.5437 H   0  0  0  0  0  0  0  0  0  0  0  0
    9.6579   -4.6933   -4.4876 H   0  0  0  0  0  0  0  0  0  0  0  0
    9.0213   -5.9304   -5.5533 H   0  0  0  0  0  0  0  0  0  0  0  0
    8.8757   -6.5748   -3.1392 H   0  0  0  0  0  0  0  0  0  0  0  0
    7.2620   -6.5104   -3.8405 H   0  0  0  0  0  0  0  0  0  0  0  0
    6.9808   -3.1790   -2.2139 H   0  0  0  0  0  0  0  0  0  0  0  0
    5.3606   -5.3681   -3.6107 H   0  0  0  0  0  0  0  0  0  0  0  0
    4.8114   -3.7119   -3.7329 H   0  0  0  0  0  0  0  0  0  0  0  0
    5.1344   -2.0060   -2.4868 H   0  0  0  0  0  0  0  0  0  0  0  0
    5.8924    1.9227   -0.4740 H   0  0  0  0  0  0  0  0  0  0  0  0
    4.6283   -1.1476    3.3130 H   0  0  0  0  0  0  0  0  0  0  0  0
    2.6464    1.7652    2.3262 H   0  0  0  0  0  0  0  0  0  0  0  0
    2.3836    3.7563    3.7379 H   0  0  0  0  0  0  0  0  0  0  0  0
    5.0360   -0.1200    5.3707 H   0  0  0  0  0  0  0  0  0  0  0  0
    3.4389   -2.7295    2.0517 H   0  0  0  0  0  0  0  0  0  0  0  0
    3.1824   -6.7810    1.0812 H   0  0  0  0  0  0  0  0  0  0  0  0
    4.3471   -6.3739   -0.1712 H   0  0  0  0  0  0  0  0  0  0  0  0
    2.5660   -6.1460   -0.4432 H   0  0  0  0  0  0  0  0  0  0  0  0
    8.3496   -2.7096   -4.0034 H   0  0  0  0  0  0  0  0  0  0  0  0
    6.7603   -2.4743   -4.6411 H   0  0  0  0  0  0  0  0  0  0  0  0
  1  2  1  0  0  0  0
  1 35  1  0  0  0  0
  1 36  1  0  0  0  0
  1 37  1  0  0  0  0
  2  3  1  0  0  0  0
  2 38  1  0  0  0  0
  2 39  1  0  0  0  0
  3  4  1  0  0  0  0
  3 40  1  0  0  0  0
  3 41  1  0  0  0  0
  4  5  1  0  0  0  0
  4 42  1  0  0  0  0
  4 43  1  0  0  0  0
  5  6  1  0  0  0  0
  5 44  1  0  0  0  0
  5 45  1  0  0  0  0
  6  7  1  0  0  0  0
  6 34  1  0  0  0  0
  7  8  1  0  0  0  0
  7 46  1  0  0  0  0
  7 47  1  0  0  0  0
  8  9  1  0  0  0  0
  8 48  1  0  0  0  0
  8 49  1  0  0  0  0
  9 10  1  0  0  0  0
 10 11  1  0  0  0  0
 10 34  1  0  0  0  0
 10 50  1  0  0  0  0
 11 12  1  0  0  0  0
 11 51  1  0  0  0  0
 11 52  1  0  0  0  0
 12 13  1  0  0  0  0
 13 14  1  0  0  0  0
 13 31  2  0  0  0  0
 14 15  2  0  0  0  0
 14 53  1  0  0  0  0
 15 16  1  0  0  0  0
 15 29  1  0  0  0  0
 16 17  2  0  0  0  0
 17 18  1  0  0  0  0
 17 54  1  0  0  0  0
 18 19  2  0  0  0  0
 19 20  1  0  0  0  0
 19 29  1  0  0  0  0
 20 21  1  0  0  0  0
 20 55  1  0  0  0  0
 21 22  1  0  0  0  0
 21 28  2  0  0  0  0
 22 23  2  0  0  0  0
 22 56  1  0  0  0  0
 23 24  1  0  0  0  0
 23 57  1  0  0  0  0
 24 25  1  0  0  0  0
 24 26  2  0  0  0  0
 26 27  1  0  0  0  0
 26 28  1  0  0  0  0
 28 58  1  0  0  0  0
 29 30  2  0  0  0  0
 30 31  1  0  0  0  0
 30 59  1  0  0  0  0
 31 32  1  0  0  0  0
 32 33  1  0  0  0  0
 33 60  1  0  0  0  0
 33 61  1  0  0  0  0
 33 62  1  0  0  0  0
 34 63  1  0  0  0  0
 34 64  1  0  0  0  0
M  END
$$$$
