CHEMBL3694693
 OpenBabel04072215373D

 48 51  0  0  0  0  0  0  0  0999 V2000
    2.5503    1.2377    0.7892 O   0  0  0  0  0  0  0  0  0  0  0  0
    2.2540    0.0890    0.4919 C   0  0  0  0  0  0  0  0  0  0  0  0
    0.9486   -0.2657    0.2247 N   0  0  0  0  0  0  0  0  0  0  0  0
   -0.1085    0.7300    0.4491 C   0  0  0  0  0  0  0  0  0  0  0  0
   -0.6341    0.8001    1.8896 C   0  0  0  0  0  0  0  0  0  0  0  0
   -0.0312   -0.1115    2.6891 F   0  0  0  0  0  0  0  0  0  0  0  0
   -0.4685    2.0186    2.4411 F   0  0  0  0  0  0  0  0  0  0  0  0
   -1.9607    0.5187    1.9119 F   0  0  0  0  0  0  0  0  0  0  0  0
    3.1064   -0.9859    0.3557 N   0  0  0  0  0  0  0  0  0  0  0  0
    4.5019   -0.9996    0.5701 C   0  0  0  0  0  0  0  0  0  0  0  0
    5.2281    0.1313    0.9540 C   0  0  0  0  0  0  0  0  0  0  0  0
    6.6114    0.0744    1.1656 C   0  0  0  0  0  0  0  0  0  0  0  0
    7.3385    1.2791    1.5705 C   0  0  0  0  0  0  0  0  0  0  0  0
    6.9312    2.3247    2.3859 C   0  0  0  0  0  0  0  0  0  0  0  0
    7.9145    3.2601    2.5569 N   0  0  0  0  0  0  0  0  0  0  0  0
    8.9240    2.8298    1.8362 C   0  0  0  0  0  0  0  0  0  0  0  0
   10.2147    3.3913    1.6241 C   0  0  0  0  0  0  0  0  0  0  0  0
   11.1167    2.7876    0.8126 C   0  0  0  0  0  0  0  0  0  0  0  0
   12.4449    3.4078    0.5992 C   0  0  0  0  0  0  0  0  0  0  0  0
   12.7122    4.5822    1.2096 N   0  0  0  0  0  0  0  0  0  0  0  0
   13.9257    5.1099    0.9785 C   0  0  0  0  0  0  0  0  0  0  0  0
   14.8657    4.5190    0.1717 C   0  0  0  0  0  0  0  0  0  0  0  0
   14.5016    3.3272   -0.4016 C   0  0  0  0  0  0  0  0  0  0  0  0
   13.3052    2.7535   -0.2065 N   0  0  0  0  0  0  0  0  0  0  0  0
   10.7431    1.5355    0.1420 C   0  0  0  0  0  0  0  0  0  0  0  0
    9.5239    1.0124    0.3218 C   0  0  0  0  0  0  0  0  0  0  0  0
    8.6228    1.6371    1.1838 N   0  0  0  0  0  0  0  0  0  0  0  0
    7.2570   -1.1567    1.0225 C   0  0  0  0  0  0  0  0  0  0  0  0
    6.5628   -2.3048    0.6228 C   0  0  0  0  0  0  0  0  0  0  0  0
    7.2973   -3.6142    0.4808 C   0  0  0  0  0  0  0  0  0  0  0  0
    8.6385   -3.5102    0.6979 F   0  0  0  0  0  0  0  0  0  0  0  0
    6.8494   -4.5551    1.3561 F   0  0  0  0  0  0  0  0  0  0  0  0
    7.1652   -4.1591   -0.7595 F   0  0  0  0  0  0  0  0  0  0  0  0
    5.1797   -2.2140    0.3953 C   0  0  0  0  0  0  0  0  0  0  0  0
    0.7041   -1.2200    0.4490 H   0  0  0  0  0  0  0  0  0  0  0  0
   -0.9257    0.4645   -0.2291 H   0  0  0  0  0  0  0  0  0  0  0  0
    0.2559    1.7178    0.1449 H   0  0  0  0  0  0  0  0  0  0  0  0
    2.6902   -1.8424    0.0238 H   0  0  0  0  0  0  0  0  0  0  0  0
    4.7316    1.0865    1.0930 H   0  0  0  0  0  0  0  0  0  0  0  0
    5.9718    2.4386    2.8763 H   0  0  0  0  0  0  0  0  0  0  0  0
   10.4298    4.3253    2.1382 H   0  0  0  0  0  0  0  0  0  0  0  0
   14.1189    6.0558    1.4735 H   0  0  0  0  0  0  0  0  0  0  0  0
   15.8425    4.9569   -0.0047 H   0  0  0  0  0  0  0  0  0  0  0  0
   15.1786    2.7838   -1.0536 H   0  0  0  0  0  0  0  0  0  0  0  0
   11.4660    1.0509   -0.5087 H   0  0  0  0  0  0  0  0  0  0  0  0
    9.2229    0.1115   -0.1916 H   0  0  0  0  0  0  0  0  0  0  0  0
    8.3191   -1.2450    1.2435 H   0  0  0  0  0  0  0  0  0  0  0  0
    4.6376   -3.1116    0.1033 H   0  0  0  0  0  0  0  0  0  0  0  0
  1  2  2  0  0  0  0
  2  3  1  0  0  0  0
  2  9  1  0  0  0  0
  3  4  1  0  0  0  0
  3 35  1  0  0  0  0
  4  5  1  0  0  0  0
  4 36  1  0  0  0  0
  4 37  1  0  0  0  0
  5  6  1  0  0  0  0
  5  7  1  0  0  0  0
  5  8  1  0  0  0  0
  9 10  1  0  0  0  0
  9 38  1  0  0  0  0
 10 11  1  0  0  0  0
 10 34  2  0  0  0  0
 11 12  2  0  0  0  0
 11 39  1  0  0  0  0
 12 13  1  0  0  0  0
 12 28  1  0  0  0  0
 13 14  2  0  0  0  0
 13 27  1  0  0  0  0
 14 15  1  0  0  0  0
 14 40  1  0  0  0  0
 15 16  2  0  0  0  0
 16 17  1  0  0  0  0
 16 27  1  0  0  0  0
 17 18  2  0  0  0  0
 17 41  1  0  0  0  0
 18 19  1  0  0  0  0
 18 25  1  0  0  0  0
 19 20  1  0  0  0  0
 19 24  2  0  0  0  0
 20 21  2  0  0  0  0
 21 22  1  0  0  0  0
 21 42  1  0  0  0  0
 22 23  2  0  0  0  0
 22 43  1  0  0  0  0
 23 24  1  0  0  0  0
 23 44  1  0  0  0  0
 25 26  2  0  0  0  0
 25 45  1  0  0  0  0
 26 27  1  0  0  0  0
 26 46  1  0  0  0  0
 28 29  2  0  0  0  0
 28 47  1  0  0  0  0
 29 30  1  0  0  0  0
 29 34  1  0  0  0  0
 30 31  1  0  0  0  0
 30 32  1  0  0  0  0
 30 33  1  0  0  0  0
 34 48  1  0  0  0  0
M  END
$$$$
