CHEMBL245967
 OpenBabel04072215363D

 50 53  0  0  0  0  0  0  0  0999 V2000
    0.8709    0.2906   -3.1745 C   0  0  0  0  0  0  0  0  0  0  0  0
    1.8319    0.0045   -2.0290 C   0  0  0  0  0  0  0  0  0  0  0  0
    2.6868   -1.1138   -2.4012 N   0  0  0  0  0  0  0  0  0  0  0  0
    3.6647   -1.4315   -1.3609 C   0  0  0  0  0  0  0  0  0  0  0  0
    4.5320   -2.5903   -1.7793 C   0  0  0  0  0  0  0  0  0  0  0  0
    4.5446   -3.7767   -1.0554 C   0  0  0  0  0  0  0  0  0  0  0  0
    5.2802   -4.8599   -1.3892 N   0  0  0  0  0  0  0  0  0  0  0  0
    6.0364   -4.7584   -2.5102 C   0  0  0  0  0  0  0  0  0  0  0  0
    6.1197   -3.6222   -3.3122 C   0  0  0  0  0  0  0  0  0  0  0  0
    6.9395   -3.6355   -4.5346 C   0  0  0  0  0  0  0  0  0  0  0  0
    7.5418   -2.5507   -5.0501 C   0  0  0  0  0  0  0  0  0  0  0  0
    8.4094   -2.5639   -6.1780 C   0  0  0  0  0  0  0  0  0  0  0  0
    8.0293   -2.4114   -7.4889 C   0  0  0  0  0  0  0  0  0  0  0  0
    9.1884   -2.4027   -8.2107 N   0  0  0  0  0  0  0  0  0  0  0  0
   10.3001   -2.5421   -7.4604 N   0  0  0  0  0  0  0  0  0  0  0  0
    9.8242   -2.6526   -6.2106 C   0  0  0  0  0  0  0  0  0  0  0  0
   10.7172   -2.8588   -5.0340 C   0  0  0  0  0  0  0  0  0  0  0  0
   10.3017   -3.0493   -3.7994 N   0  0  0  0  0  0  0  0  0  0  0  0
   11.4291   -3.2919   -3.0677 C   0  0  0  0  0  0  0  0  0  0  0  0
   11.5482   -3.6170   -1.7126 C   0  0  0  0  0  0  0  0  0  0  0  0
   12.8257   -3.8408   -1.1836 C   0  0  0  0  0  0  0  0  0  0  0  0
   13.9670   -3.7261   -1.9849 C   0  0  0  0  0  0  0  0  0  0  0  0
   15.2551   -3.9163   -1.5534 O   0  0  0  0  0  0  0  0  0  0  0  0
   15.4250   -4.2630   -0.1834 C   0  0  0  0  0  0  0  0  0  0  0  0
   13.8570   -3.3978   -3.3471 C   0  0  0  0  0  0  0  0  0  0  0  0
   12.5700   -3.1987   -3.8549 C   0  0  0  0  0  0  0  0  0  0  0  0
   12.0874   -2.9097   -5.1071 N   0  0  0  0  0  0  0  0  0  0  0  0
    5.3475   -2.5245   -2.9201 C   0  0  0  0  0  0  0  0  0  0  0  0
    0.2074    1.1239   -2.9138 H   0  0  0  0  0  0  0  0  0  0  0  0
    0.2474   -0.5826   -3.3948 H   0  0  0  0  0  0  0  0  0  0  0  0
    1.4123    0.5620   -4.0874 H   0  0  0  0  0  0  0  0  0  0  0  0
    1.2556   -0.2363   -1.1289 H   0  0  0  0  0  0  0  0  0  0  0  0
    2.4288    0.9020   -1.8267 H   0  0  0  0  0  0  0  0  0  0  0  0
    3.1755   -0.8924   -3.2669 H   0  0  0  0  0  0  0  0  0  0  0  0
    3.1391   -1.6818   -0.4306 H   0  0  0  0  0  0  0  0  0  0  0  0
    4.3093   -0.5699   -1.1466 H   0  0  0  0  0  0  0  0  0  0  0  0
    3.9391   -3.8998   -0.1611 H   0  0  0  0  0  0  0  0  0  0  0  0
    6.5999   -5.6567   -2.7496 H   0  0  0  0  0  0  0  0  0  0  0  0
    7.0912   -4.6083   -4.9972 H   0  0  0  0  0  0  0  0  0  0  0  0
    7.4545   -1.5921   -4.5459 H   0  0  0  0  0  0  0  0  0  0  0  0
    7.0653   -2.2939   -7.9623 H   0  0  0  0  0  0  0  0  0  0  0  0
    9.2950   -2.2933   -9.2139 H   0  0  0  0  0  0  0  0  0  0  0  0
   10.6594   -3.7063   -1.0979 H   0  0  0  0  0  0  0  0  0  0  0  0
   12.8861   -4.1081   -0.1340 H   0  0  0  0  0  0  0  0  0  0  0  0
   16.4977   -4.3576    0.0093 H   0  0  0  0  0  0  0  0  0  0  0  0
   14.9600   -5.2298    0.0378 H   0  0  0  0  0  0  0  0  0  0  0  0
   15.0382   -3.4783    0.4757 H   0  0  0  0  0  0  0  0  0  0  0  0
   14.7391   -3.3163   -3.9730 H   0  0  0  0  0  0  0  0  0  0  0  0
   12.6161   -2.7909   -5.9590 H   0  0  0  0  0  0  0  0  0  0  0  0
    5.3550   -1.6142   -3.5126 H   0  0  0  0  0  0  0  0  0  0  0  0
  1  2  1  0  0  0  0
  1 29  1  0  0  0  0
  1 30  1  0  0  0  0
  1 31  1  0  0  0  0
  2  3  1  0  0  0  0
  2 32  1  0  0  0  0
  2 33  1  0  0  0  0
  3  4  1  0  0  0  0
  3 34  1  0  0  0  0
  4  5  1  0  0  0  0
  4 35  1  0  0  0  0
  4 36  1  0  0  0  0
  5  6  1  0  0  0  0
  5 28  2  0  0  0  0
  6  7  2  0  0  0  0
  6 37  1  0  0  0  0
  7  8  1  0  0  0  0
  8  9  2  0  0  0  0
  8 38  1  0  0  0  0
  9 10  1  0  0  0  0
  9 28  1  0  0  0  0
 10 11  2  0  0  0  0
 10 39  1  0  0  0  0
 11 12  1  0  0  0  0
 11 40  1  0  0  0  0
 12 13  2  0  0  0  0
 12 16  1  0  0  0  0
 13 14  1  0  0  0  0
 13 41  1  0  0  0  0
 14 15  1  0  0  0  0
 14 42  1  0  0  0  0
 15 16  2  0  0  0  0
 16 17  1  0  0  0  0
 17 18  2  0  0  0  0
 17 27  1  0  0  0  0
 18 19  1  0  0  0  0
 19 20  1  0  0  0  0
 19 26  2  0  0  0  0
 20 21  2  0  0  0  0
 20 43  1  0  0  0  0
 21 22  1  0  0  0  0
 21 44  1  0  0  0  0
 22 23  1  0  0  0  0
 22 25  2  0  0  0  0
 23 24  1  0  0  0  0
 24 45  1  0  0  0  0
 24 46  1  0  0  0  0
 24 47  1  0  0  0  0
 25 26  1  0  0  0  0
 25 48  1  0  0  0  0
 26 27  1  0  0  0  0
 27 49  1  0  0  0  0
 28 50  1  0  0  0  0
M  END
$$$$
