CHEMBL3409415
 OpenBabel04072215363D

 41 44  0  0  0  0  0  0  0  0999 V2000
    2.7376    0.6488    4.5793 N   0  0  0  0  0  0  0  0  0  0  0  0
    1.9707    1.3454    3.6684 C   0  0  0  0  0  0  0  0  0  0  0  0
    0.8188    1.8678    4.0975 N   0  0  0  0  0  0  0  0  0  0  0  0
    0.0912    2.5481    3.1917 C   0  0  0  0  0  0  0  0  0  0  0  0
    0.4751    2.7204    1.8869 C   0  0  0  0  0  0  0  0  0  0  0  0
    1.6810    2.1496    1.5601 C   0  0  0  0  0  0  0  0  0  0  0  0
    2.1196    2.3228    0.2505 O   0  0  0  0  0  0  0  0  0  0  0  0
    3.4787    2.3711    0.0340 C   0  0  0  0  0  0  0  0  0  0  0  0
    3.9618    1.7950   -1.1404 C   0  0  0  0  0  0  0  0  0  0  0  0
    5.3373    1.8054   -1.4208 C   0  0  0  0  0  0  0  0  0  0  0  0
    6.2398    2.3937   -0.5290 C   0  0  0  0  0  0  0  0  0  0  0  0
    7.6417    2.4090   -0.7001 N   0  0  0  0  0  0  0  0  0  0  0  0
    8.3728    1.8959   -1.7320 C   0  0  0  0  0  0  0  0  0  0  0  0
    7.9236    1.2954   -2.7046 O   0  0  0  0  0  0  0  0  0  0  0  0
    9.7198    2.1168   -1.7134 N   0  0  0  0  0  0  0  0  0  0  0  0
   10.4387    2.7810   -0.7684 C   0  0  0  0  0  0  0  0  0  0  0  0
   10.0764    3.1468    0.4345 N   0  0  0  0  0  0  0  0  0  0  0  0
   11.1008    3.9077    0.9937 C   0  0  0  0  0  0  0  0  0  0  0  0
   11.1106    4.4870    2.2800 C   0  0  0  0  0  0  0  0  0  0  0  0
   12.1554    5.3446    2.6499 C   0  0  0  0  0  0  0  0  0  0  0  0
   13.1955    5.6160    1.7663 C   0  0  0  0  0  0  0  0  0  0  0  0
   13.2477    4.9978    0.5150 C   0  0  0  0  0  0  0  0  0  0  0  0
   12.1965    4.1391    0.1549 C   0  0  0  0  0  0  0  0  0  0  0  0
   11.9956    3.2246   -1.2888 S   0  0  0  0  0  0  0  0  0  0  0  0
    5.7394    3.0177    0.6160 C   0  0  0  0  0  0  0  0  0  0  0  0
    4.3665    3.0218    0.8904 C   0  0  0  0  0  0  0  0  0  0  0  0
    2.4253    1.4285    2.4210 N   0  0  0  0  0  0  0  0  0  0  0  0
    2.1527    0.3001    5.3241 H   0  0  0  0  0  0  0  0  0  0  0  0
    3.3190   -0.0178    4.0892 H   0  0  0  0  0  0  0  0  0  0  0  0
   -0.8370    2.9697    3.5675 H   0  0  0  0  0  0  0  0  0  0  0  0
   -0.1150    3.2783    1.1757 H   0  0  0  0  0  0  0  0  0  0  0  0
    3.2778    1.3205   -1.8345 H   0  0  0  0  0  0  0  0  0  0  0  0
    5.6683    1.3337   -2.3395 H   0  0  0  0  0  0  0  0  0  0  0  0
    8.1876    2.8391    0.0402 H   0  0  0  0  0  0  0  0  0  0  0  0
   10.1972    1.8451   -2.5613 H   0  0  0  0  0  0  0  0  0  0  0  0
   10.2963    4.2874    2.9699 H   0  0  0  0  0  0  0  0  0  0  0  0
   12.1446    5.8162    3.6305 H   0  0  0  0  0  0  0  0  0  0  0  0
   13.9814    6.3128    2.0520 H   0  0  0  0  0  0  0  0  0  0  0  0
   14.0680    5.1949   -0.1691 H   0  0  0  0  0  0  0  0  0  0  0  0
    6.4092    3.5073    1.3208 H   0  0  0  0  0  0  0  0  0  0  0  0
    4.0143    3.5195    1.7877 H   0  0  0  0  0  0  0  0  0  0  0  0
  1  2  1  0  0  0  0
  1 28  1  0  0  0  0
  1 29  1  0  0  0  0
  2  3  1  0  0  0  0
  2 27  2  0  0  0  0
  3  4  2  0  0  0  0
  4  5  1  0  0  0  0
  4 30  1  0  0  0  0
  5  6  2  0  0  0  0
  5 31  1  0  0  0  0
  6  7  1  0  0  0  0
  6 27  1  0  0  0  0
  7  8  1  0  0  0  0
  8  9  1  0  0  0  0
  8 26  2  0  0  0  0
  9 10  2  0  0  0  0
  9 32  1  0  0  0  0
 10 11  1  0  0  0  0
 10 33  1  0  0  0  0
 11 12  1  0  0  0  0
 11 25  2  0  0  0  0
 12 13  1  0  0  0  0
 12 34  1  0  0  0  0
 13 14  2  0  0  0  0
 13 15  1  0  0  0  0
 15 16  1  0  0  0  0
 15 35  1  0  0  0  0
 16 17  2  0  0  0  0
 16 24  1  0  0  0  0
 17 18  1  0  0  0  0
 18 19  1  0  0  0  0
 18 23  2  0  0  0  0
 19 20  2  0  0  0  0
 19 36  1  0  0  0  0
 20 21  1  0  0  0  0
 20 37  1  0  0  0  0
 21 22  2  0  0  0  0
 21 38  1  0  0  0  0
 22 23  1  0  0  0  0
 22 39  1  0  0  0  0
 23 24  1  0  0  0  0
 25 26  1  0  0  0  0
 25 40  1  0  0  0  0
 26 41  1  0  0  0  0
M  END
$$$$
