CHEMBL215952
 OpenBabel04072215363D

 31 33  0  0  0  0  0  0  0  0999 V2000
    2.0051   -0.0120    1.5953 C   0  0  0  0  0  0  0  0  0  0  0  0
    0.7485   -0.0457    0.7626 C   0  0  0  0  0  0  0  0  0  0  0  0
    0.0148    1.1608    0.6981 C   0  0  0  0  0  0  0  0  0  0  0  0
   -1.1372    1.2713   -0.0718 C   0  0  0  0  0  0  0  0  0  0  0  0
   -1.5908    0.1702   -0.7779 C   0  0  0  0  0  0  0  0  0  0  0  0
   -0.8977   -1.0416   -0.6962 C   0  0  0  0  0  0  0  0  0  0  0  0
    0.2864   -1.1944    0.0679 C   0  0  0  0  0  0  0  0  0  0  0  0
    0.9590   -2.5283    0.0769 C   0  0  0  0  0  0  0  0  0  0  0  0
    1.5567   -3.0700    1.2258 C   0  0  0  0  0  0  0  0  0  0  0  0
    2.1911   -4.3236    1.2155 C   0  0  0  0  0  0  0  0  0  0  0  0
    2.1959   -5.1278    0.0903 C   0  0  0  0  0  0  0  0  0  0  0  0
    2.7707   -6.3374    0.1407 N   0  0  0  0  0  0  0  0  0  0  0  0
    2.6926   -7.1018   -0.9503 C   0  0  0  0  0  0  0  0  0  0  0  0
    3.2859   -8.3457   -0.8930 N   0  0  0  0  0  0  0  0  0  0  0  0
    2.1224   -6.7418   -2.1012 N   0  0  0  0  0  0  0  0  0  0  0  0
    1.5657   -5.5146   -2.1244 C   0  0  0  0  0  0  0  0  0  0  0  0
    1.5717   -4.6374   -1.0519 C   0  0  0  0  0  0  0  0  0  0  0  0
    0.9847   -3.3476   -1.0684 C   0  0  0  0  0  0  0  0  0  0  0  0
    2.2987    1.0169    1.8343 H   0  0  0  0  0  0  0  0  0  0  0  0
    2.8453   -0.4593    1.0562 H   0  0  0  0  0  0  0  0  0  0  0  0
    1.8479   -0.5160    2.5531 H   0  0  0  0  0  0  0  0  0  0  0  0
    0.3542    2.0371    1.2489 H   0  0  0  0  0  0  0  0  0  0  0  0
   -1.6748    2.2145   -0.1192 H   0  0  0  0  0  0  0  0  0  0  0  0
   -2.4875    0.2446   -1.3878 H   0  0  0  0  0  0  0  0  0  0  0  0
   -1.3150   -1.8853   -1.2429 H   0  0  0  0  0  0  0  0  0  0  0  0
    1.5289   -2.5432    2.1722 H   0  0  0  0  0  0  0  0  0  0  0  0
    2.6666   -4.6849    2.1226 H   0  0  0  0  0  0  0  0  0  0  0  0
    4.0106   -8.3411   -0.1912 H   0  0  0  0  0  0  0  0  0  0  0  0
    3.5400   -8.6442   -1.8237 H   0  0  0  0  0  0  0  0  0  0  0  0
    1.0895   -5.2552   -3.0671 H   0  0  0  0  0  0  0  0  0  0  0  0
    0.5338   -2.9995   -1.9957 H   0  0  0  0  0  0  0  0  0  0  0  0
  1  2  1  0  0  0  0
  1 19  1  0  0  0  0
  1 20  1  0  0  0  0
  1 21  1  0  0  0  0
  2  3  1  0  0  0  0
  2  7  2  0  0  0  0
  3  4  2  0  0  0  0
  3 22  1  0  0  0  0
  4  5  1  0  0  0  0
  4 23  1  0  0  0  0
  5  6  2  0  0  0  0
  5 24  1  0  0  0  0
  6  7  1  0  0  0  0
  6 25  1  0  0  0  0
  7  8  1  0  0  0  0
  8  9  1  0  0  0  0
  8 18  2  0  0  0  0
  9 10  2  0  0  0  0
  9 26  1  0  0  0  0
 10 11  1  0  0  0  0
 10 27  1  0  0  0  0
 11 12  1  0  0  0  0
 11 17  2  0  0  0  0
 12 13  2  0  0  0  0
 13 14  1  0  0  0  0
 13 15  1  0  0  0  0
 14 28  1  0  0  0  0
 14 29  1  0  0  0  0
 15 16  2  0  0  0  0
 16 17  1  0  0  0  0
 16 30  1  0  0  0  0
 17 18  1  0  0  0  0
 18 31  1  0  0  0  0
M  END
$$$$
