CHEMBL255744
 OpenBabel04072215363D

 48 51  0  0  0  0  0  0  0  0999 V2000
   -2.3534    0.9266   -0.8511 C   0  0  0  0  0  0  0  0  0  0  0  0
   -1.1522    0.1083   -1.2273 C   0  0  0  0  0  0  0  0  0  0  0  0
   -0.1282    0.6738   -1.9982 C   0  0  0  0  0  0  0  0  0  0  0  0
    0.9967   -0.0778   -2.3410 C   0  0  0  0  0  0  0  0  0  0  0  0
    2.1033    0.5018   -3.1721 C   0  0  0  0  0  0  0  0  0  0  0  0
    1.0967   -1.4006   -1.8891 C   0  0  0  0  0  0  0  0  0  0  0  0
    0.0986   -1.9820   -1.0993 C   0  0  0  0  0  0  0  0  0  0  0  0
    0.1930   -3.3067   -0.6009 N   0  0  0  0  0  0  0  0  0  0  0  0
    1.3872   -3.9933   -0.4414 C   0  0  0  0  0  0  0  0  0  0  0  0
    2.5008   -3.5193   -0.6438 O   0  0  0  0  0  0  0  0  0  0  0  0
    1.1844   -5.3094   -0.0370 N   0  0  0  0  0  0  0  0  0  0  0  0
    2.3068   -6.1515    0.1563 C   0  0  0  0  0  0  0  0  0  0  0  0
    3.4010   -5.7425    0.9187 C   0  0  0  0  0  0  0  0  0  0  0  0
    4.5703   -6.5126    0.9522 C   0  0  0  0  0  0  0  0  0  0  0  0
    4.6735   -7.7242    0.2458 C   0  0  0  0  0  0  0  0  0  0  0  0
    5.9557   -8.4585    0.1709 C   0  0  0  0  0  0  0  0  0  0  0  0
    6.8541   -8.4912    1.2632 C   0  0  0  0  0  0  0  0  0  0  0  0
    8.0696   -9.1541    1.1646 C   0  0  0  0  0  0  0  0  0  0  0  0
    8.5076   -9.8166    0.0797 N   0  0  0  0  0  0  0  0  0  0  0  0
    7.6383   -9.7628   -0.9488 C   0  0  0  0  0  0  0  0  0  0  0  0
    7.8351  -10.3398   -2.1623 N   0  0  0  0  0  0  0  0  0  0  0  0
    6.8479  -10.1350   -3.0395 N   0  0  0  0  0  0  0  0  0  0  0  0
    5.9912   -9.3720   -2.3594 C   0  0  0  0  0  0  0  0  0  0  0  0
    4.8722   -8.9249   -2.9545 N   0  0  0  0  0  0  0  0  0  0  0  0
    6.4011   -9.1241   -1.0077 C   0  0  0  0  0  0  0  0  0  0  0  0
    3.5049   -8.1768   -0.3911 C   0  0  0  0  0  0  0  0  0  0  0  0
    2.3449   -7.3919   -0.4682 C   0  0  0  0  0  0  0  0  0  0  0  0
   -1.0384   -1.2256   -0.7940 C   0  0  0  0  0  0  0  0  0  0  0  0
   -2.2871    1.9444   -1.2508 H   0  0  0  0  0  0  0  0  0  0  0  0
   -2.4325    1.0024    0.2381 H   0  0  0  0  0  0  0  0  0  0  0  0
   -3.2631    0.4685   -1.2511 H   0  0  0  0  0  0  0  0  0  0  0  0
   -0.2065    1.7061   -2.3332 H   0  0  0  0  0  0  0  0  0  0  0  0
    1.8922    1.5365   -3.4604 H   0  0  0  0  0  0  0  0  0  0  0  0
    2.2308   -0.0834   -4.0885 H   0  0  0  0  0  0  0  0  0  0  0  0
    3.0421    0.4938   -2.6083 H   0  0  0  0  0  0  0  0  0  0  0  0
    1.9774   -1.9666   -2.1820 H   0  0  0  0  0  0  0  0  0  0  0  0
   -0.5989   -3.6653   -0.0911 H   0  0  0  0  0  0  0  0  0  0  0  0
    0.3653   -5.7404   -0.4411 H   0  0  0  0  0  0  0  0  0  0  0  0
    3.3740   -4.7999    1.4617 H   0  0  0  0  0  0  0  0  0  0  0  0
    5.4158   -6.1166    1.5114 H   0  0  0  0  0  0  0  0  0  0  0  0
    6.6101   -8.0035    2.2018 H   0  0  0  0  0  0  0  0  0  0  0  0
    8.7596   -9.1619    2.0060 H   0  0  0  0  0  0  0  0  0  0  0  0
    8.6446  -10.8887   -2.4446 H   0  0  0  0  0  0  0  0  0  0  0  0
    4.8194   -9.0805   -3.9554 H   0  0  0  0  0  0  0  0  0  0  0  0
    4.5012   -8.0215   -2.6805 H   0  0  0  0  0  0  0  0  0  0  0  0
    3.4965   -9.1413   -0.8952 H   0  0  0  0  0  0  0  0  0  0  0  0
    1.5227   -7.7327   -1.0906 H   0  0  0  0  0  0  0  0  0  0  0  0
   -1.8338   -1.6503   -0.1874 H   0  0  0  0  0  0  0  0  0  0  0  0
  1  2  1  0  0  0  0
  1 29  1  0  0  0  0
  1 30  1  0  0  0  0
  1 31  1  0  0  0  0
  2  3  1  0  0  0  0
  2 28  2  0  0  0  0
  3  4  2  0  0  0  0
  3 32  1  0  0  0  0
  4  5  1  0  0  0  0
  4  6  1  0  0  0  0
  5 33  1  0  0  0  0
  5 34  1  0  0  0  0
  5 35  1  0  0  0  0
  6  7  2  0  0  0  0
  6 36  1  0  0  0  0
  7  8  1  0  0  0  0
  7 28  1  0  0  0  0
  8  9  1  0  0  0  0
  8 37  1  0  0  0  0
  9 10  2  0  0  0  0
  9 11  1  0  0  0  0
 11 12  1  0  0  0  0
 11 38  1  0  0  0  0
 12 13  1  0  0  0  0
 12 27  2  0  0  0  0
 13 14  2  0  0  0  0
 13 39  1  0  0  0  0
 14 15  1  0  0  0  0
 14 40  1  0  0  0  0
 15 16  1  0  0  0  0
 15 26  2  0  0  0  0
 16 17  1  0  0  0  0
 16 25  2  0  0  0  0
 17 18  2  0  0  0  0
 17 41  1  0  0  0  0
 18 19  1  0  0  0  0
 18 42  1  0  0  0  0
 19 20  2  0  0  0  0
 20 21  1  0  0  0  0
 20 25  1  0  0  0  0
 21 22  1  0  0  0  0
 21 43  1  0  0  0  0
 22 23  2  0  0  0  0
 23 24  1  0  0  0  0
 23 25  1  0  0  0  0
 24 44  1  0  0  0  0
 24 45  1  0  0  0  0
 26 27  1  0  0  0  0
 26 46  1  0  0  0  0
 27 47  1  0  0  0  0
 28 48  1  0  0  0  0
M  END
$$$$
