CHEMBL371374
 OpenBabel04072215373D

 39 41  0  0  0  0  0  0  0  0999 V2000
    1.0087   -0.4024   -0.2527 C   0  0  0  0  0  0  0  0  0  0  0  0
    2.5196   -0.5352   -0.2506 C   0  0  0  0  0  0  0  0  0  0  0  0
    3.0939   -1.4977    1.1403 S   0  0  0  0  0  0  0  0  0  0  0  0
    2.7423   -0.7845    2.3544 O   0  0  0  0  0  0  0  0  0  0  0  0
    2.7047   -2.8792    0.9406 O   0  0  0  0  0  0  0  0  0  0  0  0
    4.8627   -1.4391    0.9823 C   0  0  0  0  0  0  0  0  0  0  0  0
    5.4378   -1.9592   -0.1791 C   0  0  0  0  0  0  0  0  0  0  0  0
    6.8137   -1.9128   -0.3258 C   0  0  0  0  0  0  0  0  0  0  0  0
    7.5989   -1.3482    0.6812 C   0  0  0  0  0  0  0  0  0  0  0  0
    7.0421   -0.7968    1.8486 C   0  0  0  0  0  0  0  0  0  0  0  0
    7.8183   -0.1529    2.8361 N   0  0  0  0  0  0  0  0  0  0  0  0
    9.1008    0.2416    2.7034 C   0  0  0  0  0  0  0  0  0  0  0  0
    9.9699   -0.0101    1.7477 N   0  0  0  0  0  0  0  0  0  0  0  0
   11.0850    0.6860    2.0995 C   0  0  0  0  0  0  0  0  0  0  0  0
   10.8715    1.3596    3.2781 C   0  0  0  0  0  0  0  0  0  0  0  0
   11.6855    2.2478    4.0931 C   0  0  0  0  0  0  0  0  0  0  0  0
   12.9904    2.5687    3.6787 C   0  0  0  0  0  0  0  0  0  0  0  0
   13.8048    3.4057    4.4437 C   0  0  0  0  0  0  0  0  0  0  0  0
   13.3209    3.9406    5.6328 C   0  0  0  0  0  0  0  0  0  0  0  0
   12.0264    3.6405    6.0539 C   0  0  0  0  0  0  0  0  0  0  0  0
   11.2124    2.7990    5.2894 C   0  0  0  0  0  0  0  0  0  0  0  0
    9.5900    1.0673    3.6855 O   0  0  0  0  0  0  0  0  0  0  0  0
    5.6498   -0.8731    1.9970 C   0  0  0  0  0  0  0  0  0  0  0  0
    0.6821    0.1875   -1.1144 H   0  0  0  0  0  0  0  0  0  0  0  0
    0.6552    0.0898    0.6559 H   0  0  0  0  0  0  0  0  0  0  0  0
    0.5294   -1.3862   -0.3119 H   0  0  0  0  0  0  0  0  0  0  0  0
    2.9878    0.4515   -0.1893 H   0  0  0  0  0  0  0  0  0  0  0  0
    2.8483   -1.0335   -1.1675 H   0  0  0  0  0  0  0  0  0  0  0  0
    4.8326   -2.4099   -0.9616 H   0  0  0  0  0  0  0  0  0  0  0  0
    7.2919   -2.3115   -1.2164 H   0  0  0  0  0  0  0  0  0  0  0  0
    8.6723   -1.3576    0.5203 H   0  0  0  0  0  0  0  0  0  0  0  0
    7.3130    0.1916    3.6416 H   0  0  0  0  0  0  0  0  0  0  0  0
   11.9714    0.6698    1.4839 H   0  0  0  0  0  0  0  0  0  0  0  0
   13.3966    2.1678    2.7529 H   0  0  0  0  0  0  0  0  0  0  0  0
   14.8120    3.6381    4.1071 H   0  0  0  0  0  0  0  0  0  0  0  0
   13.9529    4.5900    6.2325 H   0  0  0  0  0  0  0  0  0  0  0  0
   11.6492    4.0593    6.9831 H   0  0  0  0  0  0  0  0  0  0  0  0
   10.2064    2.5790    5.6396 H   0  0  0  0  0  0  0  0  0  0  0  0
    5.1729   -0.4832    2.8933 H   0  0  0  0  0  0  0  0  0  0  0  0
  1  2  1  0  0  0  0
  1 24  1  0  0  0  0
  1 25  1  0  0  0  0
  1 26  1  0  0  0  0
  2  3  1  0  0  0  0
  2 27  1  0  0  0  0
  2 28  1  0  0  0  0
  3  4  2  0  0  0  0
  3  5  2  0  0  0  0
  3  6  1  0  0  0  0
  6  7  1  0  0  0  0
  6 23  2  0  0  0  0
  7  8  2  0  0  0  0
  7 29  1  0  0  0  0
  8  9  1  0  0  0  0
  8 30  1  0  0  0  0
  9 10  2  0  0  0  0
  9 31  1  0  0  0  0
 10 11  1  0  0  0  0
 10 23  1  0  0  0  0
 11 12  1  0  0  0  0
 11 32  1  0  0  0  0
 12 13  2  0  0  0  0
 12 22  1  0  0  0  0
 13 14  1  0  0  0  0
 14 15  2  0  0  0  0
 14 33  1  0  0  0  0
 15 16  1  0  0  0  0
 15 22  1  0  0  0  0
 16 17  1  0  0  0  0
 16 21  2  0  0  0  0
 17 18  2  0  0  0  0
 17 34  1  0  0  0  0
 18 19  1  0  0  0  0
 18 35  1  0  0  0  0
 19 20  2  0  0  0  0
 19 36  1  0  0  0  0
 20 21  1  0  0  0  0
 20 37  1  0  0  0  0
 21 38  1  0  0  0  0
 23 39  1  0  0  0  0
M  END
$$$$
