CHEMBL501751
 OpenBabel04072215383D

 60 64  0  0  0  0  0  0  0  0999 V2000
   -2.6038   -0.1733    2.5141 O   0  0  0  0  0  0  0  0  0  0  0  0
   -1.5578   -0.1202    1.8945 C   0  0  0  0  0  0  0  0  0  0  0  0
   -0.5267    0.7579    2.1736 N   0  0  0  0  0  0  0  0  0  0  0  0
    0.6570    0.3427    1.5821 C   0  0  0  0  0  0  0  0  0  0  0  0
    1.8970    0.8994    1.8218 C   0  0  0  0  0  0  0  0  0  0  0  0
    2.9919    0.2594    1.2358 C   0  0  0  0  0  0  0  0  0  0  0  0
    4.3426    0.7294    1.5633 N   0  3  0  0  0  0  0  0  0  0  0  0
    4.4522    1.7007    2.3221 O   0  0  0  0  0  0  0  0  0  0  0  0
    5.2997    0.1159    1.0658 O   0  5  0  0  0  0  0  0  0  0  0  0
    2.8153   -0.8626    0.3938 C   0  0  0  0  0  0  0  0  0  0  0  0
    1.5312   -1.3839    0.1545 C   0  0  0  0  0  0  0  0  0  0  0  0
    0.4463   -0.7879    0.7770 C   0  0  0  0  0  0  0  0  0  0  0  0
   -1.0037   -1.0697    0.8463 C   0  0  0  0  0  0  0  0  0  0  0  0
   -1.8006   -1.9663    0.2196 C   0  0  0  0  0  0  0  0  0  0  0  0
   -3.1875   -1.9900    0.2552 N   0  0  0  0  0  0  0  0  0  0  0  0
   -4.0243   -0.9234   -0.1292 C   0  0  0  0  0  0  0  0  0  0  0  0
   -3.6243   -0.0003   -1.1044 C   0  0  0  0  0  0  0  0  0  0  0  0
   -4.3089    1.2016   -1.2899 C   0  0  0  0  0  0  0  0  0  0  0  0
   -5.4198    1.5094   -0.5001 C   0  0  0  0  0  0  0  0  0  0  0  0
   -6.0142    2.9027   -0.5271 C   0  0  0  0  0  0  0  0  0  0  0  0
   -6.4799    3.3712   -1.8523 N   0  0  0  0  0  0  0  0  0  0  0  0
   -7.6330    2.5729   -2.2978 C   0  0  0  0  0  0  0  0  0  0  0  0
   -8.2931    3.1227   -3.5621 C   0  0  0  0  0  0  0  0  0  0  0  0
   -8.6972    4.5770   -3.3790 C   0  0  0  0  0  0  0  0  0  0  0  0
   -7.4700    5.3915   -3.0025 C   0  0  0  0  0  0  0  0  0  0  0  0
   -6.7764    4.8142   -1.7671 C   0  0  0  0  0  0  0  0  0  0  0  0
   -5.8849    0.5448    0.4073 C   0  0  0  0  0  0  0  0  0  0  0  0
   -5.1983   -0.6646    0.5838 C   0  0  0  0  0  0  0  0  0  0  0  0
   -1.2271   -3.0768   -0.5642 C   0  0  0  0  0  0  0  0  0  0  0  0
   -0.9444   -4.2864    0.0821 C   0  0  0  0  0  0  0  0  0  0  0  0
   -0.4497   -5.3738   -0.6397 C   0  0  0  0  0  0  0  0  0  0  0  0
   -0.2345   -5.2574   -2.0119 C   0  0  0  0  0  0  0  0  0  0  0  0
   -0.5161   -4.0572   -2.6678 C   0  0  0  0  0  0  0  0  0  0  0  0
   -1.0156   -2.9654   -1.9438 C   0  0  0  0  0  0  0  0  0  0  0  0
   -0.6141    1.4644    2.8888 H   0  0  0  0  0  0  0  0  0  0  0  0
    2.0061    1.7609    2.4719 H   0  0  0  0  0  0  0  0  0  0  0  0
    3.6733   -1.3562   -0.0615 H   0  0  0  0  0  0  0  0  0  0  0  0
    1.4218   -2.2566   -0.4796 H   0  0  0  0  0  0  0  0  0  0  0  0
   -3.6353   -2.8726    0.4660 H   0  0  0  0  0  0  0  0  0  0  0  0
   -2.7515   -0.2015   -1.7165 H   0  0  0  0  0  0  0  0  0  0  0  0
   -3.9386    1.9213   -2.0156 H   0  0  0  0  0  0  0  0  0  0  0  0
   -5.2220    3.5721   -0.1633 H   0  0  0  0  0  0  0  0  0  0  0  0
   -6.8274    2.9742    0.2086 H   0  0  0  0  0  0  0  0  0  0  0  0
   -8.3900    2.5016   -1.5060 H   0  0  0  0  0  0  0  0  0  0  0  0
   -7.2999    1.5526   -2.5225 H   0  0  0  0  0  0  0  0  0  0  0  0
   -9.1759    2.5212   -3.8066 H   0  0  0  0  0  0  0  0  0  0  0  0
   -7.6016    3.0368   -4.4095 H   0  0  0  0  0  0  0  0  0  0  0  0
   -9.4574    4.6595   -2.5922 H   0  0  0  0  0  0  0  0  0  0  0  0
   -9.1422    4.9660   -4.3011 H   0  0  0  0  0  0  0  0  0  0  0  0
   -7.7642    6.4296   -2.8075 H   0  0  0  0  0  0  0  0  0  0  0  0
   -6.7703    5.4124   -3.8470 H   0  0  0  0  0  0  0  0  0  0  0  0
   -7.3937    5.0351   -0.8864 H   0  0  0  0  0  0  0  0  0  0  0  0
   -5.8306    5.3572   -1.6379 H   0  0  0  0  0  0  0  0  0  0  0  0
   -6.7464    0.7530    1.0376 H   0  0  0  0  0  0  0  0  0  0  0  0
   -5.5297   -1.3521    1.3577 H   0  0  0  0  0  0  0  0  0  0  0  0
   -1.1282   -4.3925    1.1482 H   0  0  0  0  0  0  0  0  0  0  0  0
   -0.2452   -6.3128   -0.1334 H   0  0  0  0  0  0  0  0  0  0  0  0
    0.1417   -6.1072   -2.5759 H   0  0  0  0  0  0  0  0  0  0  0  0
   -0.3586   -3.9732   -3.7347 H   0  0  0  0  0  0  0  0  0  0  0  0
   -1.2447   -2.0427   -2.4661 H   0  0  0  0  0  0  0  0  0  0  0  0
  1  2  2  0  0  0  0
  2  3  1  0  0  0  0
  2 13  1  0  0  0  0
  3  4  1  0  0  0  0
  3 35  1  0  0  0  0
  4  5  1  0  0  0  0
  4 12  2  0  0  0  0
  5  6  2  0  0  0  0
  5 36  1  0  0  0  0
  6  7  1  0  0  0  0
  6 10  1  0  0  0  0
  7  8  2  0  0  0  0
  7  9  1  0  0  0  0
 10 11  2  0  0  0  0
 10 37  1  0  0  0  0
 11 12  1  0  0  0  0
 11 38  1  0  0  0  0
 12 13  1  0  0  0  0
 13 14  2  0  0  0  0
 14 15  1  0  0  0  0
 14 29  1  0  0  0  0
 15 16  1  0  0  0  0
 15 39  1  0  0  0  0
 16 17  1  0  0  0  0
 16 28  2  0  0  0  0
 17 18  2  0  0  0  0
 17 40  1  0  0  0  0
 18 19  1  0  0  0  0
 18 41  1  0  0  0  0
 19 20  1  0  0  0  0
 19 27  2  0  0  0  0
 20 21  1  0  0  0  0
 20 42  1  0  0  0  0
 20 43  1  0  0  0  0
 21 22  1  0  0  0  0
 21 26  1  0  0  0  0
 22 23  1  0  0  0  0
 22 44  1  0  0  0  0
 22 45  1  0  0  0  0
 23 24  1  0  0  0  0
 23 46  1  0  0  0  0
 23 47  1  0  0  0  0
 24 25  1  0  0  0  0
 24 48  1  0  0  0  0
 24 49  1  0  0  0  0
 25 26  1  0  0  0  0
 25 50  1  0  0  0  0
 25 51  1  0  0  0  0
 26 52  1  0  0  0  0
 26 53  1  0  0  0  0
 27 28  1  0  0  0  0
 27 54  1  0  0  0  0
 28 55  1  0  0  0  0
 29 30  1  0  0  0  0
 29 34  2  0  0  0  0
 30 31  2  0  0  0  0
 30 56  1  0  0  0  0
 31 32  1  0  0  0  0
 31 57  1  0  0  0  0
 32 33  2  0  0  0  0
 32 58  1  0  0  0  0
 33 34  1  0  0  0  0
 33 59  1  0  0  0  0
 34 60  1  0  0  0  0
M  CHG  2   7   1   9  -1
M  END
$$$$
