CHEMBL1991285
 OpenBabel04072215363D

 50 52  0  0  1  0  0  0  0  0999 V2000
    0.5656    2.0623    0.0306 C   0  0  0  0  0  0  0  0  0  0  0  0
   -0.3415    0.8615    0.0056 C   0  0  0  0  0  0  0  0  0  0  0  0
   -1.7304    1.0569   -0.0018 C   0  0  0  0  0  0  0  0  0  0  0  0
   -2.6183   -0.0277   -0.0471 C   0  0  0  0  0  0  0  0  0  0  0  0
   -3.9858    0.0998   -0.1078 O   0  0  0  0  0  0  0  0  0  0  0  0
   -4.4880    1.4239   -0.3364 C   0  0  0  0  0  0  0  0  0  0  0  0
   -6.0020    1.3927   -0.5257 C   0  0  3  0  0  0  0  0  0  0  0  0
   -6.7450    0.7654    0.6519 C   0  0  0  0  0  0  0  0  0  0  0  0
   -8.0556    0.2243    0.0814 C   0  0  0  0  0  0  0  0  0  0  0  0
   -7.9274    0.2722   -1.4430 C   0  0  3  0  0  0  0  0  0  0  0  0
   -8.8353    1.3452   -2.0189 C   0  0  0  0  0  0  0  0  0  0  0  0
   -8.5158    2.5089   -2.2029 O   0  0  0  0  0  0  0  0  0  0  0  0
  -10.0819    0.8904   -2.2833 O   0  0  0  0  0  0  0  0  0  0  0  0
   -6.4508    0.5518   -1.7199 C   0  0  0  0  0  0  0  0  0  0  0  0
   -2.1086   -1.3380   -0.0891 C   0  0  0  0  0  0  0  0  0  0  0  0
   -3.0187   -2.4284   -0.1562 N   0  0  0  0  0  0  0  0  0  0  0  0
   -2.8100   -3.5123   -0.9927 C   0  0  0  0  0  0  0  0  0  0  0  0
   -1.8017   -3.6686   -1.6727 O   0  0  0  0  0  0  0  0  0  0  0  0
   -3.8830   -4.3834   -1.0262 N   0  0  0  0  0  0  0  0  0  0  0  0
   -3.8978   -5.4518   -1.9432 C   0  0  0  0  0  0  0  0  0  0  0  0
   -2.7759   -6.2418   -2.2099 C   0  0  0  0  0  0  0  0  0  0  0  0
   -2.7396   -7.1815   -3.1943 N   0  0  0  0  0  0  0  0  0  0  0  0
   -3.8715   -7.2913   -3.9277 C   0  0  0  0  0  0  0  0  0  0  0  0
   -3.8481   -8.1910   -5.0509 C   0  0  0  0  0  0  0  0  0  0  0  0
   -3.8742   -8.8975   -5.9652 N   0  0  0  0  0  0  0  0  0  0  0  0
   -5.0059   -6.5461   -3.6298 C   0  0  0  0  0  0  0  0  0  0  0  0
   -5.0564   -5.6377   -2.6131 N   0  0  0  0  0  0  0  0  0  0  0  0
   -0.7231   -1.5384   -0.0740 C   0  0  0  0  0  0  0  0  0  0  0  0
    0.1514   -0.4485   -0.0207 C   0  0  0  0  0  0  0  0  0  0  0  0
    1.8491   -0.7696    0.0203 Cl  0  0  0  0  0  0  0  0  0  0  0  0
   -0.0069    2.9991    0.0390 H   0  0  0  0  0  0  0  0  0  0  0  0
    1.2006    2.0796   -0.8601 H   0  0  0  0  0  0  0  0  0  0  0  0
    1.1891    2.0544    0.9301 H   0  0  0  0  0  0  0  0  0  0  0  0
   -2.0970    2.0787    0.0141 H   0  0  0  0  0  0  0  0  0  0  0  0
   -4.0315    1.8531   -1.2368 H   0  0  0  0  0  0  0  0  0  0  0  0
   -4.2638    2.0525    0.5334 H   0  0  0  0  0  0  0  0  0  0  0  0
   -6.3522    2.4244   -0.6593 H   0  0  0  0  0  0  0  0  0  0  0  0
   -6.9229    1.5007    1.4446 H   0  0  0  0  0  0  0  0  0  0  0  0
   -6.1769   -0.0578    1.1002 H   0  0  0  0  0  0  0  0  0  0  0  0
   -8.9064    0.8081    0.4493 H   0  0  0  0  0  0  0  0  0  0  0  0
   -8.1997   -0.8077    0.4211 H   0  0  0  0  0  0  0  0  0  0  0  0
   -8.1991   -0.6847   -1.9041 H   0  0  0  0  0  0  0  0  0  0  0  0
  -10.2156   -0.0552   -2.0842 H   0  0  0  0  0  0  0  0  0  0  0  0
   -6.2800    1.0744   -2.6674 H   0  0  0  0  0  0  0  0  0  0  0  0
   -5.9013   -0.3963   -1.7593 H   0  0  0  0  0  0  0  0  0  0  0  0
   -3.9747   -2.1884    0.0666 H   0  0  0  0  0  0  0  0  0  0  0  0
   -4.7977   -3.9894   -0.8746 H   0  0  0  0  0  0  0  0  0  0  0  0
   -1.8598   -6.1442   -1.6342 H   0  0  0  0  0  0  0  0  0  0  0  0
   -5.9129   -6.6344   -4.2197 H   0  0  0  0  0  0  0  0  0  0  0  0
   -0.3142   -2.5458   -0.0851 H   0  0  0  0  0  0  0  0  0  0  0  0
  1  2  1  0  0  0  0
  1 31  1  0  0  0  0
  1 32  1  0  0  0  0
  1 33  1  0  0  0  0
  2  3  1  0  0  0  0
  2 29  2  0  0  0  0
  3  4  2  0  0  0  0
  3 34  1  0  0  0  0
  4  5  1  0  0  0  0
  4 15  1  0  0  0  0
  5  6  1  0  0  0  0
  6  7  1  0  0  0  0
  6 35  1  0  0  0  0
  6 36  1  0  0  0  0
  7  8  1  0  0  0  0
  7 14  1  0  0  0  0
  7 37  1  0  0  0  0
  8  9  1  0  0  0  0
  8 38  1  0  0  0  0
  8 39  1  0  0  0  0
  9 10  1  0  0  0  0
  9 40  1  0  0  0  0
  9 41  1  0  0  0  0
 10 11  1  0  0  0  0
 10 14  1  0  0  0  0
 10 42  1  0  0  0  0
 11 12  2  0  0  0  0
 11 13  1  0  0  0  0
 13 43  1  0  0  0  0
 14 44  1  0  0  0  0
 14 45  1  0  0  0  0
 15 16  1  0  0  0  0
 15 28  2  0  0  0  0
 16 17  1  0  0  0  0
 16 46  1  0  0  0  0
 17 18  2  0  0  0  0
 17 19  1  0  0  0  0
 19 20  1  0  0  0  0
 19 47  1  0  0  0  0
 20 21  1  0  0  0  0
 20 27  2  0  0  0  0
 21 22  2  0  0  0  0
 21 48  1  0  0  0  0
 22 23  1  0  0  0  0
 23 24  1  0  0  0  0
 23 26  2  0  0  0  0
 24 25  3  0  0  0  0
 26 27  1  0  0  0  0
 26 49  1  0  0  0  0
 28 29  1  0  0  0  0
 28 50  1  0  0  0  0
 29 30  1  0  0  0  0
M  END
$$$$
