CHEMBL612137
 OpenBabel04072215383D

 62 65  0  0  1  0  0  0  0  0999 V2000
    5.1326   -1.4690    0.1934 O   0  0  0  0  0  0  0  0  0  0  0  0
    5.0040   -2.5650   -0.3440 C   0  0  0  0  0  0  0  0  0  0  0  0
    3.7815   -2.8525   -1.1998 C   0  0  0  0  0  0  0  0  0  0  0  0
    2.6139   -1.9673   -0.7227 C   0  0  3  0  0  0  0  0  0  0  0  0
    1.4782   -2.1208   -1.6978 N   0  0  0  0  0  0  0  0  0  0  0  0
    0.5707   -1.0491   -1.8271 C   0  0  0  0  0  0  0  0  0  0  0  0
    0.9555    0.2982   -1.8096 C   0  0  0  0  0  0  0  0  0  0  0  0
    0.0244    1.3299   -1.9856 C   0  0  0  0  0  0  0  0  0  0  0  0
   -1.3155    1.0340   -2.2286 C   0  0  0  0  0  0  0  0  0  0  0  0
   -2.1604    2.0980   -2.4407 O   0  0  0  0  0  0  0  0  0  0  0  0
   -3.4012    2.0839   -1.8123 C   0  0  0  0  0  0  0  0  0  0  0  0
   -4.3257    2.9997   -2.2713 C   0  0  0  0  0  0  0  0  0  0  0  0
   -5.5520    2.9986   -1.6417 C   0  0  0  0  0  0  0  0  0  0  0  0
   -6.5129    3.9450   -2.0485 N   0  0  0  0  0  0  0  0  0  0  0  0
   -7.7765    4.0577   -1.5176 C   0  0  0  0  0  0  0  0  0  0  0  0
   -8.2690    3.3028   -0.6827 O   0  0  0  0  0  0  0  0  0  0  0  0
   -8.5117    5.1329   -1.9847 N   0  0  0  0  0  0  0  0  0  0  0  0
   -8.1510    6.1747   -2.9272 C   0  0  0  0  0  0  0  0  0  0  0  0
   -9.0544    7.3354   -2.5431 C   0  0  0  0  0  0  0  0  0  0  0  0
  -10.3339    6.6567   -2.0706 C   0  0  0  0  0  0  0  0  0  0  0  0
   -9.8704    5.3217   -1.5017 C   0  0  0  0  0  0  0  0  0  0  0  0
   -5.8290    2.1419   -0.6519 N   0  0  0  0  0  0  0  0  0  0  0  0
   -4.8606    1.3032   -0.2732 C   0  0  0  0  0  0  0  0  0  0  0  0
   -3.6303    1.2506   -0.7856 N   0  0  0  0  0  0  0  0  0  0  0  0
   -1.6893   -0.3010   -2.3590 C   0  0  0  0  0  0  0  0  0  0  0  0
   -2.9367   -0.6333   -2.7261 F   0  0  0  0  0  0  0  0  0  0  0  0
   -0.7641   -1.3285   -2.1541 C   0  0  0  0  0  0  0  0  0  0  0  0
    2.2237   -2.3230    0.7429 C   0  0  0  0  0  0  0  0  0  0  0  0
    2.9933   -3.3097    1.2605 F   0  0  0  0  0  0  0  0  0  0  0  0
    2.3130   -1.2532    1.5610 F   0  0  0  0  0  0  0  0  0  0  0  0
    0.9458   -2.7774    0.8080 F   0  0  0  0  0  0  0  0  0  0  0  0
    5.8972   -3.6138   -0.2802 N   0  0  0  0  0  0  0  0  0  0  0  0
    7.0732   -3.6557    0.5034 C   0  0  0  0  0  0  0  0  0  0  0  0
    7.3737   -2.7223    1.4998 C   0  0  0  0  0  0  0  0  0  0  0  0
    8.5857   -2.7840    2.1933 C   0  0  0  0  0  0  0  0  0  0  0  0
    9.5050   -3.7875    1.9052 C   0  0  0  0  0  0  0  0  0  0  0  0
    9.1969   -4.7507    0.9473 C   0  0  0  0  0  0  0  0  0  0  0  0
    7.9811   -4.6928    0.2583 C   0  0  0  0  0  0  0  0  0  0  0  0
    3.5148   -3.9139   -1.1530 H   0  0  0  0  0  0  0  0  0  0  0  0
    4.0392   -2.6179   -2.2405 H   0  0  0  0  0  0  0  0  0  0  0  0
    2.9705   -0.9342   -0.7305 H   0  0  0  0  0  0  0  0  0  0  0  0
    0.9565   -2.9786   -1.4948 H   0  0  0  0  0  0  0  0  0  0  0  0
    1.9969    0.5862   -1.6804 H   0  0  0  0  0  0  0  0  0  0  0  0
    0.3573    2.3637   -1.9470 H   0  0  0  0  0  0  0  0  0  0  0  0
   -4.0822    3.6760   -3.0788 H   0  0  0  0  0  0  0  0  0  0  0  0
   -6.2637    4.5644   -2.7966 H   0  0  0  0  0  0  0  0  0  0  0  0
   -8.3865    5.8048   -3.9312 H   0  0  0  0  0  0  0  0  0  0  0  0
   -7.0925    6.4387   -2.8764 H   0  0  0  0  0  0  0  0  0  0  0  0
   -9.2250    8.0309   -3.3695 H   0  0  0  0  0  0  0  0  0  0  0  0
   -8.6076    7.8950   -1.7124 H   0  0  0  0  0  0  0  0  0  0  0  0
  -11.0128    6.4931   -2.9146 H   0  0  0  0  0  0  0  0  0  0  0  0
  -10.8677    7.2544   -1.3247 H   0  0  0  0  0  0  0  0  0  0  0  0
  -10.4945    4.4966   -1.8634 H   0  0  0  0  0  0  0  0  0  0  0  0
   -9.8790    5.3131   -0.4069 H   0  0  0  0  0  0  0  0  0  0  0  0
   -5.1022    0.6041    0.5189 H   0  0  0  0  0  0  0  0  0  0  0  0
   -1.1138   -2.3510   -2.2567 H   0  0  0  0  0  0  0  0  0  0  0  0
    5.7484   -4.3979   -0.9023 H   0  0  0  0  0  0  0  0  0  0  0  0
    6.6804   -1.9321    1.7710 H   0  0  0  0  0  0  0  0  0  0  0  0
    8.8083   -2.0395    2.9537 H   0  0  0  0  0  0  0  0  0  0  0  0
   10.4570   -3.8189    2.4282 H   0  0  0  0  0  0  0  0  0  0  0  0
    9.9091   -5.5418    0.7284 H   0  0  0  0  0  0  0  0  0  0  0  0
    7.7716   -5.4541   -0.4877 H   0  0  0  0  0  0  0  0  0  0  0  0
  1  2  2  0  0  0  0
  2  3  1  0  0  0  0
  2 32  1  0  0  0  0
  3  4  1  0  0  0  0
  3 39  1  0  0  0  0
  3 40  1  0  0  0  0
  4  5  1  0  0  0  0
  4 28  1  0  0  0  0
  4 41  1  0  0  0  0
  5  6  1  0  0  0  0
  5 42  1  0  0  0  0
  6  7  1  0  0  0  0
  6 27  2  0  0  0  0
  7  8  2  0  0  0  0
  7 43  1  0  0  0  0
  8  9  1  0  0  0  0
  8 44  1  0  0  0  0
  9 10  1  0  0  0  0
  9 25  2  0  0  0  0
 10 11  1  0  0  0  0
 11 12  1  0  0  0  0
 11 24  2  0  0  0  0
 12 13  2  0  0  0  0
 12 45  1  0  0  0  0
 13 14  1  0  0  0  0
 13 22  1  0  0  0  0
 14 15  1  0  0  0  0
 14 46  1  0  0  0  0
 15 16  2  0  0  0  0
 15 17  1  0  0  0  0
 17 18  1  0  0  0  0
 17 21  1  0  0  0  0
 18 19  1  0  0  0  0
 18 47  1  0  0  0  0
 18 48  1  0  0  0  0
 19 20  1  0  0  0  0
 19 49  1  0  0  0  0
 19 50  1  0  0  0  0
 20 21  1  0  0  0  0
 20 51  1  0  0  0  0
 20 52  1  0  0  0  0
 21 53  1  0  0  0  0
 21 54  1  0  0  0  0
 22 23  2  0  0  0  0
 23 24  1  0  0  0  0
 23 55  1  0  0  0  0
 25 26  1  0  0  0  0
 25 27  1  0  0  0  0
 27 56  1  0  0  0  0
 28 29  1  0  0  0  0
 28 30  1  0  0  0  0
 28 31  1  0  0  0  0
 32 33  1  0  0  0  0
 32 57  1  0  0  0  0
 33 34  1  0  0  0  0
 33 38  2  0  0  0  0
 34 35  2  0  0  0  0
 34 58  1  0  0  0  0
 35 36  1  0  0  0  0
 35 59  1  0  0  0  0
 36 37  2  0  0  0  0
 36 60  1  0  0  0  0
 37 38  1  0  0  0  0
 37 61  1  0  0  0  0
 38 62  1  0  0  0  0
M  END
$$$$
