CHEMBL2086734
 OpenBabel04072215363D

 41 45  0  0  0  0  0  0  0  0999 V2000
   -4.3594    1.1913    0.3932 O   0  0  0  0  0  0  0  0  0  0  0  0
   -3.3032    0.5983    0.2559 C   0  0  0  0  0  0  0  0  0  0  0  0
   -2.0896    1.2328    0.1576 N   0  0  0  0  0  0  0  0  0  0  0  0
   -1.0476    0.3287    0.1168 C   0  0  0  0  0  0  0  0  0  0  0  0
    0.2885    0.6815    0.0446 C   0  0  0  0  0  0  0  0  0  0  0  0
    1.2103   -0.3543    0.0231 C   0  0  0  0  0  0  0  0  0  0  0  0
    3.0559    0.0465   -0.0618 Br  0  0  0  0  0  0  0  0  0  0  0  0
    0.7837   -1.6904    0.0689 C   0  0  0  0  0  0  0  0  0  0  0  0
   -0.5861   -2.0129    0.1390 C   0  0  0  0  0  0  0  0  0  0  0  0
   -1.5222   -0.9949    0.1654 C   0  0  0  0  0  0  0  0  0  0  0  0
   -3.0085   -0.9127    0.2104 C   0  0  0  0  0  0  0  0  0  0  0  0
   -4.0228   -1.8197    0.1979 C   0  0  0  0  0  0  0  0  0  0  0  0
   -5.4191   -1.2831    0.0685 C   0  0  0  0  0  0  0  0  0  0  0  0
   -5.9661   -1.0773   -1.2085 C   0  0  0  0  0  0  0  0  0  0  0  0
   -7.2955   -0.6786   -1.3446 C   0  0  0  0  0  0  0  0  0  0  0  0
   -8.0897   -0.5052   -0.2119 C   0  0  0  0  0  0  0  0  0  0  0  0
   -7.5585   -0.7267    1.0593 C   0  0  0  0  0  0  0  0  0  0  0  0
   -6.2258   -1.1121    1.2036 C   0  0  0  0  0  0  0  0  0  0  0  0
   -3.8684   -3.2602    0.2266 C   0  0  0  0  0  0  0  0  0  0  0  0
   -2.8592   -4.1175    0.2392 N   0  0  0  0  0  0  0  0  0  0  0  0
   -3.4134   -5.3907    0.2023 C   0  0  0  0  0  0  0  0  0  0  0  0
   -2.8221   -6.6660    0.1773 C   0  0  0  0  0  0  0  0  0  0  0  0
   -3.6577   -7.7996    0.0856 C   0  0  0  0  0  0  0  0  0  0  0  0
   -5.0469   -7.6718    0.0319 C   0  0  0  0  0  0  0  0  0  0  0  0
   -5.6499   -6.4156    0.0951 C   0  0  0  0  0  0  0  0  0  0  0  0
   -4.7922   -5.3197    0.1787 C   0  0  0  0  0  0  0  0  0  0  0  0
   -5.0506   -3.9839    0.2575 N   0  0  0  0  0  0  0  0  0  0  0  0
   -2.0085    2.2388    0.1681 H   0  0  0  0  0  0  0  0  0  0  0  0
    0.5957    1.7208    0.0086 H   0  0  0  0  0  0  0  0  0  0  0  0
    1.5146   -2.4945    0.0502 H   0  0  0  0  0  0  0  0  0  0  0  0
   -0.8686   -3.0559    0.1690 H   0  0  0  0  0  0  0  0  0  0  0  0
   -5.3607   -1.2284   -2.0999 H   0  0  0  0  0  0  0  0  0  0  0  0
   -7.7104   -0.4989   -2.3332 H   0  0  0  0  0  0  0  0  0  0  0  0
   -9.1236   -0.1862   -0.3191 H   0  0  0  0  0  0  0  0  0  0  0  0
   -8.1811   -0.5889    1.9394 H   0  0  0  0  0  0  0  0  0  0  0  0
   -5.8188   -1.2775    2.1984 H   0  0  0  0  0  0  0  0  0  0  0  0
   -1.7450   -6.7799    0.2193 H   0  0  0  0  0  0  0  0  0  0  0  0
   -3.2153   -8.7938    0.0500 H   0  0  0  0  0  0  0  0  0  0  0  0
   -5.6726   -8.5578   -0.0560 H   0  0  0  0  0  0  0  0  0  0  0  0
   -6.7279   -6.3008    0.0682 H   0  0  0  0  0  0  0  0  0  0  0  0
   -5.9796   -3.5946    0.2990 H   0  0  0  0  0  0  0  0  0  0  0  0
  1  2  2  0  0  0  0
  2  3  1  0  0  0  0
  2 11  1  0  0  0  0
  3  4  1  0  0  0  0
  3 28  1  0  0  0  0
  4  5  1  0  0  0  0
  4 10  2  0  0  0  0
  5  6  2  0  0  0  0
  5 29  1  0  0  0  0
  6  7  1  0  0  0  0
  6  8  1  0  0  0  0
  8  9  2  0  0  0  0
  8 30  1  0  0  0  0
  9 10  1  0  0  0  0
  9 31  1  0  0  0  0
 10 11  1  0  0  0  0
 11 12  2  3  0  0  0
 12 13  1  0  0  0  0
 12 19  1  0  0  0  0
 13 14  1  0  0  0  0
 13 18  2  0  0  0  0
 14 15  2  0  0  0  0
 14 32  1  0  0  0  0
 15 16  1  0  0  0  0
 15 33  1  0  0  0  0
 16 17  2  0  0  0  0
 16 34  1  0  0  0  0
 17 18  1  0  0  0  0
 17 35  1  0  0  0  0
 18 36  1  0  0  0  0
 19 20  2  0  0  0  0
 19 27  1  0  0  0  0
 20 21  1  0  0  0  0
 21 22  1  0  0  0  0
 21 26  2  0  0  0  0
 22 23  2  0  0  0  0
 22 37  1  0  0  0  0
 23 24  1  0  0  0  0
 23 38  1  0  0  0  0
 24 25  2  0  0  0  0
 24 39  1  0  0  0  0
 25 26  1  0  0  0  0
 25 40  1  0  0  0  0
 26 27  1  0  0  0  0
 27 41  1  0  0  0  0
M  END
$$$$
