CHEMBL148869
 OpenBabel04072215363D

 50 52  0  0  0  0  0  0  0  0999 V2000
    1.7878    1.5507   -0.4383 C   0  0  0  0  0  0  0  0  0  0  0  0
    2.6203    0.4465   -0.1377 O   0  0  0  0  0  0  0  0  0  0  0  0
    3.2035   -0.1328   -1.3066 C   0  0  0  0  0  0  0  0  0  0  0  0
    4.1424   -1.2223   -0.8197 C   0  0  0  0  0  0  0  0  0  0  0  0
    4.7955   -1.8871   -1.8934 O   0  0  0  0  0  0  0  0  0  0  0  0
    6.1474   -2.0982   -1.8086 C   0  0  0  0  0  0  0  0  0  0  0  0
    6.7359   -2.1937   -3.0847 C   0  0  0  0  0  0  0  0  0  0  0  0
    8.0988   -2.3750   -3.2782 C   0  0  0  0  0  0  0  0  0  0  0  0
    8.5669   -2.4984   -4.5239 N   0  0  0  0  0  0  0  0  0  0  0  0
    9.8808   -2.7218   -4.6509 C   0  0  0  0  0  0  0  0  0  0  0  0
   10.7566   -2.8303   -3.6534 N   0  0  0  0  0  0  0  0  0  0  0  0
   10.2784   -2.6883   -2.4010 C   0  0  0  0  0  0  0  0  0  0  0  0
   11.1696   -2.8671   -1.3112 N   0  0  0  0  0  0  0  0  0  0  0  0
   12.4088   -3.5377   -1.3999 C   0  0  0  0  0  0  0  0  0  0  0  0
   12.5254   -4.7418   -2.1087 C   0  0  0  0  0  0  0  0  0  0  0  0
   13.7638   -5.3637   -2.2605 C   0  0  0  0  0  0  0  0  0  0  0  0
   14.8972   -4.7919   -1.6865 C   0  0  0  0  0  0  0  0  0  0  0  0
   16.4324   -5.5272   -1.9305 Cl  0  0  0  0  0  0  0  0  0  0  0  0
   14.7969   -3.6276   -0.9299 C   0  0  0  0  0  0  0  0  0  0  0  0
   13.5543   -3.0180   -0.7853 C   0  0  0  0  0  0  0  0  0  0  0  0
   13.4615   -1.8887   -0.0653 F   0  0  0  0  0  0  0  0  0  0  0  0
    8.9224   -2.4395   -2.1523 C   0  0  0  0  0  0  0  0  0  0  0  0
    8.3515   -2.3379   -0.8650 C   0  0  0  0  0  0  0  0  0  0  0  0
    6.9672   -2.2488   -0.6851 C   0  0  0  0  0  0  0  0  0  0  0  0
    6.6249   -2.3439    0.6388 O   0  0  0  0  0  0  0  0  0  0  0  0
    5.4838   -3.1396    0.9313 C   0  0  0  0  0  0  0  0  0  0  0  0
    5.7585   -4.3501    1.8067 C   0  0  0  0  0  0  0  0  0  0  0  0
    4.4708   -4.9364    2.0211 O   0  0  0  0  0  0  0  0  0  0  0  0
    4.5059   -6.1390    2.7593 C   0  0  0  0  0  0  0  0  0  0  0  0
    1.3721    1.9220    0.5025 H   0  0  0  0  0  0  0  0  0  0  0  0
    0.9661    1.2442   -1.0900 H   0  0  0  0  0  0  0  0  0  0  0  0
    2.3703    2.3502   -0.9038 H   0  0  0  0  0  0  0  0  0  0  0  0
    3.7599    0.6171   -1.8735 H   0  0  0  0  0  0  0  0  0  0  0  0
    2.4231   -0.5439   -1.9588 H   0  0  0  0  0  0  0  0  0  0  0  0
    3.5237   -1.9546   -0.2885 H   0  0  0  0  0  0  0  0  0  0  0  0
    4.8367   -0.7667   -0.1087 H   0  0  0  0  0  0  0  0  0  0  0  0
    6.0952   -2.1409   -3.9632 H   0  0  0  0  0  0  0  0  0  0  0  0
   10.2651   -2.8380   -5.6574 H   0  0  0  0  0  0  0  0  0  0  0  0
   11.2222   -2.0235   -0.7459 H   0  0  0  0  0  0  0  0  0  0  0  0
   11.6450   -5.1900   -2.5652 H   0  0  0  0  0  0  0  0  0  0  0  0
   13.8336   -6.2807   -2.8406 H   0  0  0  0  0  0  0  0  0  0  0  0
   15.6706   -3.1804   -0.4680 H   0  0  0  0  0  0  0  0  0  0  0  0
    8.9860   -2.3930    0.0170 H   0  0  0  0  0  0  0  0  0  0  0  0
    4.9803   -3.5164    0.0359 H   0  0  0  0  0  0  0  0  0  0  0  0
    4.7819   -2.4957    1.4738 H   0  0  0  0  0  0  0  0  0  0  0  0
    6.2176   -4.0597    2.7576 H   0  0  0  0  0  0  0  0  0  0  0  0
    6.4258   -5.0509    1.2925 H   0  0  0  0  0  0  0  0  0  0  0  0
    3.4758   -6.4976    2.8444 H   0  0  0  0  0  0  0  0  0  0  0  0
    4.9033   -5.9622    3.7610 H   0  0  0  0  0  0  0  0  0  0  0  0
    5.0944   -6.8936    2.2311 H   0  0  0  0  0  0  0  0  0  0  0  0
  1  2  1  0  0  0  0
  1 30  1  0  0  0  0
  1 31  1  0  0  0  0
  1 32  1  0  0  0  0
  2  3  1  0  0  0  0
  3  4  1  0  0  0  0
  3 33  1  0  0  0  0
  3 34  1  0  0  0  0
  4  5  1  0  0  0  0
  4 35  1  0  0  0  0
  4 36  1  0  0  0  0
  5  6  1  0  0  0  0
  6  7  1  0  0  0  0
  6 24  2  0  0  0  0
  7  8  2  0  0  0  0
  7 37  1  0  0  0  0
  8  9  1  0  0  0  0
  8 22  1  0  0  0  0
  9 10  2  0  0  0  0
 10 11  1  0  0  0  0
 10 38  1  0  0  0  0
 11 12  2  0  0  0  0
 12 13  1  0  0  0  0
 12 22  1  0  0  0  0
 13 14  1  0  0  0  0
 13 39  1  0  0  0  0
 14 15  1  0  0  0  0
 14 20  2  0  0  0  0
 15 16  2  0  0  0  0
 15 40  1  0  0  0  0
 16 17  1  0  0  0  0
 16 41  1  0  0  0  0
 17 18  1  0  0  0  0
 17 19  2  0  0  0  0
 19 20  1  0  0  0  0
 19 42  1  0  0  0  0
 20 21  1  0  0  0  0
 22 23  2  0  0  0  0
 23 24  1  0  0  0  0
 23 43  1  0  0  0  0
 24 25  1  0  0  0  0
 25 26  1  0  0  0  0
 26 27  1  0  0  0  0
 26 44  1  0  0  0  0
 26 45  1  0  0  0  0
 27 28  1  0  0  0  0
 27 46  1  0  0  0  0
 27 47  1  0  0  0  0
 28 29  1  0  0  0  0
 29 48  1  0  0  0  0
 29 49  1  0  0  0  0
 29 50  1  0  0  0  0
M  END
$$$$
