CHEMBL2018878
 OpenBabel04072215363D

 73 75  0  0  0  0  0  0  0  0999 V2000
    2.1491   -0.2168    4.4231 C   0  0  0  0  0  0  0  0  0  0  0  0
    2.9657    1.0036    4.0541 C   0  0  0  0  0  0  0  0  0  0  0  0
    3.4824    0.9740    2.6100 C   0  0  0  0  0  0  0  0  0  0  0  0
    4.4231    2.1569    2.4301 C   0  0  0  0  0  0  0  0  0  0  0  0
    5.0964    2.1473    1.1669 O   0  0  0  0  0  0  0  0  0  0  0  0
    6.4072    2.5668    1.1940 C   0  0  0  0  0  0  0  0  0  0  0  0
    6.9528    3.1871    2.3183 C   0  0  0  0  0  0  0  0  0  0  0  0
    8.3353    3.3082    2.5000 C   0  0  0  0  0  0  0  0  0  0  0  0
    8.9129    3.7075    3.7163 C   0  0  0  0  0  0  0  0  0  0  0  0
    8.0803    3.8415    4.8586 N   0  0  0  0  0  0  0  0  0  0  0  0
    8.2122    4.7107    5.9550 C   0  0  0  0  0  0  0  0  0  0  0  0
    7.3784    4.5713    7.0650 C   0  0  0  0  0  0  0  0  0  0  0  0
    7.3498    5.5483    8.0692 C   0  0  0  0  0  0  0  0  0  0  0  0
    8.1186    6.7163    7.9738 C   0  0  0  0  0  0  0  0  0  0  0  0
    8.0272    7.7413    8.9403 N   0  0  0  0  0  0  0  0  0  0  0  0
    7.0276    7.9148    9.8615 C   0  0  0  0  0  0  0  0  0  0  0  0
    6.0435    7.2178   10.0374 O   0  0  0  0  0  0  0  0  0  0  0  0
    7.2710    9.0621   10.5588 O   0  0  0  0  0  0  0  0  0  0  0  0
    6.2407    9.3790   11.4998 C   0  0  0  0  0  0  0  0  0  0  0  0
    8.9727    6.8650    6.8674 C   0  0  0  0  0  0  0  0  0  0  0  0
    9.8383    8.0658    6.6063 C   0  0  0  0  0  0  0  0  0  0  0  0
    9.0162    5.8495    5.8923 C   0  0  0  0  0  0  0  0  0  0  0  0
   10.2349    3.8954    3.8334 N   0  0  0  0  0  0  0  0  0  0  0  0
   10.9676    3.6475    2.7409 C   0  0  0  0  0  0  0  0  0  0  0  0
   10.5166    3.2040    1.5567 N   0  0  0  0  0  0  0  0  0  0  0  0
    9.1961    3.0207    1.4412 C   0  0  0  0  0  0  0  0  0  0  0  0
    8.6310    2.5406    0.2512 C   0  0  0  0  0  0  0  0  0  0  0  0
    7.2513    2.3088    0.1048 C   0  0  0  0  0  0  0  0  0  0  0  0
    6.8500    1.8136   -1.1273 O   0  0  0  0  0  0  0  0  0  0  0  0
    5.6918    2.5042   -1.6279 C   0  0  0  0  0  0  0  0  0  0  0  0
    5.3766    2.2359   -3.1215 C   0  0  0  0  0  0  0  0  0  0  0  0
    4.1067    2.8903   -3.5472 N   0  0  0  0  0  0  0  0  0  0  0  0
    4.0902    4.3453   -3.3254 C   0  0  0  0  0  0  0  0  0  0  0  0
    5.0315    5.1616   -4.2034 C   0  0  0  0  0  0  0  0  0  0  0  0
    3.7036    2.4937   -4.9059 C   0  0  0  0  0  0  0  0  0  0  0  0
    2.3309    3.0330   -5.3219 C   0  0  0  0  0  0  0  0  0  0  0  0
    1.7418   -0.0943    5.4322 H   0  0  0  0  0  0  0  0  0  0  0  0
    2.7737   -1.1154    4.4209 H   0  0  0  0  0  0  0  0  0  0  0  0
    1.3171   -0.3616    3.7300 H   0  0  0  0  0  0  0  0  0  0  0  0
    3.8110    1.0696    4.7525 H   0  0  0  0  0  0  0  0  0  0  0  0
    2.3647    1.9081    4.2060 H   0  0  0  0  0  0  0  0  0  0  0  0
    2.6599    1.0206    1.8889 H   0  0  0  0  0  0  0  0  0  0  0  0
    4.0268    0.0426    2.4127 H   0  0  0  0  0  0  0  0  0  0  0  0
    5.1242    2.0560    3.2631 H   0  0  0  0  0  0  0  0  0  0  0  0
    3.8806    3.1047    2.5279 H   0  0  0  0  0  0  0  0  0  0  0  0
    6.3132    3.5750    3.1058 H   0  0  0  0  0  0  0  0  0  0  0  0
    7.6400    2.9581    5.0893 H   0  0  0  0  0  0  0  0  0  0  0  0
    6.7164    3.7150    7.1643 H   0  0  0  0  0  0  0  0  0  0  0  0
    6.6956    5.3687    8.9182 H   0  0  0  0  0  0  0  0  0  0  0  0
    8.6864    8.5051    8.9044 H   0  0  0  0  0  0  0  0  0  0  0  0
    6.4190   10.3891   11.8780 H   0  0  0  0  0  0  0  0  0  0  0  0
    6.2710    8.6792   12.3409 H   0  0  0  0  0  0  0  0  0  0  0  0
    5.2531    9.3681   11.0257 H   0  0  0  0  0  0  0  0  0  0  0  0
    9.4037    8.9844    7.0059 H   0  0  0  0  0  0  0  0  0  0  0  0
    9.9378    8.2283    5.5252 H   0  0  0  0  0  0  0  0  0  0  0  0
   10.8377    7.9132    7.0231 H   0  0  0  0  0  0  0  0  0  0  0  0
    9.6663    5.9878    5.0315 H   0  0  0  0  0  0  0  0  0  0  0  0
   12.0344    3.8187    2.8317 H   0  0  0  0  0  0  0  0  0  0  0  0
    9.2921    2.3342   -0.5856 H   0  0  0  0  0  0  0  0  0  0  0  0
    5.8653    3.5756   -1.4877 H   0  0  0  0  0  0  0  0  0  0  0  0
    4.8077    2.1820   -1.0743 H   0  0  0  0  0  0  0  0  0  0  0  0
    5.2861    1.1490   -3.2545 H   0  0  0  0  0  0  0  0  0  0  0  0
    6.2216    2.5385   -3.7524 H   0  0  0  0  0  0  0  0  0  0  0  0
    4.2995    4.5680   -2.2749 H   0  0  0  0  0  0  0  0  0  0  0  0
    3.0697    4.7265   -3.4444 H   0  0  0  0  0  0  0  0  0  0  0  0
    6.0359    4.7320   -4.2518 H   0  0  0  0  0  0  0  0  0  0  0  0
    5.1293    6.1733   -3.7967 H   0  0  0  0  0  0  0  0  0  0  0  0
    4.6436    5.2480   -5.2229 H   0  0  0  0  0  0  0  0  0  0  0  0
    3.6394    1.3995   -4.9531 H   0  0  0  0  0  0  0  0  0  0  0  0
    4.4500    2.8018   -5.6473 H   0  0  0  0  0  0  0  0  0  0  0  0
    1.5535    2.7285   -4.6127 H   0  0  0  0  0  0  0  0  0  0  0  0
    2.0549    2.6473   -6.3088 H   0  0  0  0  0  0  0  0  0  0  0  0
    2.3191    4.1253   -5.3964 H   0  0  0  0  0  0  0  0  0  0  0  0
  1  2  1  0  0  0  0
  1 37  1  0  0  0  0
  1 38  1  0  0  0  0
  1 39  1  0  0  0  0
  2  3  1  0  0  0  0
  2 40  1  0  0  0  0
  2 41  1  0  0  0  0
  3  4  1  0  0  0  0
  3 42  1  0  0  0  0
  3 43  1  0  0  0  0
  4  5  1  0  0  0  0
  4 44  1  0  0  0  0
  4 45  1  0  0  0  0
  5  6  1  0  0  0  0
  6  7  1  0  0  0  0
  6 28  2  0  0  0  0
  7  8  2  0  0  0  0
  7 46  1  0  0  0  0
  8  9  1  0  0  0  0
  8 26  1  0  0  0  0
  9 10  1  0  0  0  0
  9 23  2  0  0  0  0
 10 11  1  0  0  0  0
 10 47  1  0  0  0  0
 11 12  1  0  0  0  0
 11 22  2  0  0  0  0
 12 13  2  0  0  0  0
 12 48  1  0  0  0  0
 13 14  1  0  0  0  0
 13 49  1  0  0  0  0
 14 15  1  0  0  0  0
 14 20  2  0  0  0  0
 15 16  1  0  0  0  0
 15 50  1  0  0  0  0
 16 17  2  0  0  0  0
 16 18  1  0  0  0  0
 18 19  1  0  0  0  0
 19 51  1  0  0  0  0
 19 52  1  0  0  0  0
 19 53  1  0  0  0  0
 20 21  1  0  0  0  0
 20 22  1  0  0  0  0
 21 54  1  0  0  0  0
 21 55  1  0  0  0  0
 21 56  1  0  0  0  0
 22 57  1  0  0  0  0
 23 24  1  0  0  0  0
 24 25  2  0  0  0  0
 24 58  1  0  0  0  0
 25 26  1  0  0  0  0
 26 27  2  0  0  0  0
 27 28  1  0  0  0  0
 27 59  1  0  0  0  0
 28 29  1  0  0  0  0
 29 30  1  0  0  0  0
 30 31  1  0  0  0  0
 30 60  1  0  0  0  0
 30 61  1  0  0  0  0
 31 32  1  0  0  0  0
 31 62  1  0  0  0  0
 31 63  1  0  0  0  0
 32 33  1  0  0  0  0
 32 35  1  0  0  0  0
 33 34  1  0  0  0  0
 33 64  1  0  0  0  0
 33 65  1  0  0  0  0
 34 66  1  0  0  0  0
 34 67  1  0  0  0  0
 34 68  1  0  0  0  0
 35 36  1  0  0  0  0
 35 69  1  0  0  0  0
 35 70  1  0  0  0  0
 36 71  1  0  0  0  0
 36 72  1  0  0  0  0
 36 73  1  0  0  0  0
M  END
$$$$
