CHEMBL2058042
 OpenBabel04072215363D

 57 60  0  0  1  0  0  0  0  0999 V2000
    3.0842   -0.0602   -1.2524 C   0  0  0  0  0  0  0  0  0  0  0  0
    2.5196   -0.2713    0.0342 O   0  0  0  0  0  0  0  0  0  0  0  0
    3.1530    0.0879    1.1863 C   0  0  0  0  0  0  0  0  0  0  0  0
    4.2201    0.9797    1.1815 C   0  0  0  0  0  0  0  0  0  0  0  0
    4.8802    1.3524    2.3643 C   0  0  0  0  0  0  0  0  0  0  0  0
    5.9465    2.2654    2.3922 C   0  0  0  0  0  0  0  0  0  0  0  0
    6.3515    2.9028    1.1863 N   0  0  0  0  0  0  0  0  0  0  0  0
    7.1340    4.0756    1.1237 C   0  0  0  0  0  0  0  0  0  0  0  0
    6.8965    5.1477    1.9922 C   0  0  0  0  0  0  0  0  0  0  0  0
    7.7361    6.2610    1.9967 C   0  0  0  0  0  0  0  0  0  0  0  0
    8.8083    6.3184    1.1088 C   0  0  0  0  0  0  0  0  0  0  0  0
   10.0024    7.7805    1.1880 Br  0  0  0  0  0  0  0  0  0  0  0  0
    9.0195    5.2989    0.1838 C   0  0  0  0  0  0  0  0  0  0  0  0
    8.1728    4.1942    0.1923 C   0  0  0  0  0  0  0  0  0  0  0  0
    8.3851    3.2032   -0.6890 F   0  0  0  0  0  0  0  0  0  0  0  0
    6.5686    2.5875    3.5408 N   0  0  0  0  0  0  0  0  0  0  0  0
    6.1163    2.0053    4.6521 C   0  0  0  0  0  0  0  0  0  0  0  0
    5.0864    1.1554    4.7325 N   0  0  0  0  0  0  0  0  0  0  0  0
    4.4685    0.8403    3.5902 C   0  0  0  0  0  0  0  0  0  0  0  0
    3.3601   -0.0105    3.6040 C   0  0  0  0  0  0  0  0  0  0  0  0
    2.6905   -0.3995    2.4289 C   0  0  0  0  0  0  0  0  0  0  0  0
    1.6152   -1.2456    2.6678 O   0  0  0  0  0  0  0  0  0  0  0  0
    0.9155   -1.6728    1.5014 C   0  0  0  0  0  0  0  0  0  0  0  0
   -0.2952   -2.5920    1.7422 C   0  0  2  0  0  0  0  0  0  0  0  0
    0.0321   -3.9075    2.4608 C   0  0  0  0  0  0  0  0  0  0  0  0
    0.8089   -4.8802    1.5749 C   0  0  0  0  0  0  0  0  0  0  0  0
    0.1864   -5.0311    0.1819 C   0  0  0  0  0  0  0  0  0  0  0  0
    0.0098   -3.7177   -0.4505 N   0  0  0  0  0  0  0  0  0  0  0  0
   -0.4286   -3.7864   -1.8532 C   0  0  0  0  0  0  0  0  0  0  0  0
    0.5350   -4.5060   -2.8030 C   0  0  0  0  0  0  0  0  0  0  0  0
    0.0545   -4.4009   -4.0744 F   0  0  0  0  0  0  0  0  0  0  0  0
   -0.9145   -2.8950    0.3579 C   0  0  0  0  0  0  0  0  0  0  0  0
    3.2056   -1.0333   -1.7369 H   0  0  0  0  0  0  0  0  0  0  0  0
    4.0538    0.4366   -1.2876 H   0  0  0  0  0  0  0  0  0  0  0  0
    2.3725    0.5278   -1.8385 H   0  0  0  0  0  0  0  0  0  0  0  0
    4.5489    1.4407    0.2601 H   0  0  0  0  0  0  0  0  0  0  0  0
    6.6434    2.2174    0.4939 H   0  0  0  0  0  0  0  0  0  0  0  0
    6.0653    5.1045    2.6930 H   0  0  0  0  0  0  0  0  0  0  0  0
    7.5542    7.0585    2.7124 H   0  0  0  0  0  0  0  0  0  0  0  0
    9.8407    5.3364   -0.5232 H   0  0  0  0  0  0  0  0  0  0  0  0
    6.6418    2.2444    5.5718 H   0  0  0  0  0  0  0  0  0  0  0  0
    3.0048   -0.3831    4.5644 H   0  0  0  0  0  0  0  0  0  0  0  0
    1.6232   -2.2045    0.8584 H   0  0  0  0  0  0  0  0  0  0  0  0
    0.5128   -0.7807    1.0054 H   0  0  0  0  0  0  0  0  0  0  0  0
   -1.0239   -2.0497    2.3591 H   0  0  0  0  0  0  0  0  0  0  0  0
   -0.9138   -4.3850    2.7522 H   0  0  0  0  0  0  0  0  0  0  0  0
    0.5840   -3.7224    3.3885 H   0  0  0  0  0  0  0  0  0  0  0  0
    0.8533   -5.8636    2.0590 H   0  0  0  0  0  0  0  0  0  0  0  0
    1.8454   -4.5331    1.4723 H   0  0  0  0  0  0  0  0  0  0  0  0
   -0.7723   -5.5616    0.2478 H   0  0  0  0  0  0  0  0  0  0  0  0
    0.8645   -5.6601   -0.4048 H   0  0  0  0  0  0  0  0  0  0  0  0
   -0.5279   -2.7631   -2.2398 H   0  0  0  0  0  0  0  0  0  0  0  0
   -1.4234   -4.2404   -1.9358 H   0  0  0  0  0  0  0  0  0  0  0  0
    0.6200   -5.5721   -2.5777 H   0  0  0  0  0  0  0  0  0  0  0  0
    1.5321   -4.0558   -2.7851 H   0  0  0  0  0  0  0  0  0  0  0  0
   -1.8834   -3.3969    0.4735 H   0  0  0  0  0  0  0  0  0  0  0  0
   -1.1106   -1.9425   -0.1517 H   0  0  0  0  0  0  0  0  0  0  0  0
  1  2  1  0  0  0  0
  1 33  1  0  0  0  0
  1 34  1  0  0  0  0
  1 35  1  0  0  0  0
  2  3  1  0  0  0  0
  3  4  1  0  0  0  0
  3 21  2  0  0  0  0
  4  5  2  0  0  0  0
  4 36  1  0  0  0  0
  5  6  1  0  0  0  0
  5 19  1  0  0  0  0
  6  7  1  0  0  0  0
  6 16  2  0  0  0  0
  7  8  1  0  0  0  0
  7 37  1  0  0  0  0
  8  9  1  0  0  0  0
  8 14  2  0  0  0  0
  9 10  2  0  0  0  0
  9 38  1  0  0  0  0
 10 11  1  0  0  0  0
 10 39  1  0  0  0  0
 11 12  1  0  0  0  0
 11 13  2  0  0  0  0
 13 14  1  0  0  0  0
 13 40  1  0  0  0  0
 14 15  1  0  0  0  0
 16 17  1  0  0  0  0
 17 18  2  0  0  0  0
 17 41  1  0  0  0  0
 18 19  1  0  0  0  0
 19 20  2  0  0  0  0
 20 21  1  0  0  0  0
 20 42  1  0  0  0  0
 21 22  1  0  0  0  0
 22 23  1  0  0  0  0
 23 24  1  0  0  0  0
 23 43  1  0  0  0  0
 23 44  1  0  0  0  0
 24 25  1  0  0  0  0
 24 32  1  0  0  0  0
 24 45  1  1  0  0  0
 25 26  1  0  0  0  0
 25 46  1  0  0  0  0
 25 47  1  0  0  0  0
 26 27  1  0  0  0  0
 26 48  1  0  0  0  0
 26 49  1  0  0  0  0
 27 28  1  0  0  0  0
 27 50  1  0  0  0  0
 27 51  1  0  0  0  0
 28 29  1  0  0  0  0
 28 32  1  0  0  0  0
 29 30  1  0  0  0  0
 29 52  1  0  0  0  0
 29 53  1  0  0  0  0
 30 31  1  0  0  0  0
 30 54  1  0  0  0  0
 30 55  1  0  0  0  0
 32 56  1  0  0  0  0
 32 57  1  0  0  0  0
M  END
$$$$
