CHEMBL3894710
 OpenBabel04072215373D

 75 79  0  0  1  0  0  0  0  0999 V2000
    3.2214   -0.5348   -1.0064 C   0  0  0  0  0  0  0  0  0  0  0  0
    2.1775   -0.1924    0.0708 C   0  0  3  0  0  0  0  0  0  0  0  0
    2.7565   -0.2835    1.4787 C   0  0  0  0  0  0  0  0  0  0  0  0
    2.3390    0.6691    2.4153 C   0  0  0  0  0  0  0  0  0  0  0  0
    2.8259    0.7333    3.7200 C   0  0  0  0  0  0  0  0  0  0  0  0
    2.4430    1.7897    4.5987 N   0  0  0  0  0  0  0  0  0  0  0  0
    1.7820    2.9339    4.1849 C   0  0  0  0  0  0  0  0  0  0  0  0
    1.4699    3.1931    3.0280 O   0  0  0  0  0  0  0  0  0  0  0  0
    1.5199    3.8397    5.2083 N   0  0  0  0  0  0  0  0  0  0  0  0
    0.8289    5.0407    4.8742 C   0  0  0  0  0  0  0  0  0  0  0  0
   -0.3830    4.9993    4.1675 C   0  0  0  0  0  0  0  0  0  0  0  0
   -1.0161    6.1749    3.7490 C   0  0  0  0  0  0  0  0  0  0  0  0
   -0.4738    7.4232    4.0823 C   0  0  0  0  0  0  0  0  0  0  0  0
   -1.0470    8.6266    3.7167 O   0  0  0  0  0  0  0  0  0  0  0  0
   -2.4238    8.7731    3.7330 C   0  0  0  0  0  0  0  0  0  0  0  0
   -3.2593    8.0390    4.5685 C   0  0  0  0  0  0  0  0  0  0  0  0
   -4.6171    8.2213    4.4448 C   0  0  0  0  0  0  0  0  0  0  0  0
   -5.1697    9.1225    3.6205 N   0  0  0  0  0  0  0  0  0  0  0  0
   -4.3684    9.8985    2.8735 C   0  0  0  0  0  0  0  0  0  0  0  0
   -4.9534   10.8928    2.0652 N   0  0  0  0  0  0  0  0  0  0  0  0
   -6.3221   11.0963    1.9767 C   0  0  0  0  0  0  0  0  0  0  0  0
   -7.2153   10.4434    2.4947 O   0  0  0  0  0  0  0  0  0  0  0  0
   -6.6965   12.2978    1.1660 C   0  0  0  0  0  0  0  0  0  0  0  0
   -7.3866   13.4454    1.8692 C   0  0  0  0  0  0  0  0  0  0  0  0
   -8.1538   12.6155    0.8857 C   0  0  0  0  0  0  0  0  0  0  0  0
   -2.9818    9.7504    2.8968 C   0  0  0  0  0  0  0  0  0  0  0  0
    0.7459    7.4523    4.7646 C   0  0  0  0  0  0  0  0  0  0  0  0
    1.3403    8.6278    5.0220 F   0  0  0  0  0  0  0  0  0  0  0  0
    1.3895    6.2777    5.1810 C   0  0  0  0  0  0  0  0  0  0  0  0
    3.6933   -0.2808    4.1411 C   0  0  0  0  0  0  0  0  0  0  0  0
    4.0856   -1.3013    3.2429 C   0  0  0  0  0  0  0  0  0  0  0  0
    4.9115   -2.4870    3.6733 C   0  0  0  0  0  0  0  0  0  0  0  0
    5.1959   -2.5035    5.0077 F   0  0  0  0  0  0  0  0  0  0  0  0
    4.2781   -3.6678    3.4191 F   0  0  0  0  0  0  0  0  0  0  0  0
    6.1093   -2.5649    3.0328 F   0  0  0  0  0  0  0  0  0  0  0  0
    3.6501   -1.2625    1.9050 C   0  0  0  0  0  0  0  0  0  0  0  0
    0.9018   -0.9115   -0.1260 N   0  0  0  0  0  0  0  0  0  0  0  0
    1.0001   -2.3743   -0.0393 C   0  0  0  0  0  0  0  0  0  0  0  0
   -0.3579   -3.0662   -0.3014 C   0  0  0  0  0  0  0  0  0  0  0  0
   -1.4583   -2.6192    0.5739 N   0  0  0  0  0  0  0  0  0  0  0  0
   -1.2681   -3.0877    1.9466 C   0  0  0  0  0  0  0  0  0  0  0  0
   -1.5395   -1.1458    0.5064 C   0  0  0  0  0  0  0  0  0  0  0  0
   -0.1942   -0.4111    0.7332 C   0  0  0  0  0  0  0  0  0  0  0  0
    4.1115    0.0958   -0.8924 H   0  0  0  0  0  0  0  0  0  0  0  0
    2.8167   -0.3572   -2.0076 H   0  0  0  0  0  0  0  0  0  0  0  0
    3.5570   -1.5744   -0.9599 H   0  0  0  0  0  0  0  0  0  0  0  0
    1.9650    0.8735   -0.1132 H   0  0  0  0  0  0  0  0  0  0  0  0
    1.5741    1.3571    2.0749 H   0  0  0  0  0  0  0  0  0  0  0  0
    2.7447    1.7282    5.5595 H   0  0  0  0  0  0  0  0  0  0  0  0
    2.2584    3.9185    5.8906 H   0  0  0  0  0  0  0  0  0  0  0  0
   -0.8382    4.0433    3.9133 H   0  0  0  0  0  0  0  0  0  0  0  0
   -1.9289    6.0974    3.1677 H   0  0  0  0  0  0  0  0  0  0  0  0
   -2.8892    7.3199    5.2859 H   0  0  0  0  0  0  0  0  0  0  0  0
   -5.3255    7.6372    5.0276 H   0  0  0  0  0  0  0  0  0  0  0  0
   -4.3395   11.5070    1.5600 H   0  0  0  0  0  0  0  0  0  0  0  0
   -6.0082   12.5512    0.3672 H   0  0  0  0  0  0  0  0  0  0  0  0
   -7.1203   14.4564    1.5865 H   0  0  0  0  0  0  0  0  0  0  0  0
   -7.6402   13.3279    2.9195 H   0  0  0  0  0  0  0  0  0  0  0  0
   -8.4145   13.0687   -0.0631 H   0  0  0  0  0  0  0  0  0  0  0  0
   -8.9148   11.9442    1.2732 H   0  0  0  0  0  0  0  0  0  0  0  0
   -2.3368   10.3738    2.2874 H   0  0  0  0  0  0  0  0  0  0  0  0
    2.3551    6.3560    5.6683 H   0  0  0  0  0  0  0  0  0  0  0  0
    4.0740   -0.2970    5.1595 H   0  0  0  0  0  0  0  0  0  0  0  0
    3.9926   -2.0293    1.2126 H   0  0  0  0  0  0  0  0  0  0  0  0
    1.3754   -2.6851    0.9414 H   0  0  0  0  0  0  0  0  0  0  0  0
    1.7011   -2.7509   -0.7904 H   0  0  0  0  0  0  0  0  0  0  0  0
   -0.2333   -4.1532   -0.2220 H   0  0  0  0  0  0  0  0  0  0  0  0
   -0.6524   -2.8794   -1.3432 H   0  0  0  0  0  0  0  0  0  0  0  0
   -1.1879   -4.1805    1.9686 H   0  0  0  0  0  0  0  0  0  0  0  0
   -2.1360   -2.8258    2.5611 H   0  0  0  0  0  0  0  0  0  0  0  0
   -0.3761   -2.6783    2.4320 H   0  0  0  0  0  0  0  0  0  0  0  0
   -2.2825   -0.7782    1.2265 H   0  0  0  0  0  0  0  0  0  0  0  0
   -1.9260   -0.8686   -0.4832 H   0  0  0  0  0  0  0  0  0  0  0  0
    0.0550   -0.5223    1.7938 H   0  0  0  0  0  0  0  0  0  0  0  0
   -0.3554    0.6566    0.5457 H   0  0  0  0  0  0  0  0  0  0  0  0
  1  2  1  0  0  0  0
  1 44  1  0  0  0  0
  1 45  1  0  0  0  0
  1 46  1  0  0  0  0
  2  3  1  0  0  0  0
  2 37  1  0  0  0  0
  2 47  1  0  0  0  0
  3  4  1  0  0  0  0
  3 36  2  0  0  0  0
  4  5  2  0  0  0  0
  4 48  1  0  0  0  0
  5  6  1  0  0  0  0
  5 30  1  0  0  0  0
  6  7  1  0  0  0  0
  6 49  1  0  0  0  0
  7  8  2  0  0  0  0
  7  9  1  0  0  0  0
  9 10  1  0  0  0  0
  9 50  1  0  0  0  0
 10 11  1  0  0  0  0
 10 29  2  0  0  0  0
 11 12  2  0  0  0  0
 11 51  1  0  0  0  0
 12 13  1  0  0  0  0
 12 52  1  0  0  0  0
 13 14  1  0  0  0  0
 13 27  2  0  0  0  0
 14 15  1  0  0  0  0
 15 16  1  0  0  0  0
 15 26  2  0  0  0  0
 16 17  2  0  0  0  0
 16 53  1  0  0  0  0
 17 18  1  0  0  0  0
 17 54  1  0  0  0  0
 18 19  2  0  0  0  0
 19 20  1  0  0  0  0
 19 26  1  0  0  0  0
 20 21  1  0  0  0  0
 20 55  1  0  0  0  0
 21 22  2  0  0  0  0
 21 23  1  0  0  0  0
 23 24  1  0  0  0  0
 23 25  1  0  0  0  0
 23 56  1  0  0  0  0
 24 25  1  0  0  0  0
 24 57  1  0  0  0  0
 24 58  1  0  0  0  0
 25 59  1  0  0  0  0
 25 60  1  0  0  0  0
 26 61  1  0  0  0  0
 27 28  1  0  0  0  0
 27 29  1  0  0  0  0
 29 62  1  0  0  0  0
 30 31  2  0  0  0  0
 30 63  1  0  0  0  0
 31 32  1  0  0  0  0
 31 36  1  0  0  0  0
 32 33  1  0  0  0  0
 32 34  1  0  0  0  0
 32 35  1  0  0  0  0
 36 64  1  0  0  0  0
 37 38  1  0  0  0  0
 37 43  1  0  0  0  0
 38 39  1  0  0  0  0
 38 65  1  0  0  0  0
 38 66  1  0  0  0  0
 39 40  1  0  0  0  0
 39 67  1  0  0  0  0
 39 68  1  0  0  0  0
 40 41  1  0  0  0  0
 40 42  1  0  0  0  0
 41 69  1  0  0  0  0
 41 70  1  0  0  0  0
 41 71  1  0  0  0  0
 42 43  1  0  0  0  0
 42 72  1  0  0  0  0
 42 73  1  0  0  0  0
 43 74  1  0  0  0  0
 43 75  1  0  0  0  0
M  END
$$$$
