CHEMBL3676341
 OpenBabel04072215373D

 50 52  0  0  0  0  0  0  0  0999 V2000
    3.7229    0.7736    3.7138 C   0  0  0  0  0  0  0  0  0  0  0  0
    3.7124   -0.3105    2.9284 C   0  0  0  0  0  0  0  0  0  0  0  0
    3.6812   -0.1860    1.4416 C   0  0  0  0  0  0  0  0  0  0  0  0
    3.0578    0.7247    0.8793 O   0  0  0  0  0  0  0  0  0  0  0  0
    4.4832   -1.0764    0.7554 N   0  0  0  0  0  0  0  0  0  0  0  0
    5.3153   -2.0319    1.4049 C   0  0  0  0  0  0  0  0  0  0  0  0
    6.5290   -1.5603    1.9156 C   0  0  0  0  0  0  0  0  0  0  0  0
    7.3032   -2.3396    2.8168 C   0  0  0  0  0  0  0  0  0  0  0  0
    8.4448   -1.8775    3.5088 C   0  0  0  0  0  0  0  0  0  0  0  0
    8.7616   -0.4821    3.5085 N   0  0  0  0  0  0  0  0  0  0  0  0
   10.0506    0.0318    3.8096 C   0  0  0  0  0  0  0  0  0  0  0  0
   11.1882   -0.5625    3.2449 C   0  0  0  0  0  0  0  0  0  0  0  0
   12.4666   -0.2617    3.7238 C   0  0  0  0  0  0  0  0  0  0  0  0
   13.7964   -1.1559    3.0774 Cl  0  0  0  0  0  0  0  0  0  0  0  0
   12.6188    0.6706    4.7553 C   0  0  0  0  0  0  0  0  0  0  0  0
   14.1197    0.8842    5.5867 Cl  0  0  0  0  0  0  0  0  0  0  0  0
   11.5114    1.3844    5.2174 C   0  0  0  0  0  0  0  0  0  0  0  0
   10.2417    1.0708    4.7322 C   0  0  0  0  0  0  0  0  0  0  0  0
    9.1810    1.7070    5.2523 F   0  0  0  0  0  0  0  0  0  0  0  0
    9.2256   -2.7121    4.2320 N   0  0  0  0  0  0  0  0  0  0  0  0
    8.8309   -3.9878    4.3088 C   0  0  0  0  0  0  0  0  0  0  0  0
    7.7141   -4.5016    3.7813 N   0  0  0  0  0  0  0  0  0  0  0  0
    6.9502   -3.6763    3.0428 C   0  0  0  0  0  0  0  0  0  0  0  0
    5.7820   -4.1664    2.4555 C   0  0  0  0  0  0  0  0  0  0  0  0
    4.9509   -3.3737    1.6387 C   0  0  0  0  0  0  0  0  0  0  0  0
    3.8532   -4.0539    1.1281 O   0  0  0  0  0  0  0  0  0  0  0  0
    3.5061   -3.6405   -0.1970 C   0  0  0  0  0  0  0  0  0  0  0  0
    2.3804   -4.4428   -0.8533 C   0  0  0  0  0  0  0  0  0  0  0  0
    2.0814   -3.9151   -2.1887 N   0  0  0  0  0  0  0  0  0  0  0  0
    2.7362   -4.3343   -3.3276 C   0  0  0  0  0  0  0  0  0  0  0  0
    2.3121   -3.6263   -4.5935 C   0  0  0  0  0  0  0  0  0  0  0  0
    3.5817   -5.1962   -3.3252 O   0  0  0  0  0  0  0  0  0  0  0  0
    3.8507    0.6774    4.7871 H   0  0  0  0  0  0  0  0  0  0  0  0
    3.6270    1.7712    3.2986 H   0  0  0  0  0  0  0  0  0  0  0  0
    3.8498   -1.2967    3.3561 H   0  0  0  0  0  0  0  0  0  0  0  0
    4.9094   -0.5990   -0.0307 H   0  0  0  0  0  0  0  0  0  0  0  0
    6.8878   -0.5787    1.6055 H   0  0  0  0  0  0  0  0  0  0  0  0
    8.0174    0.0350    3.9810 H   0  0  0  0  0  0  0  0  0  0  0  0
   11.0657   -1.3394    2.4932 H   0  0  0  0  0  0  0  0  0  0  0  0
   11.6140    2.1165    6.0138 H   0  0  0  0  0  0  0  0  0  0  0  0
    9.4723   -4.6653    4.8631 H   0  0  0  0  0  0  0  0  0  0  0  0
    5.5225   -5.2145    2.6105 H   0  0  0  0  0  0  0  0  0  0  0  0
    4.3915   -3.6647   -0.8440 H   0  0  0  0  0  0  0  0  0  0  0  0
    3.0936   -2.6368   -0.1295 H   0  0  0  0  0  0  0  0  0  0  0  0
    1.4713   -4.3326   -0.2533 H   0  0  0  0  0  0  0  0  0  0  0  0
    2.6148   -5.5106   -0.9119 H   0  0  0  0  0  0  0  0  0  0  0  0
    1.3072   -3.2707   -2.2918 H   0  0  0  0  0  0  0  0  0  0  0  0
    1.6946   -2.7419   -4.4059 H   0  0  0  0  0  0  0  0  0  0  0  0
    1.7424   -4.3245   -5.2128 H   0  0  0  0  0  0  0  0  0  0  0  0
    3.2049   -3.3007   -5.1388 H   0  0  0  0  0  0  0  0  0  0  0  0
  1  2  2  0  0  0  0
  1 33  1  0  0  0  0
  1 34  1  0  0  0  0
  2  3  1  0  0  0  0
  2 35  1  0  0  0  0
  3  4  2  0  0  0  0
  3  5  1  0  0  0  0
  5  6  1  0  0  0  0
  5 36  1  0  0  0  0
  6  7  1  0  0  0  0
  6 25  2  0  0  0  0
  7  8  2  0  0  0  0
  7 37  1  0  0  0  0
  8  9  1  0  0  0  0
  8 23  1  0  0  0  0
  9 10  1  0  0  0  0
  9 20  2  0  0  0  0
 10 11  1  0  0  0  0
 10 38  1  0  0  0  0
 11 12  1  0  0  0  0
 11 18  2  0  0  0  0
 12 13  2  0  0  0  0
 12 39  1  0  0  0  0
 13 14  1  0  0  0  0
 13 15  1  0  0  0  0
 15 16  1  0  0  0  0
 15 17  2  0  0  0  0
 17 18  1  0  0  0  0
 17 40  1  0  0  0  0
 18 19  1  0  0  0  0
 20 21  1  0  0  0  0
 21 22  2  0  0  0  0
 21 41  1  0  0  0  0
 22 23  1  0  0  0  0
 23 24  2  0  0  0  0
 24 25  1  0  0  0  0
 24 42  1  0  0  0  0
 25 26  1  0  0  0  0
 26 27  1  0  0  0  0
 27 28  1  0  0  0  0
 27 43  1  0  0  0  0
 27 44  1  0  0  0  0
 28 29  1  0  0  0  0
 28 45  1  0  0  0  0
 28 46  1  0  0  0  0
 29 30  1  0  0  0  0
 29 47  1  0  0  0  0
 30 31  1  0  0  0  0
 30 32  2  0  0  0  0
 31 48  1  0  0  0  0
 31 49  1  0  0  0  0
 31 50  1  0  0  0  0
M  END
$$$$
