CHEMBL386637
 OpenBabel04072215373D

 64 67  0  0  1  0  0  0  0  0999 V2000
    0.5801    1.6441    2.2021 C   0  0  0  0  0  0  0  0  0  0  0  0
    1.9990    1.3751    1.9418 N   0  0  0  0  0  0  0  0  0  0  0  0
    2.8007    1.8953    3.0492 C   0  0  0  0  0  0  0  0  0  0  0  0
    2.4011    1.8795    0.5936 C   0  0  1  0  0  0  0  0  0  0  0  0
    2.2911    3.4200    0.4670 C   0  0  0  0  0  0  0  0  0  0  0  0
    2.8230    4.0067   -0.8339 C   0  0  0  0  0  0  0  0  0  0  0  0
    4.1576    3.4181   -1.2510 C   0  0  0  0  0  0  0  0  0  0  0  0
    4.0710    1.9597   -1.2281 N   0  0  0  0  0  0  0  0  0  0  0  0
    4.3452    1.2175   -2.3686 C   0  0  0  0  0  0  0  0  0  0  0  0
    5.2967    1.7103   -3.2883 C   0  0  0  0  0  0  0  0  0  0  0  0
    5.6395    1.0466   -4.4625 C   0  0  0  0  0  0  0  0  0  0  0  0
    5.0711   -0.1917   -4.7549 C   0  0  0  0  0  0  0  0  0  0  0  0
    5.3874   -0.8984   -6.0430 C   0  0  0  0  0  0  0  0  0  0  0  0
    6.2200   -0.1963   -6.8618 F   0  0  0  0  0  0  0  0  0  0  0  0
    5.9912   -2.1023   -5.8426 F   0  0  0  0  0  0  0  0  0  0  0  0
    4.2729   -1.1576   -6.7817 F   0  0  0  0  0  0  0  0  0  0  0  0
    4.1628   -0.7437   -3.8417 C   0  0  0  0  0  0  0  0  0  0  0  0
    3.7594   -0.0313   -2.6972 C   0  0  0  0  0  0  0  0  0  0  0  0
    2.7162   -0.6119   -1.9366 N   0  0  0  0  0  0  0  0  0  0  0  0
    1.3826   -0.3048   -2.1920 C   0  0  0  0  0  0  0  0  0  0  0  0
    0.9857    0.4873   -3.0410 O   0  0  0  0  0  0  0  0  0  0  0  0
    0.3766   -1.0694   -1.3889 C   0  0  0  0  0  0  0  0  0  0  0  0
   -0.9249   -1.2855   -1.8899 C   0  0  0  0  0  0  0  0  0  0  0  0
   -1.8656   -2.0006   -1.1241 C   0  0  0  0  0  0  0  0  0  0  0  0
   -3.1937   -2.2384   -1.6135 C   0  0  0  0  0  0  0  0  0  0  0  0
   -4.3192   -2.4459   -1.9847 C   0  0  0  0  0  0  0  0  0  0  0  0
   -5.6599   -2.6570   -2.4309 C   0  0  0  0  0  0  0  0  0  0  0  0
   -6.3918   -1.6571   -3.0313 C   0  0  0  0  0  0  0  0  0  0  0  0
   -7.6502   -1.8217   -3.4944 N   0  0  0  0  0  0  0  0  0  0  0  0
   -8.1834   -3.0393   -3.3616 C   0  0  0  0  0  0  0  0  0  0  0  0
   -9.4524   -3.2330   -3.8533 N   0  0  0  0  0  0  0  0  0  0  0  0
   -7.5787   -4.0721   -2.7600 N   0  0  0  0  0  0  0  0  0  0  0  0
   -6.3178   -3.8594   -2.3140 C   0  0  0  0  0  0  0  0  0  0  0  0
   -1.5052   -2.4958    0.1345 C   0  0  0  0  0  0  0  0  0  0  0  0
   -0.2286   -2.2755    0.6299 C   0  0  0  0  0  0  0  0  0  0  0  0
    0.6994   -1.5642   -0.1247 C   0  0  0  0  0  0  0  0  0  0  0  0
    1.9194   -1.3906    0.3985 F   0  0  0  0  0  0  0  0  0  0  0  0
    3.7887    1.3772    0.0944 C   0  0  0  0  0  0  0  0  0  0  0  0
    0.2887    1.3019    3.2014 H   0  0  0  0  0  0  0  0  0  0  0  0
   -0.0516    1.1083    1.4867 H   0  0  0  0  0  0  0  0  0  0  0  0
    0.3372    2.7101    2.1500 H   0  0  0  0  0  0  0  0  0  0  0  0
    2.5086    1.4079    3.9873 H   0  0  0  0  0  0  0  0  0  0  0  0
    2.6694    2.9726    3.1955 H   0  0  0  0  0  0  0  0  0  0  0  0
    3.8654    1.6841    2.9169 H   0  0  0  0  0  0  0  0  0  0  0  0
    1.6826    1.4532   -0.1162 H   0  0  0  0  0  0  0  0  0  0  0  0
    2.8320    3.9057    1.2836 H   0  0  0  0  0  0  0  0  0  0  0  0
    1.2423    3.7238    0.5453 H   0  0  0  0  0  0  0  0  0  0  0  0
    2.9341    5.0907   -0.7129 H   0  0  0  0  0  0  0  0  0  0  0  0
    2.0886    3.8542   -1.6345 H   0  0  0  0  0  0  0  0  0  0  0  0
    4.9595    3.7515   -0.5814 H   0  0  0  0  0  0  0  0  0  0  0  0
    4.3755    3.8316   -2.2412 H   0  0  0  0  0  0  0  0  0  0  0  0
    5.8130    2.6509   -3.0966 H   0  0  0  0  0  0  0  0  0  0  0  0
    6.3470    1.5134   -5.1460 H   0  0  0  0  0  0  0  0  0  0  0  0
    3.7037   -1.7042   -4.0690 H   0  0  0  0  0  0  0  0  0  0  0  0
    2.8563   -1.5846   -1.6888 H   0  0  0  0  0  0  0  0  0  0  0  0
   -1.1960   -0.9153   -2.8722 H   0  0  0  0  0  0  0  0  0  0  0  0
   -5.9813   -0.6591   -3.1700 H   0  0  0  0  0  0  0  0  0  0  0  0
   -9.9435   -2.3553   -3.9013 H   0  0  0  0  0  0  0  0  0  0  0  0
   -9.9042   -4.0010   -3.3667 H   0  0  0  0  0  0  0  0  0  0  0  0
   -5.8501   -4.7204   -1.8505 H   0  0  0  0  0  0  0  0  0  0  0  0
   -2.2243   -3.0573    0.7357 H   0  0  0  0  0  0  0  0  0  0  0  0
    0.0656   -2.6515    1.6075 H   0  0  0  0  0  0  0  0  0  0  0  0
    4.5821    1.7011    0.7814 H   0  0  0  0  0  0  0  0  0  0  0  0
    3.8414    0.2836    0.0976 H   0  0  0  0  0  0  0  0  0  0  0  0
  1  2  1  0  0  0  0
  1 39  1  0  0  0  0
  1 40  1  0  0  0  0
  1 41  1  0  0  0  0
  2  3  1  0  0  0  0
  3 42  1  0  0  0  0
  3 43  1  0  0  0  0
  3 44  1  0  0  0  0
  4  5  1  0  0  0  0
  4 38  1  0  0  0  0
  4  2  1  0  0  0  0
  4 45  1  6  0  0  0
  5  6  1  0  0  0  0
  5 46  1  0  0  0  0
  5 47  1  0  0  0  0
  6  7  1  0  0  0  0
  6 48  1  0  0  0  0
  6 49  1  0  0  0  0
  7  8  1  0  0  0  0
  7 50  1  0  0  0  0
  7 51  1  0  0  0  0
  8  9  1  0  0  0  0
  8 38  1  0  0  0  0
  9 10  1  0  0  0  0
  9 18  2  0  0  0  0
 10 11  2  0  0  0  0
 10 52  1  0  0  0  0
 11 12  1  0  0  0  0
 11 53  1  0  0  0  0
 12 13  1  0  0  0  0
 12 17  2  0  0  0  0
 13 14  1  0  0  0  0
 13 15  1  0  0  0  0
 13 16  1  0  0  0  0
 17 18  1  0  0  0  0
 17 54  1  0  0  0  0
 18 19  1  0  0  0  0
 19 20  1  0  0  0  0
 19 55  1  0  0  0  0
 20 21  2  0  0  0  0
 20 22  1  0  0  0  0
 22 23  1  0  0  0  0
 22 36  2  0  0  0  0
 23 24  2  0  0  0  0
 23 56  1  0  0  0  0
 24 25  1  0  0  0  0
 24 34  1  0  0  0  0
 25 26  3  0  0  0  0
 26 27  1  0  0  0  0
 27 28  1  0  0  0  0
 27 33  2  0  0  0  0
 28 29  2  0  0  0  0
 28 57  1  0  0  0  0
 29 30  1  0  0  0  0
 30 31  1  0  0  0  0
 30 32  2  0  0  0  0
 31 58  1  0  0  0  0
 31 59  1  0  0  0  0
 32 33  1  0  0  0  0
 33 60  1  0  0  0  0
 34 35  2  0  0  0  0
 34 61  1  0  0  0  0
 35 36  1  0  0  0  0
 35 62  1  0  0  0  0
 36 37  1  0  0  0  0
 38 63  1  0  0  0  0
 38 64  1  0  0  0  0
M  END
$$$$
