CHEMBL235851
 OpenBabel04072215363D

 37 39  0  0  0  0  0  0  0  0999 V2000
    3.5376    0.9839    0.5363 C   0  0  0  0  0  0  0  0  0  0  0  0
    2.5751    0.1767   -0.1491 O   0  0  0  0  0  0  0  0  0  0  0  0
    3.0959   -0.8931   -0.8309 C   0  0  0  0  0  0  0  0  0  0  0  0
    4.2245   -1.5800   -0.3464 C   0  0  0  0  0  0  0  0  0  0  0  0
    4.8602   -2.5803   -1.0705 C   0  0  0  0  0  0  0  0  0  0  0  0
    5.9800   -3.1125   -0.5720 N   0  0  0  0  0  0  0  0  0  0  0  0
    6.6141   -3.9935   -1.3470 C   0  0  0  0  0  0  0  0  0  0  0  0
    6.2345   -4.3934   -2.5646 N   0  0  0  0  0  0  0  0  0  0  0  0
    5.0958   -3.8635   -3.0493 C   0  0  0  0  0  0  0  0  0  0  0  0
    4.7293   -4.1443   -4.3856 N   0  0  0  0  0  0  0  0  0  0  0  0
    5.5331   -4.2757   -5.5322 C   0  0  0  0  0  0  0  0  0  0  0  0
    4.9145   -4.5307   -6.7684 C   0  0  0  0  0  0  0  0  0  0  0  0
    5.6483   -4.5312   -7.9616 C   0  0  0  0  0  0  0  0  0  0  0  0
    7.0139   -4.2662   -7.9323 C   0  0  0  0  0  0  0  0  0  0  0  0
    7.9050   -4.2061   -9.4066 Cl  0  0  0  0  0  0  0  0  0  0  0  0
    7.6440   -4.0236   -6.7143 C   0  0  0  0  0  0  0  0  0  0  0  0
    8.9805   -3.7385   -6.6297 O   0  0  0  0  0  0  0  0  0  0  0  0
    6.9138   -4.0324   -5.5277 C   0  0  0  0  0  0  0  0  0  0  0  0
    4.3297   -2.9472   -2.3082 C   0  0  0  0  0  0  0  0  0  0  0  0
    3.1244   -2.3457   -2.7430 C   0  0  0  0  0  0  0  0  0  0  0  0
    2.5025   -1.3206   -2.0202 C   0  0  0  0  0  0  0  0  0  0  0  0
    1.3828   -0.8686   -2.6589 O   0  0  0  0  0  0  0  0  0  0  0  0
    0.6806    0.2563   -2.1569 C   0  0  0  0  0  0  0  0  0  0  0  0
    3.1835    2.0199    0.5322 H   0  0  0  0  0  0  0  0  0  0  0  0
    4.5241    0.9839    0.0572 H   0  0  0  0  0  0  0  0  0  0  0  0
    3.6204    0.6534    1.5765 H   0  0  0  0  0  0  0  0  0  0  0  0
    4.6605   -1.3152    0.6138 H   0  0  0  0  0  0  0  0  0  0  0  0
    7.5377   -4.4169   -0.9630 H   0  0  0  0  0  0  0  0  0  0  0  0
    3.7590   -4.4033   -4.4930 H   0  0  0  0  0  0  0  0  0  0  0  0
    3.8422   -4.7080   -6.8177 H   0  0  0  0  0  0  0  0  0  0  0  0
    5.1432   -4.7176   -8.9049 H   0  0  0  0  0  0  0  0  0  0  0  0
    9.3252   -3.7011   -7.5407 H   0  0  0  0  0  0  0  0  0  0  0  0
    7.4412   -3.8178   -4.6036 H   0  0  0  0  0  0  0  0  0  0  0  0
    2.6716   -2.6444   -3.6857 H   0  0  0  0  0  0  0  0  0  0  0  0
   -0.0345    0.5550   -2.9297 H   0  0  0  0  0  0  0  0  0  0  0  0
    1.3392    1.1124   -1.9924 H   0  0  0  0  0  0  0  0  0  0  0  0
    0.1106   -0.0082   -1.2621 H   0  0  0  0  0  0  0  0  0  0  0  0
  1  2  1  0  0  0  0
  1 24  1  0  0  0  0
  1 25  1  0  0  0  0
  1 26  1  0  0  0  0
  2  3  1  0  0  0  0
  3  4  1  0  0  0  0
  3 21  2  0  0  0  0
  4  5  2  0  0  0  0
  4 27  1  0  0  0  0
  5  6  1  0  0  0  0
  5 19  1  0  0  0  0
  6  7  2  0  0  0  0
  7  8  1  0  0  0  0
  7 28  1  0  0  0  0
  8  9  2  0  0  0  0
  9 10  1  0  0  0  0
  9 19  1  0  0  0  0
 10 11  1  0  0  0  0
 10 29  1  0  0  0  0
 11 12  1  0  0  0  0
 11 18  2  0  0  0  0
 12 13  2  0  0  0  0
 12 30  1  0  0  0  0
 13 14  1  0  0  0  0
 13 31  1  0  0  0  0
 14 15  1  0  0  0  0
 14 16  2  0  0  0  0
 16 17  1  0  0  0  0
 16 18  1  0  0  0  0
 17 32  1  0  0  0  0
 18 33  1  0  0  0  0
 19 20  2  0  0  0  0
 20 21  1  0  0  0  0
 20 34  1  0  0  0  0
 21 22  1  0  0  0  0
 22 23  1  0  0  0  0
 23 35  1  0  0  0  0
 23 36  1  0  0  0  0
 23 37  1  0  0  0  0
M  END
$$$$
