CHEMBL249611
 OpenBabel04072215363D

 51 55  0  0  0  0  0  0  0  0999 V2000
    1.0102    0.3026   -0.5823 O   0  0  0  0  0  0  0  0  0  0  0  0
    2.2012    0.4077   -0.3006 C   0  0  0  0  0  0  0  0  0  0  0  0
    2.7308    1.2640    0.6527 N   0  0  0  0  0  0  0  0  0  0  0  0
    1.9862    2.0603    1.5665 C   0  0  0  0  0  0  0  0  0  0  0  0
    0.5906    2.1494    1.5531 C   0  0  0  0  0  0  0  0  0  0  0  0
   -0.1030    2.8568    2.5423 C   0  0  0  0  0  0  0  0  0  0  0  0
    0.5892    3.4444    3.5953 C   0  0  0  0  0  0  0  0  0  0  0  0
   -0.0304    4.0761    4.6496 O   0  0  0  0  0  0  0  0  0  0  0  0
   -1.1206    3.4852    5.2629 C   0  0  0  0  0  0  0  0  0  0  0  0
   -1.4279    2.1216    5.2255 C   0  0  0  0  0  0  0  0  0  0  0  0
   -2.5741    1.6362    5.8643 C   0  0  0  0  0  0  0  0  0  0  0  0
   -3.3893    2.5015    6.5900 C   0  0  0  0  0  0  0  0  0  0  0  0
   -3.0593    3.8529    6.6784 C   0  0  0  0  0  0  0  0  0  0  0  0
   -1.9302    4.3424    6.0153 C   0  0  0  0  0  0  0  0  0  0  0  0
    1.9842    3.4523    3.5697 C   0  0  0  0  0  0  0  0  0  0  0  0
    2.6798    2.7627    2.5614 C   0  0  0  0  0  0  0  0  0  0  0  0
    3.1301   -0.5113   -1.0197 C   0  0  0  0  0  0  0  0  0  0  0  0
    2.5837   -1.7308   -1.4605 C   0  0  0  0  0  0  0  0  0  0  0  0
    3.3639   -2.6379   -2.1664 C   0  0  0  0  0  0  0  0  0  0  0  0
    4.6782   -2.3041   -2.3959 C   0  0  0  0  0  0  0  0  0  0  0  0
    5.2467   -1.1528   -1.9705 N   0  0  0  0  0  0  0  0  0  0  0  0
    4.4764   -0.2547   -1.2957 C   0  0  0  0  0  0  0  0  0  0  0  0
    5.0621    0.9922   -0.9650 N   0  0  0  0  0  0  0  0  0  0  0  0
    6.4422    1.2419   -0.7714 C   0  0  0  0  0  0  0  0  0  0  0  0
    7.2730    0.3017   -0.1393 C   0  0  0  0  0  0  0  0  0  0  0  0
    8.5748    0.6229    0.2757 C   0  0  0  0  0  0  0  0  0  0  0  0
    9.0474    1.9234    0.0489 C   0  0  0  0  0  0  0  0  0  0  0  0
   10.1996    2.6659    0.3885 C   0  0  0  0  0  0  0  0  0  0  0  0
   10.1815    3.9039   -0.1131 N   0  0  0  0  0  0  0  0  0  0  0  0
    9.0120    3.9527   -0.7761 N   0  0  0  0  0  0  0  0  0  0  0  0
    8.2504    2.8207   -0.6498 C   0  0  0  0  0  0  0  0  0  0  0  0
    6.9474    2.5199   -1.0659 C   0  0  0  0  0  0  0  0  0  0  0  0
    3.7407    1.2476    0.7826 H   0  0  0  0  0  0  0  0  0  0  0  0
   -0.0103    1.6629    0.7929 H   0  0  0  0  0  0  0  0  0  0  0  0
   -1.1883    2.9016    2.4954 H   0  0  0  0  0  0  0  0  0  0  0  0
   -0.7965    1.4133    4.6978 H   0  0  0  0  0  0  0  0  0  0  0  0
   -2.8248    0.5809    5.7955 H   0  0  0  0  0  0  0  0  0  0  0  0
   -4.2749    2.1207    7.0924 H   0  0  0  0  0  0  0  0  0  0  0  0
   -3.6814    4.5250    7.2637 H   0  0  0  0  0  0  0  0  0  0  0  0
   -1.6820    5.3986    6.0871 H   0  0  0  0  0  0  0  0  0  0  0  0
    2.5336    3.9757    4.3483 H   0  0  0  0  0  0  0  0  0  0  0  0
    3.7663    2.7653    2.5889 H   0  0  0  0  0  0  0  0  0  0  0  0
    1.5401   -1.9675   -1.2620 H   0  0  0  0  0  0  0  0  0  0  0  0
    2.9506   -3.5723   -2.5254 H   0  0  0  0  0  0  0  0  0  0  0  0
    5.3409   -2.9646   -2.9528 H   0  0  0  0  0  0  0  0  0  0  0  0
    4.6195    1.7090   -1.5353 H   0  0  0  0  0  0  0  0  0  0  0  0
    6.9015   -0.6987    0.0733 H   0  0  0  0  0  0  0  0  0  0  0  0
    9.1834   -0.1140    0.7911 H   0  0  0  0  0  0  0  0  0  0  0  0
   11.0413    2.3573    0.9948 H   0  0  0  0  0  0  0  0  0  0  0  0
    8.7821    4.8006   -1.2813 H   0  0  0  0  0  0  0  0  0  0  0  0
    6.3425    3.2646   -1.5719 H   0  0  0  0  0  0  0  0  0  0  0  0
  1  2  2  0  0  0  0
  2  3  1  0  0  0  0
  2 17  1  0  0  0  0
  3  4  1  0  0  0  0
  3 33  1  0  0  0  0
  4  5  1  0  0  0  0
  4 16  2  0  0  0  0
  5  6  2  0  0  0  0
  5 34  1  0  0  0  0
  6  7  1  0  0  0  0
  6 35  1  0  0  0  0
  7  8  1  0  0  0  0
  7 15  2  0  0  0  0
  8  9  1  0  0  0  0
  9 10  1  0  0  0  0
  9 14  2  0  0  0  0
 10 11  2  0  0  0  0
 10 36  1  0  0  0  0
 11 12  1  0  0  0  0
 11 37  1  0  0  0  0
 12 13  2  0  0  0  0
 12 38  1  0  0  0  0
 13 14  1  0  0  0  0
 13 39  1  0  0  0  0
 14 40  1  0  0  0  0
 15 16  1  0  0  0  0
 15 41  1  0  0  0  0
 16 42  1  0  0  0  0
 17 18  1  0  0  0  0
 17 22  2  0  0  0  0
 18 19  2  0  0  0  0
 18 43  1  0  0  0  0
 19 20  1  0  0  0  0
 19 44  1  0  0  0  0
 20 21  2  0  0  0  0
 20 45  1  0  0  0  0
 21 22  1  0  0  0  0
 22 23  1  0  0  0  0
 23 24  1  0  0  0  0
 23 46  1  0  0  0  0
 24 25  1  0  0  0  0
 24 32  2  0  0  0  0
 25 26  2  0  0  0  0
 25 47  1  0  0  0  0
 26 27  1  0  0  0  0
 26 48  1  0  0  0  0
 27 28  1  0  0  0  0
 27 31  2  0  0  0  0
 28 29  2  0  0  0  0
 28 49  1  0  0  0  0
 29 30  1  0  0  0  0
 30 31  1  0  0  0  0
 30 50  1  0  0  0  0
 31 32  1  0  0  0  0
 32 51  1  0  0  0  0
M  END
$$$$
