CHEMBL1076201
 OpenBabel04072215353D

 83 88  0  0  0  0  0  0  0  0999 V2000
   -0.7638   -2.4146    2.5091 C   0  0  0  0  0  0  0  0  0  0  0  0
   -1.0924   -2.1159    1.0702 C   0  0  0  0  0  0  0  0  0  0  0  0
   -2.4524   -1.9467    0.7356 C   0  0  0  0  0  0  0  0  0  0  0  0
   -2.8489   -1.7031   -0.5800 C   0  0  0  0  0  0  0  0  0  0  0  0
   -1.8885   -1.6103   -1.5841 C   0  0  0  0  0  0  0  0  0  0  0  0
   -2.3362   -1.3674   -2.9825 C   0  0  0  0  0  0  0  0  0  0  0  0
   -3.3703   -0.7251   -3.1519 O   0  0  0  0  0  0  0  0  0  0  0  0
   -1.5635   -1.9527   -3.9737 N   0  0  0  0  0  0  0  0  0  0  0  0
   -1.7752   -1.8519   -5.3679 C   0  0  0  0  0  0  0  0  0  0  0  0
   -2.6346   -0.9161   -5.9483 C   0  0  0  0  0  0  0  0  0  0  0  0
   -2.8299   -0.8832   -7.3316 C   0  0  0  0  0  0  0  0  0  0  0  0
   -2.1719   -1.7937   -8.1531 C   0  0  0  0  0  0  0  0  0  0  0  0
   -1.2942   -2.7354   -7.5996 C   0  0  0  0  0  0  0  0  0  0  0  0
   -0.5971   -3.7476   -8.4739 C   0  0  0  0  0  0  0  0  0  0  0  0
   -0.9531   -3.6731   -9.7876 F   0  0  0  0  0  0  0  0  0  0  0  0
    0.7581   -3.6165   -8.4481 F   0  0  0  0  0  0  0  0  0  0  0  0
   -0.8555   -5.0298   -8.0932 F   0  0  0  0  0  0  0  0  0  0  0  0
   -1.0862   -2.7406   -6.2053 C   0  0  0  0  0  0  0  0  0  0  0  0
   -0.5337   -1.7350   -1.2600 C   0  0  0  0  0  0  0  0  0  0  0  0
   -0.1078   -2.0133    0.0577 C   0  0  0  0  0  0  0  0  0  0  0  0
    1.2929   -2.2678    0.2945 N   0  0  0  0  0  0  0  0  0  0  0  0
    1.9250   -3.2210   -0.4799 C   0  0  0  0  0  0  0  0  0  0  0  0
    1.2753   -4.0212   -1.3188 N   0  0  0  0  0  0  0  0  0  0  0  0
    1.4000   -5.2306   -0.6912 C   0  0  0  0  0  0  0  0  0  0  0  0
    0.5950   -6.3733   -0.7684 C   0  0  0  0  0  0  0  0  0  0  0  0
    0.8709   -7.4345    0.1039 C   0  0  0  0  0  0  0  0  0  0  0  0
    1.9592   -7.3879    0.9808 C   0  0  0  0  0  0  0  0  0  0  0  0
    2.8080   -6.2825    1.0259 C   0  0  0  0  0  0  0  0  0  0  0  0
    2.4724   -5.2091    0.2001 C   0  0  0  0  0  0  0  0  0  0  0  0
    3.0268   -3.9508   -0.0227 N   0  0  0  0  0  0  0  0  0  0  0  0
    4.4214   -3.6526    0.0299 C   0  0  0  0  0  0  0  0  0  0  0  0
    4.9390   -2.4033   -0.2672 C   0  0  0  0  0  0  0  0  0  0  0  0
    6.3217   -2.3154   -0.3774 C   0  0  0  0  0  0  0  0  0  0  0  0
    6.9357   -1.0909   -0.6766 N   0  0  0  0  0  0  0  0  0  0  0  0
    8.3167   -1.1838   -1.1864 C   0  0  0  0  0  0  0  0  0  0  0  0
    8.4067   -1.8567   -2.5683 C   0  0  0  0  0  0  0  0  0  0  0  0
    7.6422   -1.1361   -3.6857 C   0  0  0  0  0  0  0  0  0  0  0  0
    8.0356    0.2617   -3.8805 N   0  0  0  0  0  0  0  0  0  0  0  0
    9.4427    0.4109   -4.2942 C   0  0  0  0  0  0  0  0  0  0  0  0
    9.8153    1.9031   -4.4235 C   0  0  0  0  0  0  0  0  0  0  0  0
    9.0049    2.6541   -5.3990 N   0  0  0  0  0  0  0  0  0  0  0  0
    9.3784    2.3268   -6.7725 C   0  0  0  0  0  0  0  0  0  0  0  0
    7.5719    2.4006   -5.1407 C   0  0  0  0  0  0  0  0  0  0  0  0
    7.1802    0.9173   -4.8994 C   0  0  0  0  0  0  0  0  0  0  0  0
    7.1234   -3.3740   -0.1483 N   0  0  0  0  0  0  0  0  0  0  0  0
    6.5395   -4.5295    0.1469 C   0  0  0  0  0  0  0  0  0  0  0  0
    5.2279   -4.7184    0.2592 N   0  0  0  0  0  0  0  0  0  0  0  0
   -1.6691   -2.4967    3.1206 H   0  0  0  0  0  0  0  0  0  0  0  0
   -0.1583   -1.6057    2.9275 H   0  0  0  0  0  0  0  0  0  0  0  0
   -0.2260   -3.3638    2.5973 H   0  0  0  0  0  0  0  0  0  0  0  0
   -3.2235   -2.0237    1.5013 H   0  0  0  0  0  0  0  0  0  0  0  0
   -3.9064   -1.5959   -0.8152 H   0  0  0  0  0  0  0  0  0  0  0  0
   -0.8673   -2.6285   -3.6720 H   0  0  0  0  0  0  0  0  0  0  0  0
   -3.1661   -0.1840   -5.3467 H   0  0  0  0  0  0  0  0  0  0  0  0
   -3.5084   -0.1491   -7.7615 H   0  0  0  0  0  0  0  0  0  0  0  0
   -2.3527   -1.7683   -9.2266 H   0  0  0  0  0  0  0  0  0  0  0  0
   -0.4011   -3.4720   -5.7797 H   0  0  0  0  0  0  0  0  0  0  0  0
    0.2212   -1.6331   -2.0345 H   0  0  0  0  0  0  0  0  0  0  0  0
    1.4545   -2.3760    1.2936 H   0  0  0  0  0  0  0  0  0  0  0  0
   -0.2625   -6.3919   -1.4287 H   0  0  0  0  0  0  0  0  0  0  0  0
    0.2161   -8.3008    0.1090 H   0  0  0  0  0  0  0  0  0  0  0  0
    2.1476   -8.2250    1.6493 H   0  0  0  0  0  0  0  0  0  0  0  0
    3.6588   -6.2429    1.6995 H   0  0  0  0  0  0  0  0  0  0  0  0
    4.3146   -1.5390   -0.4495 H   0  0  0  0  0  0  0  0  0  0  0  0
    6.3706   -0.5034   -1.2779 H   0  0  0  0  0  0  0  0  0  0  0  0
    8.9623   -1.7192   -0.4756 H   0  0  0  0  0  0  0  0  0  0  0  0
    8.7322   -0.1713   -1.2406 H   0  0  0  0  0  0  0  0  0  0  0  0
    8.0320   -2.8851   -2.5174 H   0  0  0  0  0  0  0  0  0  0  0  0
    9.4631   -1.9567   -2.8454 H   0  0  0  0  0  0  0  0  0  0  0  0
    6.5704   -1.1661   -3.4291 H   0  0  0  0  0  0  0  0  0  0  0  0
    7.7451   -1.7066   -4.6157 H   0  0  0  0  0  0  0  0  0  0  0  0
    9.6323   -0.1164   -5.2413 H   0  0  0  0  0  0  0  0  0  0  0  0
   10.1143   -0.0239   -3.5488 H   0  0  0  0  0  0  0  0  0  0  0  0
   10.8821    1.9993   -4.6590 H   0  0  0  0  0  0  0  0  0  0  0  0
    9.6887    2.3756   -3.4394 H   0  0  0  0  0  0  0  0  0  0  0  0
   10.4490    2.5012   -6.9306 H   0  0  0  0  0  0  0  0  0  0  0  0
    8.8554    2.9871   -7.4729 H   0  0  0  0  0  0  0  0  0  0  0  0
    9.1564    1.2906   -7.0474 H   0  0  0  0  0  0  0  0  0  0  0  0
    6.9628    2.8089   -5.9570 H   0  0  0  0  0  0  0  0  0  0  0  0
    7.2912    2.9764   -4.2489 H   0  0  0  0  0  0  0  0  0  0  0  0
    7.2227    0.3708   -5.8513 H   0  0  0  0  0  0  0  0  0  0  0  0
    6.1339    0.8971   -4.5616 H   0  0  0  0  0  0  0  0  0  0  0  0
    7.1846   -5.3887    0.2914 H   0  0  0  0  0  0  0  0  0  0  0  0
  1  2  1  0  0  0  0
  1 48  1  0  0  0  0
  1 49  1  0  0  0  0
  1 50  1  0  0  0  0
  2  3  1  0  0  0  0
  2 20  2  0  0  0  0
  3  4  2  0  0  0  0
  3 51  1  0  0  0  0
  4  5  1  0  0  0  0
  4 52  1  0  0  0  0
  5  6  1  0  0  0  0
  5 19  2  0  0  0  0
  6  7  2  0  0  0  0
  6  8  1  0  0  0  0
  8  9  1  0  0  0  0
  8 53  1  0  0  0  0
  9 10  1  0  0  0  0
  9 18  2  0  0  0  0
 10 11  2  0  0  0  0
 10 54  1  0  0  0  0
 11 12  1  0  0  0  0
 11 55  1  0  0  0  0
 12 13  2  0  0  0  0
 12 56  1  0  0  0  0
 13 14  1  0  0  0  0
 13 18  1  0  0  0  0
 14 15  1  0  0  0  0
 14 16  1  0  0  0  0
 14 17  1  0  0  0  0
 18 57  1  0  0  0  0
 19 20  1  0  0  0  0
 19 58  1  0  0  0  0
 20 21  1  0  0  0  0
 21 22  1  0  0  0  0
 21 59  1  0  0  0  0
 22 23  2  0  0  0  0
 22 30  1  0  0  0  0
 23 24  1  0  0  0  0
 24 25  1  0  0  0  0
 24 29  2  0  0  0  0
 25 26  2  0  0  0  0
 25 60  1  0  0  0  0
 26 27  1  0  0  0  0
 26 61  1  0  0  0  0
 27 28  2  0  0  0  0
 27 62  1  0  0  0  0
 28 29  1  0  0  0  0
 28 63  1  0  0  0  0
 29 30  1  0  0  0  0
 30 31  1  0  0  0  0
 31 32  1  0  0  0  0
 31 47  2  0  0  0  0
 32 33  2  0  0  0  0
 32 64  1  0  0  0  0
 33 34  1  0  0  0  0
 33 45  1  0  0  0  0
 34 35  1  0  0  0  0
 34 65  1  0  0  0  0
 35 36  1  0  0  0  0
 35 66  1  0  0  0  0
 35 67  1  0  0  0  0
 36 37  1  0  0  0  0
 36 68  1  0  0  0  0
 36 69  1  0  0  0  0
 37 38  1  0  0  0  0
 37 70  1  0  0  0  0
 37 71  1  0  0  0  0
 38 39  1  0  0  0  0
 38 44  1  0  0  0  0
 39 40  1  0  0  0  0
 39 72  1  0  0  0  0
 39 73  1  0  0  0  0
 40 41  1  0  0  0  0
 40 74  1  0  0  0  0
 40 75  1  0  0  0  0
 41 42  1  0  0  0  0
 41 43  1  0  0  0  0
 42 76  1  0  0  0  0
 42 77  1  0  0  0  0
 42 78  1  0  0  0  0
 43 44  1  0  0  0  0
 43 79  1  0  0  0  0
 43 80  1  0  0  0  0
 44 81  1  0  0  0  0
 44 82  1  0  0  0  0
 45 46  2  0  0  0  0
 46 47  1  0  0  0  0
 46 83  1  0  0  0  0
M  END
$$$$
