CHEMBL3904259
 OpenBabel04072215373D

 41 44  0  0  0  0  0  0  0  0999 V2000
    1.9819   -0.4910    1.4972 C   0  0  0  0  0  0  0  0  0  0  0  0
    0.7958   -0.1862    0.6574 C   0  0  0  0  0  0  0  0  0  0  0  0
    0.4763    1.0681    0.0671 C   0  0  0  0  0  0  0  0  0  0  0  0
   -0.6911    0.8978   -0.6261 C   0  0  0  0  0  0  0  0  0  0  0  0
   -1.1307   -0.3834   -0.5085 O   0  0  0  0  0  0  0  0  0  0  0  0
   -0.2228   -1.0517    0.2795 C   0  0  0  0  0  0  0  0  0  0  0  0
   -0.4618   -2.4588    0.5662 C   0  0  0  0  0  0  0  0  0  0  0  0
    0.2753   -3.1086    1.3028 O   0  0  0  0  0  0  0  0  0  0  0  0
   -1.5861   -2.9595   -0.0807 N   0  0  0  0  0  0  0  0  0  0  0  0
   -2.0394   -4.2735   -0.0392 C   0  0  0  0  0  0  0  0  0  0  0  0
   -1.4710   -5.3016    0.6773 C   0  0  0  0  0  0  0  0  0  0  0  0
   -2.2720   -6.7858    0.4522 S   0  0  0  0  0  0  0  0  0  0  0  0
   -3.3868   -6.1010   -0.6670 C   0  0  0  0  0  0  0  0  0  0  0  0
   -4.3075   -6.9637   -1.3757 C   0  0  0  0  0  0  0  0  0  0  0  0
   -4.0195   -8.2542   -1.7945 C   0  0  0  0  0  0  0  0  0  0  0  0
   -5.1124   -8.7610   -2.5245 C   0  0  0  0  0  0  0  0  0  0  0  0
   -5.3638   -9.9982   -3.1477 C   0  0  0  0  0  0  0  0  0  0  0  0
   -6.5897  -10.2108   -3.7826 C   0  0  0  0  0  0  0  0  0  0  0  0
   -7.5494   -9.2054   -3.8100 C   0  0  0  0  0  0  0  0  0  0  0  0
   -7.3077   -7.9617   -3.2156 C   0  0  0  0  0  0  0  0  0  0  0  0
   -6.0696   -7.7509   -2.5778 C   0  0  0  0  0  0  0  0  0  0  0  0
   -5.5755   -6.6412   -1.8754 N   0  0  0  0  0  0  0  0  0  0  0  0
   -6.2958   -5.4371   -1.7335 C   0  0  0  0  0  0  0  0  0  0  0  0
   -6.3055   -4.9528   -0.4571 N   0  0  0  0  0  0  0  0  0  0  0  0
   -6.9178   -4.9552   -2.6672 O   0  0  0  0  0  0  0  0  0  0  0  0
   -3.1775   -4.7372   -0.7833 C   0  0  0  0  0  0  0  0  0  0  0  0
    2.6670    0.3642    1.5340 H   0  0  0  0  0  0  0  0  0  0  0  0
    2.5383   -1.3439    1.0939 H   0  0  0  0  0  0  0  0  0  0  0  0
    1.6802   -0.7223    2.5238 H   0  0  0  0  0  0  0  0  0  0  0  0
    1.0384    1.9925    0.1436 H   0  0  0  0  0  0  0  0  0  0  0  0
   -1.3094    1.5446   -1.2280 H   0  0  0  0  0  0  0  0  0  0  0  0
   -2.0863   -2.3072   -0.6731 H   0  0  0  0  0  0  0  0  0  0  0  0
   -0.6056   -5.2771    1.3244 H   0  0  0  0  0  0  0  0  0  0  0  0
   -3.0922   -8.7834   -1.6111 H   0  0  0  0  0  0  0  0  0  0  0  0
   -4.6171  -10.7867   -3.1251 H   0  0  0  0  0  0  0  0  0  0  0  0
   -6.7914  -11.1697   -4.2526 H   0  0  0  0  0  0  0  0  0  0  0  0
   -8.5027   -9.3872   -4.3006 H   0  0  0  0  0  0  0  0  0  0  0  0
   -8.0696   -7.1868   -3.2445 H   0  0  0  0  0  0  0  0  0  0  0  0
   -5.9786   -5.4936    0.3330 H   0  0  0  0  0  0  0  0  0  0  0  0
   -6.9460   -4.1906   -0.2719 H   0  0  0  0  0  0  0  0  0  0  0  0
   -3.7719   -4.0987   -1.4262 H   0  0  0  0  0  0  0  0  0  0  0  0
  1  2  1  0  0  0  0
  1 27  1  0  0  0  0
  1 28  1  0  0  0  0
  1 29  1  0  0  0  0
  2  3  1  0  0  0  0
  2  6  2  0  0  0  0
  3  4  2  0  0  0  0
  3 30  1  0  0  0  0
  4  5  1  0  0  0  0
  4 31  1  0  0  0  0
  5  6  1  0  0  0  0
  6  7  1  0  0  0  0
  7  8  2  0  0  0  0
  7  9  1  0  0  0  0
  9 10  1  0  0  0  0
  9 32  1  0  0  0  0
 10 11  2  0  0  0  0
 10 26  1  0  0  0  0
 11 12  1  0  0  0  0
 11 33  1  0  0  0  0
 12 13  1  0  0  0  0
 13 14  1  0  0  0  0
 13 26  2  0  0  0  0
 14 15  2  0  0  0  0
 14 22  1  0  0  0  0
 15 16  1  0  0  0  0
 15 34  1  0  0  0  0
 16 17  1  0  0  0  0
 16 21  2  0  0  0  0
 17 18  2  0  0  0  0
 17 35  1  0  0  0  0
 18 19  1  0  0  0  0
 18 36  1  0  0  0  0
 19 20  2  0  0  0  0
 19 37  1  0  0  0  0
 20 21  1  0  0  0  0
 20 38  1  0  0  0  0
 21 22  1  0  0  0  0
 22 23  1  0  0  0  0
 23 24  1  0  0  0  0
 23 25  2  0  0  0  0
 24 39  1  0  0  0  0
 24 40  1  0  0  0  0
 26 41  1  0  0  0  0
M  END
$$$$
