CHEMBL407944
 OpenBabel04072215383D

 62 66  0  0  0  0  0  0  0  0999 V2000
    3.4426   -3.7754   -0.1935 C   0  0  0  0  0  0  0  0  0  0  0  0
    4.2656   -3.5213   -1.4467 C   0  0  0  0  0  0  0  0  0  0  0  0
    4.4026   -2.0276   -1.7329 C   0  0  0  0  0  0  0  0  0  0  0  0
    5.1292   -1.8221   -2.9767 N   0  0  0  0  0  0  0  0  0  0  0  0
    5.4379   -0.5504   -3.2928 C   0  0  0  0  0  0  0  0  0  0  0  0
    5.6134    0.4977   -2.5232 N   0  0  0  0  0  0  0  0  0  0  0  0
    5.8651    1.5514   -3.3586 N   0  0  0  0  0  0  0  0  0  0  0  0
    5.8041    1.0966   -4.5999 C   0  0  0  0  0  0  0  0  0  0  0  0
    5.9505    1.9561   -5.8197 C   0  0  0  0  0  0  0  0  0  0  0  0
    5.8243    1.4584   -7.0933 C   0  0  0  0  0  0  0  0  0  0  0  0
    5.9552    2.4980   -7.9638 N   0  0  0  0  0  0  0  0  0  0  0  0
    5.8115    2.3612   -9.2893 N   0  0  0  0  0  0  0  0  0  0  0  0
    6.0146    3.4537   -9.9521 C   0  0  0  0  0  0  0  0  0  0  0  0
    6.3713    4.6599   -9.4299 N   0  0  0  0  0  0  0  0  0  0  0  0
    6.4986    4.8163   -8.1401 C   0  0  0  0  0  0  0  0  0  0  0  0
    6.8361    6.0683   -7.6656 N   0  0  0  0  0  0  0  0  0  0  0  0
    7.4911    7.0652   -8.4374 C   0  0  0  0  0  0  0  0  0  0  0  0
    8.5431    6.7635   -9.3163 C   0  0  0  0  0  0  0  0  0  0  0  0
    9.1985    7.7725  -10.0495 C   0  0  0  0  0  0  0  0  0  0  0  0
   10.2855    7.3692  -10.9881 C   0  0  0  0  0  0  0  0  0  0  0  0
   10.5815    6.1808  -11.0901 O   0  0  0  0  0  0  0  0  0  0  0  0
   10.9094    8.3607  -11.7220 N   0  0  0  0  0  0  0  0  0  0  0  0
   11.9175    8.0575  -12.6889 C   0  0  0  0  0  0  0  0  0  0  0  0
   13.3664    8.0268  -12.2893 C   0  0  0  0  0  0  0  0  0  0  0  0
   12.8635    9.1095  -13.1980 C   0  0  0  0  0  0  0  0  0  0  0  0
    8.7991    9.0983   -9.8721 C   0  0  0  0  0  0  0  0  0  0  0  0
    9.3918   10.0982  -10.5451 F   0  0  0  0  0  0  0  0  0  0  0  0
    7.7709    9.4251   -8.9923 C   0  0  0  0  0  0  0  0  0  0  0  0
    7.1351    8.4120   -8.2835 C   0  0  0  0  0  0  0  0  0  0  0  0
    6.1410    8.7332   -7.4407 F   0  0  0  0  0  0  0  0  0  0  0  0
    6.2450    3.6640   -7.2933 C   0  0  0  0  0  0  0  0  0  0  0  0
    6.2456    3.3761   -5.9172 C   0  0  0  0  0  0  0  0  0  0  0  0
    6.5540    4.2090   -4.6795 C   0  0  0  0  0  0  0  0  0  0  0  0
    8.0277    4.0897   -4.2874 C   0  0  0  0  0  0  0  0  0  0  0  0
    6.1102    5.6636   -4.6580 C   0  0  0  0  0  0  0  0  0  0  0  0
    5.5461   -0.2577   -4.6216 O   0  0  0  0  0  0  0  0  0  0  0  0
    3.3576   -4.8516   -0.0071 H   0  0  0  0  0  0  0  0  0  0  0  0
    2.4307   -3.3708   -0.2992 H   0  0  0  0  0  0  0  0  0  0  0  0
    3.9064   -3.3150    0.6843 H   0  0  0  0  0  0  0  0  0  0  0  0
    3.7903   -4.0249   -2.2972 H   0  0  0  0  0  0  0  0  0  0  0  0
    5.2592   -3.9696   -1.3272 H   0  0  0  0  0  0  0  0  0  0  0  0
    4.9238   -1.5465   -0.8953 H   0  0  0  0  0  0  0  0  0  0  0  0
    3.4063   -1.5747   -1.8127 H   0  0  0  0  0  0  0  0  0  0  0  0
    4.8266   -2.3974   -3.7558 H   0  0  0  0  0  0  0  0  0  0  0  0
    5.6337    0.4622   -7.4604 H   0  0  0  0  0  0  0  0  0  0  0  0
    5.8933    3.4208  -11.0455 H   0  0  0  0  0  0  0  0  0  0  0  0
    6.0905    6.4781   -7.1113 H   0  0  0  0  0  0  0  0  0  0  0  0
    8.8623    5.7276   -9.4371 H   0  0  0  0  0  0  0  0  0  0  0  0
   10.6198    9.3282  -11.6144 H   0  0  0  0  0  0  0  0  0  0  0  0
   11.5942    7.3091  -13.4103 H   0  0  0  0  0  0  0  0  0  0  0  0
   13.9796    7.2384  -12.7103 H   0  0  0  0  0  0  0  0  0  0  0  0
   13.6226    8.2900  -11.2701 H   0  0  0  0  0  0  0  0  0  0  0  0
   13.1550    9.0643  -14.2416 H   0  0  0  0  0  0  0  0  0  0  0  0
   12.8004   10.1139  -12.7984 H   0  0  0  0  0  0  0  0  0  0  0  0
    7.4679   10.4579   -8.8622 H   0  0  0  0  0  0  0  0  0  0  0  0
    5.9730    3.7809   -3.8593 H   0  0  0  0  0  0  0  0  0  0  0  0
    8.6858    4.4424   -5.0911 H   0  0  0  0  0  0  0  0  0  0  0  0
    8.2966    3.0451   -4.0738 H   0  0  0  0  0  0  0  0  0  0  0  0
    8.2435    4.6720   -3.3865 H   0  0  0  0  0  0  0  0  0  0  0  0
    6.7782    6.3090   -5.2279 H   0  0  0  0  0  0  0  0  0  0  0  0
    6.1502    6.0431   -3.6285 H   0  0  0  0  0  0  0  0  0  0  0  0
    5.0807    5.7803   -5.0098 H   0  0  0  0  0  0  0  0  0  0  0  0
  1  2  1  0  0  0  0
  1 37  1  0  0  0  0
  1 38  1  0  0  0  0
  1 39  1  0  0  0  0
  2  3  1  0  0  0  0
  2 40  1  0  0  0  0
  2 41  1  0  0  0  0
  3  4  1  0  0  0  0
  3 42  1  0  0  0  0
  3 43  1  0  0  0  0
  4  5  1  0  0  0  0
  4 44  1  0  0  0  0
  5  6  2  0  0  0  0
  5 36  1  0  0  0  0
  6  7  1  0  0  0  0
  7  8  2  0  0  0  0
  8  9  1  0  0  0  0
  8 36  1  0  0  0  0
  9 10  2  0  0  0  0
  9 32  1  0  0  0  0
 10 11  1  0  0  0  0
 10 45  1  0  0  0  0
 11 12  1  0  0  0  0
 11 31  1  0  0  0  0
 12 13  2  0  0  0  0
 13 14  1  0  0  0  0
 13 46  1  0  0  0  0
 14 15  2  0  0  0  0
 15 16  1  0  0  0  0
 15 31  1  0  0  0  0
 16 17  1  0  0  0  0
 16 47  1  0  0  0  0
 17 18  1  0  0  0  0
 17 29  2  0  0  0  0
 18 19  2  0  0  0  0
 18 48  1  0  0  0  0
 19 20  1  0  0  0  0
 19 26  1  0  0  0  0
 20 21  2  0  0  0  0
 20 22  1  0  0  0  0
 22 23  1  0  0  0  0
 22 49  1  0  0  0  0
 23 24  1  0  0  0  0
 23 25  1  0  0  0  0
 23 50  1  0  0  0  0
 24 25  1  0  0  0  0
 24 51  1  0  0  0  0
 24 52  1  0  0  0  0
 25 53  1  0  0  0  0
 25 54  1  0  0  0  0
 26 27  1  0  0  0  0
 26 28  2  0  0  0  0
 28 29  1  0  0  0  0
 28 55  1  0  0  0  0
 29 30  1  0  0  0  0
 31 32  2  0  0  0  0
 32 33  1  0  0  0  0
 33 34  1  0  0  0  0
 33 35  1  0  0  0  0
 33 56  1  0  0  0  0
 34 57  1  0  0  0  0
 34 58  1  0  0  0  0
 34 59  1  0  0  0  0
 35 60  1  0  0  0  0
 35 61  1  0  0  0  0
 35 62  1  0  0  0  0
M  END
$$$$
