CHEMBL3900571
 OpenBabel04072215373D

 68 70  0  0  0  0  0  0  0  0999 V2000
   -3.7654   -4.3131    5.8426 C   0  0  0  0  0  0  0  0  0  0  0  0
   -3.1090   -4.2419    4.4935 C   0  0  0  0  0  0  0  0  0  0  0  0
   -1.9059   -4.9163    4.2684 C   0  0  0  0  0  0  0  0  0  0  0  0
   -1.2726   -4.8159    3.0340 C   0  0  0  0  0  0  0  0  0  0  0  0
   -1.8421   -4.0570    2.0073 C   0  0  0  0  0  0  0  0  0  0  0  0
   -3.0620   -3.4016    2.1885 C   0  0  0  0  0  0  0  0  0  0  0  0
   -3.7061   -2.6463    1.1707 N   0  0  0  0  0  0  0  0  0  0  0  0
   -3.2624   -2.4644   -0.1344 C   0  0  0  0  0  0  0  0  0  0  0  0
   -2.2302   -2.9151   -0.6185 O   0  0  0  0  0  0  0  0  0  0  0  0
   -4.1092   -1.6032   -1.0187 C   0  0  0  0  0  0  0  0  0  0  0  0
   -3.4590   -0.8659   -2.0238 C   0  0  0  0  0  0  0  0  0  0  0  0
   -4.1808   -0.0242   -2.8710 C   0  0  0  0  0  0  0  0  0  0  0  0
   -5.5645    0.0592   -2.7436 C   0  0  0  0  0  0  0  0  0  0  0  0
   -6.2321   -0.7092   -1.7834 C   0  0  0  0  0  0  0  0  0  0  0  0
   -7.6610   -0.6613   -1.7350 C   0  0  0  0  0  0  0  0  0  0  0  0
   -8.8640   -0.6253   -1.7597 C   0  0  0  0  0  0  0  0  0  0  0  0
  -10.2989   -0.6257   -1.8175 C   0  0  0  0  0  0  0  0  0  0  0  0
  -10.9964    0.5883   -1.8420 C   0  0  0  0  0  0  0  0  0  0  0  0
  -12.3914    0.5706   -1.9146 C   0  0  0  0  0  0  0  0  0  0  0  0
  -13.2118    1.8059   -2.0312 C   0  0  0  0  0  0  0  0  0  0  0  0
  -14.3300    1.6825   -2.5213 O   0  0  0  0  0  0  0  0  0  0  0  0
  -12.7552    3.0271   -1.5041 N   0  0  0  0  0  0  0  0  0  0  0  0
  -13.1836    4.3711   -2.1282 S   0  0  0  0  0  0  0  0  0  0  0  0
  -13.1375    4.6447   -3.5566 O   0  0  0  0  0  0  0  0  0  0  0  0
  -14.8404    4.7785   -1.5716 C   0  0  0  0  0  0  0  0  0  0  0  0
  -15.3357    6.0966   -2.1713 C   0  0  0  0  0  0  0  0  0  0  0  0
  -16.7527    6.4359   -1.7364 C   0  0  0  0  0  0  0  0  0  0  0  0
  -17.6571    5.4260   -2.1516 O   0  0  0  0  0  0  0  0  0  0  0  0
  -12.1749    5.6241   -1.3333 C   0  0  0  0  0  0  0  0  0  0  0  0
  -10.6792    5.3967   -1.5232 C   0  0  0  0  0  0  0  0  0  0  0  0
  -10.2382    5.4059   -2.9826 C   0  0  0  0  0  0  0  0  0  0  0  0
   -8.8317    5.2136   -3.0519 O   0  0  0  0  0  0  0  0  0  0  0  0
  -13.0246   -0.6645   -1.9115 C   0  0  0  0  0  0  0  0  0  0  0  0
  -12.3729   -1.8554   -1.8799 N   0  0  0  0  0  0  0  0  0  0  0  0
  -11.0254   -1.8272   -1.8587 C   0  0  0  0  0  0  0  0  0  0  0  0
  -10.4092   -3.0677   -2.0022 N   0  0  0  0  0  0  0  0  0  0  0  0
   -5.5059   -1.5401   -0.9164 C   0  0  0  0  0  0  0  0  0  0  0  0
   -3.6843   -3.4944    3.4463 C   0  0  0  0  0  0  0  0  0  0  0  0
   -3.1764   -4.9181    6.5423 H   0  0  0  0  0  0  0  0  0  0  0  0
   -4.7574   -4.7672    5.7646 H   0  0  0  0  0  0  0  0  0  0  0  0
   -3.8545   -3.3105    6.2727 H   0  0  0  0  0  0  0  0  0  0  0  0
   -1.4483   -5.5162    5.0519 H   0  0  0  0  0  0  0  0  0  0  0  0
   -0.3277   -5.3258    2.8641 H   0  0  0  0  0  0  0  0  0  0  0  0
   -1.2930   -3.9978    1.0738 H   0  0  0  0  0  0  0  0  0  0  0  0
   -4.5551   -2.1746    1.4489 H   0  0  0  0  0  0  0  0  0  0  0  0
   -2.3804   -0.9479   -2.1517 H   0  0  0  0  0  0  0  0  0  0  0  0
   -3.6662    0.5567   -3.6342 H   0  0  0  0  0  0  0  0  0  0  0  0
   -6.1250    0.7127   -3.4103 H   0  0  0  0  0  0  0  0  0  0  0  0
  -10.4570    1.5326   -1.8440 H   0  0  0  0  0  0  0  0  0  0  0  0
  -14.8270    4.8187   -0.4780 H   0  0  0  0  0  0  0  0  0  0  0  0
  -15.4896    3.9545   -1.8823 H   0  0  0  0  0  0  0  0  0  0  0  0
  -15.3124    6.0258   -3.2657 H   0  0  0  0  0  0  0  0  0  0  0  0
  -14.6737    6.9212   -1.8891 H   0  0  0  0  0  0  0  0  0  0  0  0
  -17.0702    7.3883   -2.1744 H   0  0  0  0  0  0  0  0  0  0  0  0
  -16.8160    6.5280   -0.6478 H   0  0  0  0  0  0  0  0  0  0  0  0
  -17.5577    5.3093   -3.1135 H   0  0  0  0  0  0  0  0  0  0  0  0
  -12.4203    5.6079   -0.2655 H   0  0  0  0  0  0  0  0  0  0  0  0
  -12.4628    6.5975   -1.7388 H   0  0  0  0  0  0  0  0  0  0  0  0
  -10.3717    4.4517   -1.0600 H   0  0  0  0  0  0  0  0  0  0  0  0
  -10.1310    6.1776   -0.9804 H   0  0  0  0  0  0  0  0  0  0  0  0
  -10.4916    6.3538   -3.4697 H   0  0  0  0  0  0  0  0  0  0  0  0
  -10.6919    4.5914   -3.5488 H   0  0  0  0  0  0  0  0  0  0  0  0
   -8.4074    5.9910   -2.6540 H   0  0  0  0  0  0  0  0  0  0  0  0
  -14.1094   -0.7454   -1.9388 H   0  0  0  0  0  0  0  0  0  0  0  0
  -11.1173   -3.7919   -1.9227 H   0  0  0  0  0  0  0  0  0  0  0  0
   -9.6100   -3.2045   -1.3994 H   0  0  0  0  0  0  0  0  0  0  0  0
   -6.0390   -2.1588   -0.2010 H   0  0  0  0  0  0  0  0  0  0  0  0
   -4.6279   -2.9861    3.6291 H   0  0  0  0  0  0  0  0  0  0  0  0
  1  2  1  0  0  0  0
  1 39  1  0  0  0  0
  1 40  1  0  0  0  0
  1 41  1  0  0  0  0
  2  3  1  0  0  0  0
  2 38  2  0  0  0  0
  3  4  2  0  0  0  0
  3 42  1  0  0  0  0
  4  5  1  0  0  0  0
  4 43  1  0  0  0  0
  5  6  2  0  0  0  0
  5 44  1  0  0  0  0
  6  7  1  0  0  0  0
  6 38  1  0  0  0  0
  7  8  1  0  0  0  0
  7 45  1  0  0  0  0
  8  9  2  0  0  0  0
  8 10  1  0  0  0  0
 10 11  1  0  0  0  0
 10 37  2  0  0  0  0
 11 12  2  0  0  0  0
 11 46  1  0  0  0  0
 12 13  1  0  0  0  0
 12 47  1  0  0  0  0
 13 14  2  0  0  0  0
 13 48  1  0  0  0  0
 14 15  1  0  0  0  0
 14 37  1  0  0  0  0
 15 16  3  0  0  0  0
 16 17  1  0  0  0  0
 17 18  1  0  0  0  0
 17 35  2  0  0  0  0
 18 19  2  0  0  0  0
 18 49  1  0  0  0  0
 19 20  1  0  0  0  0
 19 33  1  0  0  0  0
 20 21  2  0  0  0  0
 20 22  1  0  0  0  0
 22 23  2  0  0  0  0
 23 24  2  0  0  0  0
 23 25  1  0  0  0  0
 23 29  1  0  0  0  0
 25 26  1  0  0  0  0
 25 50  1  0  0  0  0
 25 51  1  0  0  0  0
 26 27  1  0  0  0  0
 26 52  1  0  0  0  0
 26 53  1  0  0  0  0
 27 28  1  0  0  0  0
 27 54  1  0  0  0  0
 27 55  1  0  0  0  0
 28 56  1  0  0  0  0
 29 30  1  0  0  0  0
 29 57  1  0  0  0  0
 29 58  1  0  0  0  0
 30 31  1  0  0  0  0
 30 59  1  0  0  0  0
 30 60  1  0  0  0  0
 31 32  1  0  0  0  0
 31 61  1  0  0  0  0
 31 62  1  0  0  0  0
 32 63  1  0  0  0  0
 33 34  2  0  0  0  0
 33 64  1  0  0  0  0
 34 35  1  0  0  0  0
 35 36  1  0  0  0  0
 36 65  1  0  0  0  0
 36 66  1  0  0  0  0
 37 67  1  0  0  0  0
 38 68  1  0  0  0  0
M  END
$$$$
