CHEMBL1254839
 OpenBabel04072215363D

 66 70  0  0  0  0  0  0  0  0999 V2000
   -0.6922    3.0846   -3.9369 C   0  0  0  0  0  0  0  0  0  0  0  0
   -0.8303    1.9552   -3.0134 N   0  0  0  0  0  0  0  0  0  0  0  0
   -0.3853    0.7244   -3.6767 C   0  0  0  0  0  0  0  0  0  0  0  0
   -0.4832   -0.4681   -2.7302 C   0  0  0  0  0  0  0  0  0  0  0  0
    0.3885   -0.2275   -1.4919 C   0  0  0  0  0  0  0  0  0  0  0  0
    1.7824   -0.0367   -1.8321 O   0  0  0  0  0  0  0  0  0  0  0  0
    2.4147   -1.0715   -2.4619 C   0  0  0  0  0  0  0  0  0  0  0  0
    2.0799   -2.3895   -2.1937 C   0  0  0  0  0  0  0  0  0  0  0  0
    2.6705   -3.4306   -2.8973 C   0  0  0  0  0  0  0  0  0  0  0  0
    3.6399   -3.2041   -3.8694 C   0  0  0  0  0  0  0  0  0  0  0  0
    4.2629   -4.2748   -4.5693 N   0  0  0  0  0  0  0  0  0  0  0  0
    3.9383   -5.6108   -4.4095 C   0  0  0  0  0  0  0  0  0  0  0  0
    3.0190   -6.0383   -3.7055 O   0  0  0  0  0  0  0  0  0  0  0  0
    4.7749   -6.4815   -5.0920 N   0  0  0  0  0  0  0  0  0  0  0  0
    4.5345   -7.8854   -4.9539 C   0  0  0  0  0  0  0  0  0  0  0  0
    3.2506   -8.4030   -5.1681 C   0  0  0  0  0  0  0  0  0  0  0  0
    2.9672   -9.7470   -4.9077 C   0  0  0  0  0  0  0  0  0  0  0  0
    3.9746  -10.6094   -4.4714 C   0  0  0  0  0  0  0  0  0  0  0  0
    3.7676  -11.9310   -4.1294 O   0  0  0  0  0  0  0  0  0  0  0  0
    2.8012  -12.6589   -4.8156 C   0  0  0  0  0  0  0  0  0  0  0  0
    2.5088  -12.3556   -6.1001 N   0  0  0  0  0  0  0  0  0  0  0  0
    1.5591  -13.0741   -6.7190 C   0  0  0  0  0  0  0  0  0  0  0  0
    0.8593  -14.1044   -6.2343 N   0  0  0  0  0  0  0  0  0  0  0  0
    1.1995  -14.4340   -4.9698 C   0  0  0  0  0  0  0  0  0  0  0  0
    0.6872  -15.4718   -4.1590 C   0  0  0  0  0  0  0  0  0  0  0  0
    1.3528  -15.4186   -2.9543 C   0  0  0  0  0  0  0  0  0  0  0  0
    2.2459  -14.3744   -3.0111 N   0  0  0  0  0  0  0  0  0  0  0  0
    3.1496  -14.0174   -1.9384 C   0  0  0  0  0  0  0  0  0  0  0  0
    2.1625  -13.7486   -4.2374 C   0  0  0  0  0  0  0  0  0  0  0  0
    5.2621  -10.1026   -4.2611 C   0  0  0  0  0  0  0  0  0  0  0  0
    5.5447   -8.7526   -4.5166 C   0  0  0  0  0  0  0  0  0  0  0  0
    7.1299   -8.1564   -4.1683 Cl  0  0  0  0  0  0  0  0  0  0  0  0
    4.0122   -1.8745   -4.1183 C   0  0  0  0  0  0  0  0  0  0  0  0
    3.4184   -0.7936   -3.4020 C   0  0  0  0  0  0  0  0  0  0  0  0
    3.8750    0.6177   -3.6925 C   0  0  0  0  0  0  0  0  0  0  0  0
    3.3361    1.6008   -2.9193 F   0  0  0  0  0  0  0  0  0  0  0  0
    5.2272    0.7536   -3.5523 F   0  0  0  0  0  0  0  0  0  0  0  0
    3.6106    0.9860   -4.9813 F   0  0  0  0  0  0  0  0  0  0  0  0
   -0.1028    1.0483   -0.8100 C   0  0  0  0  0  0  0  0  0  0  0  0
   -0.0708    2.2281   -1.7809 C   0  0  0  0  0  0  0  0  0  0  0  0
   -1.2574    2.9021   -4.8567 H   0  0  0  0  0  0  0  0  0  0  0  0
    0.3550    3.2658   -4.2080 H   0  0  0  0  0  0  0  0  0  0  0  0
   -1.0971    3.9968   -3.4877 H   0  0  0  0  0  0  0  0  0  0  0  0
    0.6419    0.8248   -4.0501 H   0  0  0  0  0  0  0  0  0  0  0  0
   -1.0207    0.5196   -4.5472 H   0  0  0  0  0  0  0  0  0  0  0  0
   -0.1812   -1.3708   -3.2704 H   0  0  0  0  0  0  0  0  0  0  0  0
   -1.5263   -0.6231   -2.4256 H   0  0  0  0  0  0  0  0  0  0  0  0
    0.2846   -1.0391   -0.7637 H   0  0  0  0  0  0  0  0  0  0  0  0
    1.3430   -2.6613   -1.4435 H   0  0  0  0  0  0  0  0  0  0  0  0
    2.3102   -4.4160   -2.6358 H   0  0  0  0  0  0  0  0  0  0  0  0
    4.9416   -4.0517   -5.2787 H   0  0  0  0  0  0  0  0  0  0  0  0
    5.7510   -6.2141   -5.0634 H   0  0  0  0  0  0  0  0  0  0  0  0
    2.4415   -7.7554   -5.5011 H   0  0  0  0  0  0  0  0  0  0  0  0
    1.9451  -10.0941   -5.0377 H   0  0  0  0  0  0  0  0  0  0  0  0
    1.3241  -12.7736   -7.7375 H   0  0  0  0  0  0  0  0  0  0  0  0
   -0.0828  -16.1807   -4.4358 H   0  0  0  0  0  0  0  0  0  0  0  0
    1.2630  -16.0388   -2.0714 H   0  0  0  0  0  0  0  0  0  0  0  0
    3.0008  -14.6991   -1.0973 H   0  0  0  0  0  0  0  0  0  0  0  0
    2.9310  -12.9943   -1.6272 H   0  0  0  0  0  0  0  0  0  0  0  0
    4.1744  -14.1083   -2.3064 H   0  0  0  0  0  0  0  0  0  0  0  0
    6.0379  -10.7564   -3.8723 H   0  0  0  0  0  0  0  0  0  0  0  0
    4.7678   -1.6470   -4.8697 H   0  0  0  0  0  0  0  0  0  0  0  0
    0.5300    1.2786    0.0552 H   0  0  0  0  0  0  0  0  0  0  0  0
   -1.1249    0.8989   -0.4387 H   0  0  0  0  0  0  0  0  0  0  0  0
    0.9730    2.4791   -2.0109 H   0  0  0  0  0  0  0  0  0  0  0  0
   -0.5078    3.0954   -1.2716 H   0  0  0  0  0  0  0  0  0  0  0  0
  1  2  1  0  0  0  0
  1 41  1  0  0  0  0
  1 42  1  0  0  0  0
  1 43  1  0  0  0  0
  2  3  1  0  0  0  0
  2 40  1  0  0  0  0
  3  4  1  0  0  0  0
  3 44  1  0  0  0  0
  3 45  1  0  0  0  0
  4  5  1  0  0  0  0
  4 46  1  0  0  0  0
  4 47  1  0  0  0  0
  5  6  1  0  0  0  0
  5 39  1  0  0  0  0
  5 48  1  0  0  0  0
  6  7  1  0  0  0  0
  7  8  1  0  0  0  0
  7 34  2  0  0  0  0
  8  9  2  0  0  0  0
  8 49  1  0  0  0  0
  9 10  1  0  0  0  0
  9 50  1  0  0  0  0
 10 11  1  0  0  0  0
 10 33  2  0  0  0  0
 11 12  1  0  0  0  0
 11 51  1  0  0  0  0
 12 13  2  0  0  0  0
 12 14  1  0  0  0  0
 14 15  1  0  0  0  0
 14 52  1  0  0  0  0
 15 16  1  0  0  0  0
 15 31  2  0  0  0  0
 16 17  2  0  0  0  0
 16 53  1  0  0  0  0
 17 18  1  0  0  0  0
 17 54  1  0  0  0  0
 18 19  1  0  0  0  0
 18 30  2  0  0  0  0
 19 20  1  0  0  0  0
 20 21  1  0  0  0  0
 20 29  2  0  0  0  0
 21 22  2  0  0  0  0
 22 23  1  0  0  0  0
 22 55  1  0  0  0  0
 23 24  2  0  0  0  0
 24 25  1  0  0  0  0
 24 29  1  0  0  0  0
 25 26  2  0  0  0  0
 25 56  1  0  0  0  0
 26 27  1  0  0  0  0
 26 57  1  0  0  0  0
 27 28  1  0  0  0  0
 27 29  1  0  0  0  0
 28 58  1  0  0  0  0
 28 59  1  0  0  0  0
 28 60  1  0  0  0  0
 30 31  1  0  0  0  0
 30 61  1  0  0  0  0
 31 32  1  0  0  0  0
 33 34  1  0  0  0  0
 33 62  1  0  0  0  0
 34 35  1  0  0  0  0
 35 36  1  0  0  0  0
 35 37  1  0  0  0  0
 35 38  1  0  0  0  0
 39 40  1  0  0  0  0
 39 63  1  0  0  0  0
 39 64  1  0  0  0  0
 40 65  1  0  0  0  0
 40 66  1  0  0  0  0
M  END
$$$$
