CHEMBL3931381
 OpenBabel04072215373D

 64 68  0  0  0  0  0  0  0  0999 V2000
    0.0724   -3.4315    0.8334 C   0  0  0  0  0  0  0  0  0  0  0  0
    1.0868   -2.3885    0.7353 N   0  0  0  0  0  0  0  0  0  0  0  0
    2.1873   -2.6624    1.6696 C   0  0  0  0  0  0  0  0  0  0  0  0
    3.2815   -1.5994    1.5858 C   0  0  0  0  0  0  0  0  0  0  0  0
    4.3284   -1.8833    2.5413 N   0  0  0  0  0  0  0  0  0  0  0  0
    4.3931   -1.4440    3.8428 C   0  0  0  0  0  0  0  0  0  0  0  0
    5.4713   -2.0834    4.4226 C   0  0  0  0  0  0  0  0  0  0  0  0
    5.9165   -1.9831    5.7995 C   0  0  0  0  0  0  0  0  0  0  0  0
    5.3039   -1.1788    6.7488 C   0  0  0  0  0  0  0  0  0  0  0  0
    5.7450   -1.0944    8.0268 N   0  0  0  0  0  0  0  0  0  0  0  0
    6.8285   -1.8412    8.3350 C   0  0  0  0  0  0  0  0  0  0  0  0
    7.3516   -1.8055    9.6126 C   0  0  0  0  0  0  0  0  0  0  0  0
    8.4802   -2.5663    9.9534 C   0  0  0  0  0  0  0  0  0  0  0  0
    9.1459   -3.3836    9.0257 C   0  0  0  0  0  0  0  0  0  0  0  0
   10.3301   -4.1068    9.3798 N   0  0  0  0  0  0  0  0  0  0  0  0
   10.5682   -5.4072    8.6782 C   0  0  0  0  0  0  0  0  0  0  0  0
   11.5771   -5.3022    7.5553 C   0  0  0  0  0  0  0  0  0  0  0  0
   12.0942   -6.5412    6.8415 C   0  0  0  0  0  0  0  0  0  0  0  0
   13.0073   -5.7656    7.7442 C   0  0  0  0  0  0  0  0  0  0  0  0
   11.2136   -3.7745   10.4551 C   0  0  0  0  0  0  0  0  0  0  0  0
   11.9061   -4.7494   11.1945 C   0  0  0  0  0  0  0  0  0  0  0  0
   12.7303   -4.4364   12.2753 C   0  0  0  0  0  0  0  0  0  0  0  0
   13.4168   -5.3514   13.0289 O   0  0  0  0  0  0  0  0  0  0  0  0
   13.3139   -6.7158   12.6267 C   0  0  0  0  0  0  0  0  0  0  0  0
   12.8712   -3.1103   12.6710 C   0  0  0  0  0  0  0  0  0  0  0  0
   12.2296   -2.1055   11.9546 C   0  0  0  0  0  0  0  0  0  0  0  0
   12.2884   -0.7712   12.2625 O   0  0  0  0  0  0  0  0  0  0  0  0
   13.5005   -0.3547   12.8843 C   0  0  0  0  0  0  0  0  0  0  0  0
   11.4156   -2.4397   10.8622 C   0  0  0  0  0  0  0  0  0  0  0  0
    8.5760   -3.4240    7.7397 C   0  0  0  0  0  0  0  0  0  0  0  0
    7.4544   -2.6725    7.3801 C   0  0  0  0  0  0  0  0  0  0  0  0
    6.9924   -2.7422    6.1157 N   0  0  0  0  0  0  0  0  0  0  0  0
    6.0178   -2.8481    3.3675 C   0  0  0  0  0  0  0  0  0  0  0  0
    5.3247   -2.7298    2.2269 N   0  0  0  0  0  0  0  0  0  0  0  0
   -0.7238   -3.2352    0.1089 H   0  0  0  0  0  0  0  0  0  0  0  0
   -0.3773   -3.4548    1.8325 H   0  0  0  0  0  0  0  0  0  0  0  0
    0.4913   -4.4169    0.6075 H   0  0  0  0  0  0  0  0  0  0  0  0
    0.6596   -1.4884    0.9498 H   0  0  0  0  0  0  0  0  0  0  0  0
    2.6233   -3.6454    1.4509 H   0  0  0  0  0  0  0  0  0  0  0  0
    1.7946   -2.7018    2.6945 H   0  0  0  0  0  0  0  0  0  0  0  0
    2.8908   -0.6029    1.8191 H   0  0  0  0  0  0  0  0  0  0  0  0
    3.7432   -1.5626    0.5934 H   0  0  0  0  0  0  0  0  0  0  0  0
    3.6580   -0.7494    4.2308 H   0  0  0  0  0  0  0  0  0  0  0  0
    4.4372   -0.5663    6.5241 H   0  0  0  0  0  0  0  0  0  0  0  0
    6.8881   -1.1660   10.3608 H   0  0  0  0  0  0  0  0  0  0  0  0
    8.8221   -2.4963   10.9845 H   0  0  0  0  0  0  0  0  0  0  0  0
    9.6301   -5.8255    8.3013 H   0  0  0  0  0  0  0  0  0  0  0  0
   10.8998   -6.1943    9.3579 H   0  0  0  0  0  0  0  0  0  0  0  0
   11.3800   -4.4542    6.9136 H   0  0  0  0  0  0  0  0  0  0  0  0
   12.2952   -6.4817    5.7754 H   0  0  0  0  0  0  0  0  0  0  0  0
   11.7922   -7.5305    7.1680 H   0  0  0  0  0  0  0  0  0  0  0  0
   13.7963   -5.1785    7.2873 H   0  0  0  0  0  0  0  0  0  0  0  0
   13.3076   -6.2525    8.6651 H   0  0  0  0  0  0  0  0  0  0  0  0
   11.7795   -5.7916   10.9539 H   0  0  0  0  0  0  0  0  0  0  0  0
   13.9538   -7.3141   13.2812 H   0  0  0  0  0  0  0  0  0  0  0  0
   13.6682   -6.8552   11.5987 H   0  0  0  0  0  0  0  0  0  0  0  0
   12.2862   -7.0780   12.7418 H   0  0  0  0  0  0  0  0  0  0  0  0
   13.4727   -2.8916   13.5463 H   0  0  0  0  0  0  0  0  0  0  0  0
   13.5212    0.7389   12.8824 H   0  0  0  0  0  0  0  0  0  0  0  0
   14.3721   -0.7078   12.3225 H   0  0  0  0  0  0  0  0  0  0  0  0
   13.5450   -0.6852   13.9270 H   0  0  0  0  0  0  0  0  0  0  0  0
   10.9402   -1.6226   10.3246 H   0  0  0  0  0  0  0  0  0  0  0  0
    9.0238   -4.0324    6.9608 H   0  0  0  0  0  0  0  0  0  0  0  0
    6.8852   -3.4933    3.3938 H   0  0  0  0  0  0  0  0  0  0  0  0
  1  2  1  0  0  0  0
  1 35  1  0  0  0  0
  1 36  1  0  0  0  0
  1 37  1  0  0  0  0
  2  3  1  0  0  0  0
  2 38  1  0  0  0  0
  3  4  1  0  0  0  0
  3 39  1  0  0  0  0
  3 40  1  0  0  0  0
  4  5  1  0  0  0  0
  4 41  1  0  0  0  0
  4 42  1  0  0  0  0
  5  6  1  0  0  0  0
  5 34  1  0  0  0  0
  6  7  2  0  0  0  0
  6 43  1  0  0  0  0
  7  8  1  0  0  0  0
  7 33  1  0  0  0  0
  8  9  1  0  0  0  0
  8 32  2  0  0  0  0
  9 10  2  0  0  0  0
  9 44  1  0  0  0  0
 10 11  1  0  0  0  0
 11 12  1  0  0  0  0
 11 31  2  0  0  0  0
 12 13  2  0  0  0  0
 12 45  1  0  0  0  0
 13 14  1  0  0  0  0
 13 46  1  0  0  0  0
 14 15  1  0  0  0  0
 14 30  2  0  0  0  0
 15 16  1  0  0  0  0
 15 20  1  0  0  0  0
 16 17  1  0  0  0  0
 16 47  1  0  0  0  0
 16 48  1  0  0  0  0
 17 18  1  0  0  0  0
 17 19  1  0  0  0  0
 17 49  1  0  0  0  0
 18 19  1  0  0  0  0
 18 50  1  0  0  0  0
 18 51  1  0  0  0  0
 19 52  1  0  0  0  0
 19 53  1  0  0  0  0
 20 21  1  0  0  0  0
 20 29  2  0  0  0  0
 21 22  2  0  0  0  0
 21 54  1  0  0  0  0
 22 23  1  0  0  0  0
 22 25  1  0  0  0  0
 23 24  1  0  0  0  0
 24 55  1  0  0  0  0
 24 56  1  0  0  0  0
 24 57  1  0  0  0  0
 25 26  2  0  0  0  0
 25 58  1  0  0  0  0
 26 27  1  0  0  0  0
 26 29  1  0  0  0  0
 27 28  1  0  0  0  0
 28 59  1  0  0  0  0
 28 60  1  0  0  0  0
 28 61  1  0  0  0  0
 29 62  1  0  0  0  0
 30 31  1  0  0  0  0
 30 63  1  0  0  0  0
 31 32  1  0  0  0  0
 33 34  2  0  0  0  0
 33 64  1  0  0  0  0
M  END
$$$$
