CHEMBL1996646
 OpenBabel04072215363D

 57 60  0  0  0  0  0  0  0  0999 V2000
    3.7772    0.3808   -5.6297 C   0  0  0  0  0  0  0  0  0  0  0  0
    4.4435   -0.0265   -4.4318 O   0  0  0  0  0  0  0  0  0  0  0  0
    3.9695    0.5624   -3.2854 C   0  0  0  0  0  0  0  0  0  0  0  0
    3.4646    1.8816   -3.3034 C   0  0  0  0  0  0  0  0  0  0  0  0
    2.9913    2.4911   -2.1514 C   0  0  0  0  0  0  0  0  0  0  0  0
    3.0035    1.7815   -0.9681 C   0  0  0  0  0  0  0  0  0  0  0  0
    3.4869    0.4544   -0.9325 C   0  0  0  0  0  0  0  0  0  0  0  0
    3.4384   -0.2689    0.2477 O   0  0  0  0  0  0  0  0  0  0  0  0
    2.3492    0.0789    1.1163 C   0  0  0  0  0  0  0  0  0  0  0  0
    4.0321   -0.1767   -2.0826 C   0  0  0  0  0  0  0  0  0  0  0  0
    4.6896   -1.5881   -2.0239 C   0  0  0  0  0  0  0  0  0  0  0  0
    3.7608   -2.5398   -1.4167 N   0  0  0  0  0  0  0  0  0  0  0  0
    3.9031   -3.9284   -1.1903 C   0  0  0  0  0  0  0  0  0  0  0  0
    4.8182   -4.7414   -1.8175 N   0  0  0  0  0  0  0  0  0  0  0  0
    4.7344   -6.0705   -1.5543 C   0  0  0  0  0  0  0  0  0  0  0  0
    5.4929   -7.0961   -2.0258 N   0  0  0  0  0  0  0  0  0  0  0  0
    6.6101   -7.3987   -2.8878 C   0  0  0  0  0  0  0  0  0  0  0  0
    7.9025   -6.6962   -2.5018 C   0  0  0  0  0  0  0  0  0  0  0  0
    9.0706   -7.2170   -3.3490 C   0  0  0  0  0  0  0  0  0  0  0  0
    8.7843   -7.1205   -4.8465 C   0  0  0  0  0  0  0  0  0  0  0  0
    7.4661   -7.7934   -5.2245 C   0  0  0  0  0  0  0  0  0  0  0  0
    6.2900   -7.2883   -4.3760 C   0  0  0  0  0  0  0  0  0  0  0  0
    3.8173   -6.6166   -0.7313 N   0  0  0  0  0  0  0  0  0  0  0  0
    2.9306   -5.8461   -0.1356 C   0  0  0  0  0  0  0  0  0  0  0  0
    1.9855   -6.4431    0.6985 C   0  0  0  0  0  0  0  0  0  0  0  0
    1.0029   -5.7041    1.3624 C   0  0  0  0  0  0  0  0  0  0  0  0
    0.9694   -4.3335    1.1928 C   0  0  0  0  0  0  0  0  0  0  0  0
   -0.2103   -3.3802    2.0005 Cl  0  0  0  0  0  0  0  0  0  0  0  0
    1.8969   -3.7205    0.3561 C   0  0  0  0  0  0  0  0  0  0  0  0
    2.9018   -4.4642   -0.3276 C   0  0  0  0  0  0  0  0  0  0  0  0
    4.1247   -0.2580   -6.4452 H   0  0  0  0  0  0  0  0  0  0  0  0
    4.0301    1.4109   -5.9042 H   0  0  0  0  0  0  0  0  0  0  0  0
    2.6908    0.2596   -5.5405 H   0  0  0  0  0  0  0  0  0  0  0  0
    3.4476    2.4781   -4.2094 H   0  0  0  0  0  0  0  0  0  0  0  0
    2.6145    3.5098   -2.1786 H   0  0  0  0  0  0  0  0  0  0  0  0
    2.6391    2.2898   -0.0792 H   0  0  0  0  0  0  0  0  0  0  0  0
    2.2596   -0.6934    1.8853 H   0  0  0  0  0  0  0  0  0  0  0  0
    1.3994    0.1141    0.5674 H   0  0  0  0  0  0  0  0  0  0  0  0
    2.5356    1.0279    1.6312 H   0  0  0  0  0  0  0  0  0  0  0  0
    5.5816   -1.4963   -1.3888 H   0  0  0  0  0  0  0  0  0  0  0  0
    5.0134   -1.9260   -3.0106 H   0  0  0  0  0  0  0  0  0  0  0  0
    3.5254   -2.1059   -0.5256 H   0  0  0  0  0  0  0  0  0  0  0  0
    5.0737   -7.9278   -1.6169 H   0  0  0  0  0  0  0  0  0  0  0  0
    6.8017   -8.4716   -2.7169 H   0  0  0  0  0  0  0  0  0  0  0  0
    8.1257   -6.8760   -1.4429 H   0  0  0  0  0  0  0  0  0  0  0  0
    7.7993   -5.6147   -2.6336 H   0  0  0  0  0  0  0  0  0  0  0  0
    9.2729   -8.2658   -3.0916 H   0  0  0  0  0  0  0  0  0  0  0  0
    9.9807   -6.6559   -3.1100 H   0  0  0  0  0  0  0  0  0  0  0  0
    9.6065   -7.5831   -5.4070 H   0  0  0  0  0  0  0  0  0  0  0  0
    8.7515   -6.0662   -5.1433 H   0  0  0  0  0  0  0  0  0  0  0  0
    7.5719   -8.8797   -5.0961 H   0  0  0  0  0  0  0  0  0  0  0  0
    7.2590   -7.6270   -6.2881 H   0  0  0  0  0  0  0  0  0  0  0  0
    5.4019   -7.8857   -4.6196 H   0  0  0  0  0  0  0  0  0  0  0  0
    6.0584   -6.2504   -4.6362 H   0  0  0  0  0  0  0  0  0  0  0  0
    2.0113   -7.5229    0.8285 H   0  0  0  0  0  0  0  0  0  0  0  0
    0.2742   -6.2053    1.9934 H   0  0  0  0  0  0  0  0  0  0  0  0
    1.8292   -2.6460    0.2367 H   0  0  0  0  0  0  0  0  0  0  0  0
  1  2  1  0  0  0  0
  1 31  1  0  0  0  0
  1 32  1  0  0  0  0
  1 33  1  0  0  0  0
  2  3  1  0  0  0  0
  3  4  1  0  0  0  0
  3 10  2  0  0  0  0
  4  5  2  0  0  0  0
  4 34  1  0  0  0  0
  5  6  1  0  0  0  0
  5 35  1  0  0  0  0
  6  7  2  0  0  0  0
  6 36  1  0  0  0  0
  7  8  1  0  0  0  0
  7 10  1  0  0  0  0
  8  9  1  0  0  0  0
  9 37  1  0  0  0  0
  9 38  1  0  0  0  0
  9 39  1  0  0  0  0
 10 11  1  0  0  0  0
 11 12  1  0  0  0  0
 11 40  1  0  0  0  0
 11 41  1  0  0  0  0
 12 13  1  0  0  0  0
 12 42  1  0  0  0  0
 13 14  1  0  0  0  0
 13 30  2  0  0  0  0
 14 15  2  0  0  0  0
 15 16  1  0  0  0  0
 15 23  1  0  0  0  0
 16 17  1  0  0  0  0
 16 43  1  0  0  0  0
 17 18  1  0  0  0  0
 17 22  1  0  0  0  0
 17 44  1  0  0  0  0
 18 19  1  0  0  0  0
 18 45  1  0  0  0  0
 18 46  1  0  0  0  0
 19 20  1  0  0  0  0
 19 47  1  0  0  0  0
 19 48  1  0  0  0  0
 20 21  1  0  0  0  0
 20 49  1  0  0  0  0
 20 50  1  0  0  0  0
 21 22  1  0  0  0  0
 21 51  1  0  0  0  0
 21 52  1  0  0  0  0
 22 53  1  0  0  0  0
 22 54  1  0  0  0  0
 23 24  2  0  0  0  0
 24 25  1  0  0  0  0
 24 30  1  0  0  0  0
 25 26  2  0  0  0  0
 25 55  1  0  0  0  0
 26 27  1  0  0  0  0
 26 56  1  0  0  0  0
 27 28  1  0  0  0  0
 27 29  2  0  0  0  0
 29 30  1  0  0  0  0
 29 57  1  0  0  0  0
M  END
$$$$
