CHEMBL376722
 OpenBabel04072215373D

 47 49  0  0  0  0  0  0  0  0999 V2000
    9.5960    6.6907   -2.9970 C   0  0  0  0  0  0  0  0  0  0  0  0
    9.3214    5.4058   -2.4000 N   0  0  0  0  0  0  0  0  0  0  0  0
    8.4267    4.5417   -2.9806 C   0  0  0  0  0  0  0  0  0  0  0  0
    7.8313    4.8303   -4.0155 O   0  0  0  0  0  0  0  0  0  0  0  0
    8.2236    3.3515   -2.2993 N   0  0  0  0  0  0  0  0  0  0  0  0
    7.3641    2.3384   -2.9186 C   0  0  0  0  0  0  0  0  0  0  0  0
    6.5406    1.5565   -1.8684 C   0  0  0  0  0  0  0  0  0  0  0  0
    7.3449    0.9423   -0.7727 N   0  0  0  0  0  0  0  0  0  0  0  0
    8.1448   -0.1845   -1.2930 C   0  0  0  0  0  0  0  0  0  0  0  0
    8.9944   -0.9634   -0.2933 C   0  0  0  0  0  0  0  0  0  0  0  0
   10.3106   -0.5332   -0.0854 C   0  0  0  0  0  0  0  0  0  0  0  0
   11.1463   -1.2684    0.7327 C   0  0  0  0  0  0  0  0  0  0  0  0
   10.7801   -2.4043    1.3521 N   0  0  0  0  0  0  0  0  0  0  0  0
    9.5205   -2.8518    1.1620 C   0  0  0  0  0  0  0  0  0  0  0  0
    9.1631   -4.1017    1.7080 N   0  0  0  0  0  0  0  0  0  0  0  0
    9.6156   -4.6345    2.8668 C   0  0  0  0  0  0  0  0  0  0  0  0
    9.6859   -5.9389    3.0513 N   0  0  0  0  0  0  0  0  0  0  0  0
    9.9488   -6.2307    4.3777 C   0  0  0  0  0  0  0  0  0  0  0  0
   10.0623   -5.1433    5.2083 C   0  0  0  0  0  0  0  0  0  0  0  0
   10.2161   -5.1875    6.6244 C   0  0  0  0  0  0  0  0  0  0  0  0
   10.3083   -5.2429    7.7784 N   0  0  0  0  0  0  0  0  0  0  0  0
    9.9458   -3.7051    4.2913 S   0  0  0  0  0  0  0  0  0  0  0  0
    8.5815   -2.1488    0.3635 C   0  0  0  0  0  0  0  0  0  0  0  0
    7.1913   -2.7066    0.1950 C   0  0  0  0  0  0  0  0  0  0  0  0
    8.1248    2.0363   -0.1566 C   0  0  0  0  0  0  0  0  0  0  0  0
    8.9721    2.8952   -1.1228 C   0  0  0  0  0  0  0  0  0  0  0  0
   10.3760    7.1838   -2.4108 H   0  0  0  0  0  0  0  0  0  0  0  0
    8.6873    7.2985   -2.9881 H   0  0  0  0  0  0  0  0  0  0  0  0
    9.9367    6.5542   -4.0267 H   0  0  0  0  0  0  0  0  0  0  0  0
   10.0823    4.9898   -1.8931 H   0  0  0  0  0  0  0  0  0  0  0  0
    8.0180    1.6621   -3.4818 H   0  0  0  0  0  0  0  0  0  0  0  0
    6.6850    2.7947   -3.6467 H   0  0  0  0  0  0  0  0  0  0  0  0
    5.9287    0.7937   -2.3638 H   0  0  0  0  0  0  0  0  0  0  0  0
    5.8258    2.2561   -1.4116 H   0  0  0  0  0  0  0  0  0  0  0  0
    8.8117    0.1451   -2.0985 H   0  0  0  0  0  0  0  0  0  0  0  0
    7.4640   -0.8977   -1.7752 H   0  0  0  0  0  0  0  0  0  0  0  0
   10.6973    0.3539   -0.5735 H   0  0  0  0  0  0  0  0  0  0  0  0
   12.1761   -0.9633    0.8952 H   0  0  0  0  0  0  0  0  0  0  0  0
    8.9907   -4.7792    0.9767 H   0  0  0  0  0  0  0  0  0  0  0  0
   10.0021   -7.2678    4.6874 H   0  0  0  0  0  0  0  0  0  0  0  0
    6.8489   -3.2001    1.1119 H   0  0  0  0  0  0  0  0  0  0  0  0
    7.1776   -3.4362   -0.6209 H   0  0  0  0  0  0  0  0  0  0  0  0
    6.4575   -1.9228   -0.0099 H   0  0  0  0  0  0  0  0  0  0  0  0
    8.7509    1.6649    0.6608 H   0  0  0  0  0  0  0  0  0  0  0  0
    7.4063    2.7106    0.3325 H   0  0  0  0  0  0  0  0  0  0  0  0
    9.8277    2.3255   -1.4990 H   0  0  0  0  0  0  0  0  0  0  0  0
    9.3641    3.7460   -0.5594 H   0  0  0  0  0  0  0  0  0  0  0  0
  1  2  1  0  0  0  0
  1 27  1  0  0  0  0
  1 28  1  0  0  0  0
  1 29  1  0  0  0  0
  2  3  1  0  0  0  0
  2 30  1  0  0  0  0
  3  4  2  0  0  0  0
  3  5  1  0  0  0  0
  5  6  1  0  0  0  0
  5 26  1  0  0  0  0
  6  7  1  0  0  0  0
  6 31  1  0  0  0  0
  6 32  1  0  0  0  0
  7  8  1  0  0  0  0
  7 33  1  0  0  0  0
  7 34  1  0  0  0  0
  8  9  1  0  0  0  0
  8 25  1  0  0  0  0
  9 10  1  0  0  0  0
  9 35  1  0  0  0  0
  9 36  1  0  0  0  0
 10 11  1  0  0  0  0
 10 23  2  0  0  0  0
 11 12  2  0  0  0  0
 11 37  1  0  0  0  0
 12 13  1  0  0  0  0
 12 38  1  0  0  0  0
 13 14  2  0  0  0  0
 14 15  1  0  0  0  0
 14 23  1  0  0  0  0
 15 16  1  0  0  0  0
 15 39  1  0  0  0  0
 16 17  2  0  0  0  0
 16 22  1  0  0  0  0
 17 18  1  0  0  0  0
 18 19  2  0  0  0  0
 18 40  1  0  0  0  0
 19 20  1  0  0  0  0
 19 22  1  0  0  0  0
 20 21  3  0  0  0  0
 23 24  1  0  0  0  0
 24 41  1  0  0  0  0
 24 42  1  0  0  0  0
 24 43  1  0  0  0  0
 25 26  1  0  0  0  0
 25 44  1  0  0  0  0
 25 45  1  0  0  0  0
 26 46  1  0  0  0  0
 26 47  1  0  0  0  0
M  END
$$$$
