CHEMBL359617
 OpenBabel04072215363D

 52 55  0  0  0  0  0  0  0  0999 V2000
    5.4723   -1.1901    1.4267 C   0  0  0  0  0  0  0  0  0  0  0  0
    4.2955   -0.4105    1.2102 O   0  0  0  0  0  0  0  0  0  0  0  0
    4.4874    0.8630    0.7421 C   0  0  0  0  0  0  0  0  0  0  0  0
    5.6354    1.2300    0.0183 C   0  0  0  0  0  0  0  0  0  0  0  0
    5.9098    2.5436   -0.3365 C   0  0  0  0  0  0  0  0  0  0  0  0
    7.0926    2.8026   -0.9264 N   0  0  0  0  0  0  0  0  0  0  0  0
    7.4056    4.0853   -1.1982 C   0  0  0  0  0  0  0  0  0  0  0  0
    6.5910    5.1515   -0.8864 C   0  0  0  0  0  0  0  0  0  0  0  0
    5.3609    4.8920   -0.2804 C   0  0  0  0  0  0  0  0  0  0  0  0
    4.6406    6.0451    0.0054 O   0  0  0  0  0  0  0  0  0  0  0  0
    3.8386    6.1236    1.1214 C   0  0  0  0  0  0  0  0  0  0  0  0
    4.1195    5.5002    2.3311 C   0  0  0  0  0  0  0  0  0  0  0  0
    3.1243    5.4133    3.3099 C   0  0  0  0  0  0  0  0  0  0  0  0
    1.8671    6.0051    3.1330 C   0  0  0  0  0  0  0  0  0  0  0  0
    0.7869    5.8186    4.0384 N   0  0  0  0  0  0  0  0  0  0  0  0
    0.7491    4.8425    5.0235 C   0  0  0  0  0  0  0  0  0  0  0  0
    1.6318    4.0074    5.2063 O   0  0  0  0  0  0  0  0  0  0  0  0
   -0.3996    4.8983    5.8078 N   0  0  0  0  0  0  0  0  0  0  0  0
   -0.5637    4.1112    6.9807 C   0  0  0  0  0  0  0  0  0  0  0  0
    0.5342    3.6434    7.7187 C   0  0  0  0  0  0  0  0  0  0  0  0
    0.3689    2.7975    8.8170 C   0  0  0  0  0  0  0  0  0  0  0  0
   -0.9088    2.4294    9.2224 C   0  0  0  0  0  0  0  0  0  0  0  0
   -1.0449    1.3447   10.5587 Cl  0  0  0  0  0  0  0  0  0  0  0  0
   -2.0165    2.9391    8.5363 C   0  0  0  0  0  0  0  0  0  0  0  0
   -3.6341    2.5413    8.9991 Cl  0  0  0  0  0  0  0  0  0  0  0  0
   -1.8474    3.7872    7.4243 C   0  0  0  0  0  0  0  0  0  0  0  0
    1.6673    6.7925    1.9942 C   0  0  0  0  0  0  0  0  0  0  0  0
    2.6483    6.8448    0.9897 C   0  0  0  0  0  0  0  0  0  0  0  0
    4.9657    3.5491   -0.0495 C   0  0  0  0  0  0  0  0  0  0  0  0
    3.7241    3.1240    0.4827 C   0  0  0  0  0  0  0  0  0  0  0  0
    3.5034    1.8252    0.9539 C   0  0  0  0  0  0  0  0  0  0  0  0
    2.3026    1.7300    1.5961 O   0  0  0  0  0  0  0  0  0  0  0  0
    2.0312    0.6262    2.4414 C   0  0  0  0  0  0  0  0  0  0  0  0
    5.2701   -1.8919    2.2413 H   0  0  0  0  0  0  0  0  0  0  0  0
    6.3397   -0.5924    1.7321 H   0  0  0  0  0  0  0  0  0  0  0  0
    5.7011   -1.7667    0.5252 H   0  0  0  0  0  0  0  0  0  0  0  0
    6.3761    0.4859   -0.2594 H   0  0  0  0  0  0  0  0  0  0  0  0
    8.3731    4.2353   -1.6713 H   0  0  0  0  0  0  0  0  0  0  0  0
    6.9121    6.1666   -1.0925 H   0  0  0  0  0  0  0  0  0  0  0  0
    5.0562    4.9748    2.4954 H   0  0  0  0  0  0  0  0  0  0  0  0
    3.3630    4.8251    4.1893 H   0  0  0  0  0  0  0  0  0  0  0  0
   -0.0596    6.3350    3.8545 H   0  0  0  0  0  0  0  0  0  0  0  0
   -1.2364    5.2579    5.3665 H   0  0  0  0  0  0  0  0  0  0  0  0
    1.5526    3.9184    7.4521 H   0  0  0  0  0  0  0  0  0  0  0  0
    1.2493    2.4213    9.3309 H   0  0  0  0  0  0  0  0  0  0  0  0
   -2.7228    4.1472    6.8985 H   0  0  0  0  0  0  0  0  0  0  0  0
    0.7335    7.3247    1.8346 H   0  0  0  0  0  0  0  0  0  0  0  0
    2.4580    7.4032    0.0763 H   0  0  0  0  0  0  0  0  0  0  0  0
    2.9137    3.8342    0.6145 H   0  0  0  0  0  0  0  0  0  0  0  0
    1.2676    0.9486    3.1591 H   0  0  0  0  0  0  0  0  0  0  0  0
    2.8929    0.2996    3.0295 H   0  0  0  0  0  0  0  0  0  0  0  0
    1.6069   -0.1896    1.8504 H   0  0  0  0  0  0  0  0  0  0  0  0
  1  2  1  0  0  0  0
  1 34  1  0  0  0  0
  1 35  1  0  0  0  0
  1 36  1  0  0  0  0
  2  3  1  0  0  0  0
  3  4  1  0  0  0  0
  3 31  2  0  0  0  0
  4  5  2  0  0  0  0
  4 37  1  0  0  0  0
  5  6  1  0  0  0  0
  5 29  1  0  0  0  0
  6  7  2  0  0  0  0
  7  8  1  0  0  0  0
  7 38  1  0  0  0  0
  8  9  2  0  0  0  0
  8 39  1  0  0  0  0
  9 10  1  0  0  0  0
  9 29  1  0  0  0  0
 10 11  1  0  0  0  0
 11 12  1  0  0  0  0
 11 28  2  0  0  0  0
 12 13  2  0  0  0  0
 12 40  1  0  0  0  0
 13 14  1  0  0  0  0
 13 41  1  0  0  0  0
 14 15  1  0  0  0  0
 14 27  2  0  0  0  0
 15 16  1  0  0  0  0
 15 42  1  0  0  0  0
 16 17  2  0  0  0  0
 16 18  1  0  0  0  0
 18 19  1  0  0  0  0
 18 43  1  0  0  0  0
 19 20  1  0  0  0  0
 19 26  2  0  0  0  0
 20 21  2  0  0  0  0
 20 44  1  0  0  0  0
 21 22  1  0  0  0  0
 21 45  1  0  0  0  0
 22 23  1  0  0  0  0
 22 24  2  0  0  0  0
 24 25  1  0  0  0  0
 24 26  1  0  0  0  0
 26 46  1  0  0  0  0
 27 28  1  0  0  0  0
 27 47  1  0  0  0  0
 28 48  1  0  0  0  0
 29 30  2  0  0  0  0
 30 31  1  0  0  0  0
 30 49  1  0  0  0  0
 31 32  1  0  0  0  0
 32 33  1  0  0  0  0
 33 50  1  0  0  0  0
 33 51  1  0  0  0  0
 33 52  1  0  0  0  0
M  END
$$$$
