CHEMBL3397940
 OpenBabel04072215363D

 52 54  0  0  0  0  0  0  0  0999 V2000
    0.6391   -0.7658   -4.7561 C   0  0  0  0  0  0  0  0  0  0  0  0
    1.8702    0.0184   -4.8649 N   0  0  0  0  0  0  0  0  0  0  0  0
    1.5421    1.4447   -4.9006 C   0  0  0  0  0  0  0  0  0  0  0  0
    2.7943   -0.3229   -3.7623 C   0  0  0  0  0  0  0  0  0  0  0  0
    4.1275    0.4348   -3.8541 C   0  0  0  0  0  0  0  0  0  0  0  0
    5.0170    0.0387   -2.8141 O   0  0  0  0  0  0  0  0  0  0  0  0
    6.3528    0.1900   -3.0753 C   0  0  0  0  0  0  0  0  0  0  0  0
    7.1376   -0.7351   -2.3918 C   0  0  0  0  0  0  0  0  0  0  0  0
    8.5200   -0.7738   -2.5609 C   0  0  0  0  0  0  0  0  0  0  0  0
    9.1661    0.1103   -3.4299 C   0  0  0  0  0  0  0  0  0  0  0  0
   10.5626    0.1128   -3.6549 N   0  0  0  0  0  0  0  0  0  0  0  0
   11.4672   -0.7426   -3.0508 C   0  0  0  0  0  0  0  0  0  0  0  0
   11.1703   -1.6774   -2.3062 O   0  0  0  0  0  0  0  0  0  0  0  0
   12.9145   -0.5375   -3.3065 C   0  0  0  0  0  0  0  0  0  0  0  0
   13.4731    0.6750   -3.7163 C   0  0  0  0  0  0  0  0  0  0  0  0
   14.8587    0.7909   -3.8102 C   0  0  0  0  0  0  0  0  0  0  0  0
   15.6857   -0.2876   -3.4663 C   0  0  0  0  0  0  0  0  0  0  0  0
   15.1549   -1.5093   -3.0208 C   0  0  0  0  0  0  0  0  0  0  0  0
   16.0194   -2.6165   -2.5498 C   0  0  0  0  0  0  0  0  0  0  0  0
   15.6550   -3.9689   -2.7031 C   0  0  0  0  0  0  0  0  0  0  0  0
   16.4783   -5.0044   -2.2444 C   0  0  0  0  0  0  0  0  0  0  0  0
   17.6977   -4.7119   -1.6419 C   0  0  0  0  0  0  0  0  0  0  0  0
   18.0687   -3.3844   -1.4801 C   0  0  0  0  0  0  0  0  0  0  0  0
   19.2650   -3.0427   -0.9211 O   0  0  0  0  0  0  0  0  0  0  0  0
   17.2354   -2.3511   -1.8975 C   0  0  0  0  0  0  0  0  0  0  0  0
   13.7603   -1.6151   -2.9810 C   0  0  0  0  0  0  0  0  0  0  0  0
    8.3929    1.0650   -4.0917 C   0  0  0  0  0  0  0  0  0  0  0  0
    7.0017    1.1316   -3.8960 C   0  0  0  0  0  0  0  0  0  0  0  0
    6.2241    2.4789   -4.6552 Cl  0  0  0  0  0  0  0  0  0  0  0  0
   -0.0236   -0.5542   -5.6039 H   0  0  0  0  0  0  0  0  0  0  0  0
    0.0942   -0.5487   -3.8311 H   0  0  0  0  0  0  0  0  0  0  0  0
    0.8580   -1.8372   -4.7901 H   0  0  0  0  0  0  0  0  0  0  0  0
    0.8361    1.6609   -5.7084 H   0  0  0  0  0  0  0  0  0  0  0  0
    2.4287    2.0522   -5.1238 H   0  0  0  0  0  0  0  0  0  0  0  0
    1.1110    1.7933   -3.9563 H   0  0  0  0  0  0  0  0  0  0  0  0
    3.0181   -1.3980   -3.7968 H   0  0  0  0  0  0  0  0  0  0  0  0
    2.3346   -0.1422   -2.7822 H   0  0  0  0  0  0  0  0  0  0  0  0
    3.9326    1.4999   -3.7133 H   0  0  0  0  0  0  0  0  0  0  0  0
    4.5615    0.2330   -4.8412 H   0  0  0  0  0  0  0  0  0  0  0  0
    6.6737   -1.4533   -1.7165 H   0  0  0  0  0  0  0  0  0  0  0  0
    9.0579   -1.5224   -1.9926 H   0  0  0  0  0  0  0  0  0  0  0  0
   10.9119    0.7777   -4.3287 H   0  0  0  0  0  0  0  0  0  0  0  0
   12.8643    1.5486   -3.9184 H   0  0  0  0  0  0  0  0  0  0  0  0
   15.3115    1.7328   -4.1108 H   0  0  0  0  0  0  0  0  0  0  0  0
   16.7632   -0.1503   -3.5345 H   0  0  0  0  0  0  0  0  0  0  0  0
   14.7197   -4.2405   -3.1886 H   0  0  0  0  0  0  0  0  0  0  0  0
   16.1636   -6.0377   -2.3664 H   0  0  0  0  0  0  0  0  0  0  0  0
   18.3338   -5.5216   -1.3000 H   0  0  0  0  0  0  0  0  0  0  0  0
   19.8216   -3.8353   -0.8881 H   0  0  0  0  0  0  0  0  0  0  0  0
   17.5504   -1.3293   -1.7013 H   0  0  0  0  0  0  0  0  0  0  0  0
   13.3033   -2.5425   -2.6349 H   0  0  0  0  0  0  0  0  0  0  0  0
    8.8644    1.7874   -4.7541 H   0  0  0  0  0  0  0  0  0  0  0  0
  1  2  1  0  0  0  0
  1 30  1  0  0  0  0
  1 31  1  0  0  0  0
  1 32  1  0  0  0  0
  2  3  1  0  0  0  0
  2  4  1  0  0  0  0
  3 33  1  0  0  0  0
  3 34  1  0  0  0  0
  3 35  1  0  0  0  0
  4  5  1  0  0  0  0
  4 36  1  0  0  0  0
  4 37  1  0  0  0  0
  5  6  1  0  0  0  0
  5 38  1  0  0  0  0
  5 39  1  0  0  0  0
  6  7  1  0  0  0  0
  7  8  1  0  0  0  0
  7 28  2  0  0  0  0
  8  9  2  0  0  0  0
  8 40  1  0  0  0  0
  9 10  1  0  0  0  0
  9 41  1  0  0  0  0
 10 11  1  0  0  0  0
 10 27  2  0  0  0  0
 11 12  1  0  0  0  0
 11 42  1  0  0  0  0
 12 13  2  0  0  0  0
 12 14  1  0  0  0  0
 14 15  1  0  0  0  0
 14 26  2  0  0  0  0
 15 16  2  0  0  0  0
 15 43  1  0  0  0  0
 16 17  1  0  0  0  0
 16 44  1  0  0  0  0
 17 18  2  0  0  0  0
 17 45  1  0  0  0  0
 18 19  1  0  0  0  0
 18 26  1  0  0  0  0
 19 20  1  0  0  0  0
 19 25  2  0  0  0  0
 20 21  2  0  0  0  0
 20 46  1  0  0  0  0
 21 22  1  0  0  0  0
 21 47  1  0  0  0  0
 22 23  2  0  0  0  0
 22 48  1  0  0  0  0
 23 24  1  0  0  0  0
 23 25  1  0  0  0  0
 24 49  1  0  0  0  0
 25 50  1  0  0  0  0
 26 51  1  0  0  0  0
 27 28  1  0  0  0  0
 27 52  1  0  0  0  0
 28 29  1  0  0  0  0
M  END
$$$$
