CHEMBL3976275
 OpenBabel04072215373D

 64 68  0  0  0  0  0  0  0  0999 V2000
    2.9538    5.6685   -4.4287 C   0  0  0  0  0  0  0  0  0  0  0  0
    1.9809    5.9679   -3.4339 O   0  0  0  0  0  0  0  0  0  0  0  0
    0.8202    6.5083   -3.9197 C   0  0  0  0  0  0  0  0  0  0  0  0
    0.7541    7.2873   -5.0738 C   0  0  0  0  0  0  0  0  0  0  0  0
   -0.4731    7.7576   -5.5258 C   0  0  0  0  0  0  0  0  0  0  0  0
   -1.5935    7.5186   -4.7513 C   0  0  0  0  0  0  0  0  0  0  0  0
   -1.5727    6.8006   -3.6079 N   0  0  0  0  0  0  0  0  0  0  0  0
   -0.3692    6.2983   -3.2245 C   0  0  0  0  0  0  0  0  0  0  0  0
   -0.4094    5.4880   -2.0423 C   0  0  0  0  0  0  0  0  0  0  0  0
   -0.4575    4.8440   -1.0377 C   0  0  0  0  0  0  0  0  0  0  0  0
   -0.6359    4.1064    0.2234 C   0  0  0  0  0  0  0  0  0  0  0  0
   -0.1663    4.9266    1.4339 N   0  0  0  0  0  0  0  0  0  0  0  0
    1.1753    4.7074    1.9248 C   0  0  0  0  0  0  0  0  0  0  0  0
    1.7297    3.5670    1.4096 C   0  0  0  0  0  0  0  0  0  0  0  0
    3.0005    3.2632    1.6983 C   0  0  0  0  0  0  0  0  0  0  0  0
    3.7255    3.8473    2.7036 C   0  0  0  0  0  0  0  0  0  0  0  0
    4.5304    2.8578    2.7221 N   0  0  0  0  0  0  0  0  0  0  0  0
    5.6740    2.9150    3.3127 C   0  0  0  0  0  0  0  0  0  0  0  0
    5.9973    3.8958    4.1705 C   0  0  0  0  0  0  0  0  0  0  0  0
    7.3058    3.3723    4.8718 C   0  0  0  0  0  0  0  0  0  0  0  0
    8.6978    3.6817    4.6522 C   0  0  0  0  0  0  0  0  0  0  0  0
    9.5762    2.7065    4.9655 N   0  0  0  0  0  0  0  0  0  0  0  0
    8.8125    1.6666    5.3237 N   0  0  0  0  0  0  0  0  0  0  0  0
    9.4313    0.4107    5.7436 C   0  0  0  0  0  0  0  0  0  0  0  0
    7.4707    1.9838    5.2001 C   0  0  0  0  0  0  0  0  0  0  0  0
    5.0002    4.9653    4.2965 N   0  0  0  0  0  0  0  0  0  0  0  0
    3.5972    4.9731    3.4373 C   0  0  0  0  0  0  0  0  0  0  0  0
    2.0968    5.4519    2.8757 C   0  0  0  0  0  0  0  0  0  0  0  0
   -1.2915    5.5706    2.0429 C   0  0  0  0  0  0  0  0  0  0  0  0
   -1.4114    5.6695    3.4300 C   0  0  0  0  0  0  0  0  0  0  0  0
   -0.5373    4.9938    4.1930 F   0  0  0  0  0  0  0  0  0  0  0  0
   -2.4626    6.3847    4.0305 C   0  0  0  0  0  0  0  0  0  0  0  0
   -2.6542    6.5820    5.3731 O   0  0  0  0  0  0  0  0  0  0  0  0
   -1.6975    5.9960    6.2453 C   0  0  0  0  0  0  0  0  0  0  0  0
   -3.4451    6.9931    3.2391 C   0  0  0  0  0  0  0  0  0  0  0  0
   -3.4241    6.8351    1.8651 C   0  0  0  0  0  0  0  0  0  0  0  0
   -4.3368    7.3371    0.9775 O   0  0  0  0  0  0  0  0  0  0  0  0
   -5.3381    8.1990    1.4945 C   0  0  0  0  0  0  0  0  0  0  0  0
   -2.3792    6.1039    1.2957 C   0  0  0  0  0  0  0  0  0  0  0  0
   -2.4760    5.9133   -0.0280 F   0  0  0  0  0  0  0  0  0  0  0  0
    3.8120    5.2017   -3.9398 H   0  0  0  0  0  0  0  0  0  0  0  0
    3.3211    6.5756   -4.9169 H   0  0  0  0  0  0  0  0  0  0  0  0
    2.5485    4.9640   -5.1638 H   0  0  0  0  0  0  0  0  0  0  0  0
    1.6403    7.5531   -5.6364 H   0  0  0  0  0  0  0  0  0  0  0  0
   -0.5414    8.2992   -6.4620 H   0  0  0  0  0  0  0  0  0  0  0  0
   -2.5626    7.9143   -5.0418 H   0  0  0  0  0  0  0  0  0  0  0  0
   -0.1575    3.1381    0.0649 H   0  0  0  0  0  0  0  0  0  0  0  0
   -1.6685    3.7468    0.3557 H   0  0  0  0  0  0  0  0  0  0  0  0
    1.2929    2.7742    0.8605 H   0  0  0  0  0  0  0  0  0  0  0  0
    3.4096    2.3884    1.1708 H   0  0  0  0  0  0  0  0  0  0  0  0
    6.2660    2.0661    3.0435 H   0  0  0  0  0  0  0  0  0  0  0  0
    9.1350    4.5603    4.1993 H   0  0  0  0  0  0  0  0  0  0  0  0
   10.5263    0.4894    5.7061 H   0  0  0  0  0  0  0  0  0  0  0  0
    9.1286   -0.4253    5.1007 H   0  0  0  0  0  0  0  0  0  0  0  0
    9.1404    0.2044    6.7785 H   0  0  0  0  0  0  0  0  0  0  0  0
    6.7564    1.1690    5.2485 H   0  0  0  0  0  0  0  0  0  0  0  0
    1.7074    6.4070    3.2574 H   0  0  0  0  0  0  0  0  0  0  0  0
   -1.9476    6.2996    7.2649 H   0  0  0  0  0  0  0  0  0  0  0  0
   -0.6871    6.3604    6.0320 H   0  0  0  0  0  0  0  0  0  0  0  0
   -1.7533    4.9037    6.1983 H   0  0  0  0  0  0  0  0  0  0  0  0
   -4.2231    7.5680    3.7289 H   0  0  0  0  0  0  0  0  0  0  0  0
   -5.9338    8.5686    0.6539 H   0  0  0  0  0  0  0  0  0  0  0  0
   -4.8936    9.0653    1.9947 H   0  0  0  0  0  0  0  0  0  0  0  0
   -6.0052    7.6494    2.1647 H   0  0  0  0  0  0  0  0  0  0  0  0
  1  2  1  0  0  0  0
  1 41  1  0  0  0  0
  1 42  1  0  0  0  0
  1 43  1  0  0  0  0
  2  3  1  0  0  0  0
  3  4  1  0  0  0  0
  3  8  2  0  0  0  0
  4  5  2  0  0  0  0
  4 44  1  0  0  0  0
  5  6  1  0  0  0  0
  5 45  1  0  0  0  0
  6  7  2  0  0  0  0
  6 46  1  0  0  0  0
  7  8  1  0  0  0  0
  8  9  1  0  0  0  0
  9 10  3  0  0  0  0
 10 11  1  0  0  0  0
 11 12  1  0  0  0  0
 11 47  1  0  0  0  0
 11 48  1  0  0  0  0
 12 13  1  0  0  0  0
 12 29  1  0  0  0  0
 13 14  1  0  0  0  0
 13 28  2  0  0  0  0
 14 15  2  0  0  0  0
 14 49  1  0  0  0  0
 15 16  1  0  0  0  0
 15 50  1  0  0  0  0
 16 17  1  0  0  0  0
 16 27  2  0  0  0  0
 17 18  2  0  0  0  0
 18 19  1  0  0  0  0
 18 51  1  0  0  0  0
 19 20  1  0  0  0  0
 19 26  2  0  0  0  0
 20 21  1  0  0  0  0
 20 25  2  0  0  0  0
 21 22  2  0  0  0  0
 21 52  1  0  0  0  0
 22 23  1  0  0  0  0
 23 24  1  0  0  0  0
 23 25  1  0  0  0  0
 24 53  1  0  0  0  0
 24 54  1  0  0  0  0
 24 55  1  0  0  0  0
 25 56  1  0  0  0  0
 26 27  1  0  0  0  0
 27 28  1  0  0  0  0
 28 57  1  0  0  0  0
 29 30  1  0  0  0  0
 29 39  2  0  0  0  0
 30 31  1  0  0  0  0
 30 32  2  0  0  0  0
 32 33  1  0  0  0  0
 32 35  1  0  0  0  0
 33 34  1  0  0  0  0
 34 58  1  0  0  0  0
 34 59  1  0  0  0  0
 34 60  1  0  0  0  0
 35 36  2  0  0  0  0
 35 61  1  0  0  0  0
 36 37  1  0  0  0  0
 36 39  1  0  0  0  0
 37 38  1  0  0  0  0
 38 62  1  0  0  0  0
 38 63  1  0  0  0  0
 38 64  1  0  0  0  0
 39 40  1  0  0  0  0
M  END
$$$$
