CHEMBL206463
 OpenBabel04072215363D

 34 37  0  0  0  0  0  0  0  0999 V2000
    0.9456   -0.2340    0.0663 C   0  0  0  0  0  0  0  0  0  0  0  0
    2.3898   -0.1401    0.0570 N   0  0  0  0  0  0  0  0  0  0  0  0
    3.0829    1.0376    0.0344 C   0  0  0  0  0  0  0  0  0  0  0  0
    4.4238    0.7542    0.1432 C   0  0  0  0  0  0  0  0  0  0  0  0
    5.4923    1.7027    0.2093 C   0  0  0  0  0  0  0  0  0  0  0  0
    5.5052    2.9556    0.6976 C   0  0  0  0  0  0  0  0  0  0  0  0
    4.4143    3.7559    1.3108 C   0  0  0  0  0  0  0  0  0  0  0  0
    3.3155    3.4243    1.7035 O   0  0  0  0  0  0  0  0  0  0  0  0
    4.9612    5.0249    1.3933 N   0  0  0  0  0  0  0  0  0  0  0  0
    6.2955    5.1015    1.0929 N   0  0  0  0  0  0  0  0  0  0  0  0
    6.6660    3.8963    0.7127 C   0  0  0  0  0  0  0  0  0  0  0  0
    8.0430    3.5586    0.4332 C   0  0  0  0  0  0  0  0  0  0  0  0
    8.4514    2.3654    0.0475 N   0  0  0  0  0  0  0  0  0  0  0  0
    9.8291    2.3470   -0.0475 C   0  0  0  0  0  0  0  0  0  0  0  0
   10.4621    3.5275    0.2698 C   0  0  0  0  0  0  0  0  0  0  0  0
    9.2978    4.7121    0.6827 S   0  0  0  0  0  0  0  0  0  0  0  0
    4.5520   -0.6747    0.1102 C   0  0  0  0  0  0  0  0  0  0  0  0
    5.6469   -1.5711    0.1191 C   0  0  0  0  0  0  0  0  0  0  0  0
    5.4061   -2.9489    0.1044 C   0  0  0  0  0  0  0  0  0  0  0  0
    6.7379   -4.0420    0.1076 Cl  0  0  0  0  0  0  0  0  0  0  0  0
    4.1102   -3.4540    0.0873 C   0  0  0  0  0  0  0  0  0  0  0  0
    3.0115   -2.5914    0.0732 C   0  0  0  0  0  0  0  0  0  0  0  0
    3.2576   -1.2076    0.0770 C   0  0  0  0  0  0  0  0  0  0  0  0
    0.5130    0.7695    0.0711 H   0  0  0  0  0  0  0  0  0  0  0  0
    0.6407   -0.7701    0.9689 H   0  0  0  0  0  0  0  0  0  0  0  0
    0.6290   -0.7707   -0.8311 H   0  0  0  0  0  0  0  0  0  0  0  0
    2.5514    1.9779   -0.0276 H   0  0  0  0  0  0  0  0  0  0  0  0
    6.4198    1.3212   -0.2097 H   0  0  0  0  0  0  0  0  0  0  0  0
    4.4802    5.8103    1.8163 H   0  0  0  0  0  0  0  0  0  0  0  0
   10.3285    1.4339   -0.3500 H   0  0  0  0  0  0  0  0  0  0  0  0
   11.5200    3.7458    0.2789 H   0  0  0  0  0  0  0  0  0  0  0  0
    6.6649   -1.1942    0.1368 H   0  0  0  0  0  0  0  0  0  0  0  0
    3.9415   -4.5287    0.0849 H   0  0  0  0  0  0  0  0  0  0  0  0
    2.0013   -2.9864    0.0601 H   0  0  0  0  0  0  0  0  0  0  0  0
  1  2  1  0  0  0  0
  1 24  1  0  0  0  0
  1 25  1  0  0  0  0
  1 26  1  0  0  0  0
  2  3  1  0  0  0  0
  2 23  1  0  0  0  0
  3  4  2  0  0  0  0
  3 27  1  0  0  0  0
  4  5  1  0  0  0  0
  4 17  1  0  0  0  0
  5  6  2  0  0  0  0
  5 28  1  0  0  0  0
  6  7  1  0  0  0  0
  6 11  1  0  0  0  0
  7  8  2  0  0  0  0
  7  9  1  0  0  0  0
  9 10  1  0  0  0  0
  9 29  1  0  0  0  0
 10 11  2  0  0  0  0
 11 12  1  0  0  0  0
 12 13  2  0  0  0  0
 12 16  1  0  0  0  0
 13 14  1  0  0  0  0
 14 15  2  0  0  0  0
 14 30  1  0  0  0  0
 15 16  1  0  0  0  0
 15 31  1  0  0  0  0
 17 18  1  0  0  0  0
 17 23  2  0  0  0  0
 18 19  2  0  0  0  0
 18 32  1  0  0  0  0
 19 20  1  0  0  0  0
 19 21  1  0  0  0  0
 21 22  2  0  0  0  0
 21 33  1  0  0  0  0
 22 23  1  0  0  0  0
 22 34  1  0  0  0  0
M  END
$$$$
