CHEMBL4209229
 OpenBabel04072215383D

 60 62  0  0  0  0  0  0  0  0999 V2000
    8.5187    4.0999    3.3341 C   0  0  0  0  0  0  0  0  0  0  0  0
    8.0496    3.2595    2.1629 C   0  0  0  0  0  0  0  0  0  0  0  0
    6.6389    3.0743    2.2731 O   0  0  0  0  0  0  0  0  0  0  0  0
    6.0210    2.3121    1.3035 C   0  0  0  0  0  0  0  0  0  0  0  0
    6.6279    1.7423    0.2434 C   0  0  0  0  0  0  0  0  0  0  0  0
    5.8418    0.9299   -0.7193 C   0  0  0  0  0  0  0  0  0  0  0  0
    6.3812    0.3963   -1.6764 O   0  0  0  0  0  0  0  0  0  0  0  0
    4.5029    0.8250   -0.4564 N   0  0  0  0  0  0  0  0  0  0  0  0
    3.8830    1.4037    0.6266 C   0  0  0  0  0  0  0  0  0  0  0  0
    4.5817    2.1386    1.5139 C   0  0  0  0  0  0  0  0  0  0  0  0
    3.8513    2.6676    2.6876 C   0  0  0  0  0  0  0  0  0  0  0  0
    3.1659    3.8885    2.6340 C   0  0  0  0  0  0  0  0  0  0  0  0
    2.4687    4.3659    3.7575 C   0  0  0  0  0  0  0  0  0  0  0  0
    2.4572    3.6345    4.9545 C   0  0  0  0  0  0  0  0  0  0  0  0
    1.6418    4.0742    6.1452 C   0  0  0  0  0  0  0  0  0  0  0  0
    1.9918    5.4479    6.6811 C   0  0  0  0  0  0  0  0  0  0  0  0
    1.3611    6.4494    6.3428 O   0  0  0  0  0  0  0  0  0  0  0  0
    3.0817    5.4530    7.5398 N   0  0  0  0  0  0  0  0  0  0  0  0
    3.5839    6.6701    8.0507 C   0  0  0  0  0  0  0  0  0  0  0  0
    2.7734    7.5551    8.7676 C   0  0  0  0  0  0  0  0  0  0  0  0
    3.3072    8.7557    9.2665 C   0  0  0  0  0  0  0  0  0  0  0  0
    2.4845    9.6659   10.1493 C   0  0  0  0  0  0  0  0  0  0  0  0
    1.2248    9.2049   10.3874 F   0  0  0  0  0  0  0  0  0  0  0  0
    3.0502    9.8349   11.3781 F   0  0  0  0  0  0  0  0  0  0  0  0
    2.3364   10.9152    9.6313 F   0  0  0  0  0  0  0  0  0  0  0  0
    4.6366    9.0938    8.9490 C   0  0  0  0  0  0  0  0  0  0  0  0
    5.4496    8.2212    8.2048 C   0  0  0  0  0  0  0  0  0  0  0  0
    6.8368    8.6238    7.7586 C   0  0  0  0  0  0  0  0  0  0  0  0
    7.7335    9.0130    8.8587 N   0  0  0  0  0  0  0  0  0  0  0  0
    8.0385    7.8791    9.7356 C   0  0  0  0  0  0  0  0  0  0  0  0
    8.9859    9.5442    8.3074 C   0  0  0  0  0  0  0  0  0  0  0  0
    4.9224    6.9876    7.8182 C   0  0  0  0  0  0  0  0  0  0  0  0
    5.6870    6.1125    7.1446 F   0  0  0  0  0  0  0  0  0  0  0  0
    3.1706    2.4329    4.9954 C   0  0  0  0  0  0  0  0  0  0  0  0
    3.1977    1.7158    6.1293 F   0  0  0  0  0  0  0  0  0  0  0  0
    3.8551    1.9451    3.8844 C   0  0  0  0  0  0  0  0  0  0  0  0
    9.5956    4.2816    3.2716 H   0  0  0  0  0  0  0  0  0  0  0  0
    8.3003    3.5966    4.2817 H   0  0  0  0  0  0  0  0  0  0  0  0
    7.9970    5.0624    3.3546 H   0  0  0  0  0  0  0  0  0  0  0  0
    8.5588    2.2889    2.1923 H   0  0  0  0  0  0  0  0  0  0  0  0
    8.2885    3.7791    1.2280 H   0  0  0  0  0  0  0  0  0  0  0  0
    7.6796    1.8149    0.0221 H   0  0  0  0  0  0  0  0  0  0  0  0
    3.9719    0.2646   -1.1130 H   0  0  0  0  0  0  0  0  0  0  0  0
    2.8194    1.2156    0.7154 H   0  0  0  0  0  0  0  0  0  0  0  0
    3.1648    4.4770    1.7212 H   0  0  0  0  0  0  0  0  0  0  0  0
    1.9279    5.3097    3.6834 H   0  0  0  0  0  0  0  0  0  0  0  0
    1.7279    3.3570    6.9703 H   0  0  0  0  0  0  0  0  0  0  0  0
    0.5810    4.0797    5.8658 H   0  0  0  0  0  0  0  0  0  0  0  0
    3.7820    4.7459    7.3326 H   0  0  0  0  0  0  0  0  0  0  0  0
    1.7337    7.2981    8.9673 H   0  0  0  0  0  0  0  0  0  0  0  0
    5.0480   10.0462    9.2874 H   0  0  0  0  0  0  0  0  0  0  0  0
    6.6951    9.4828    7.0871 H   0  0  0  0  0  0  0  0  0  0  0  0
    7.2936    7.8352    7.1467 H   0  0  0  0  0  0  0  0  0  0  0  0
    7.1296    7.4285   10.1472 H   0  0  0  0  0  0  0  0  0  0  0  0
    8.6253    8.2208   10.5954 H   0  0  0  0  0  0  0  0  0  0  0  0
    8.6053    7.0956    9.2192 H   0  0  0  0  0  0  0  0  0  0  0  0
    8.7936   10.3918    7.6401 H   0  0  0  0  0  0  0  0  0  0  0  0
    9.5436    8.7865    7.7430 H   0  0  0  0  0  0  0  0  0  0  0  0
    9.6301    9.9163    9.1115 H   0  0  0  0  0  0  0  0  0  0  0  0
    4.3863    1.0013    3.9633 H   0  0  0  0  0  0  0  0  0  0  0  0
  1  2  1  0  0  0  0
  1 37  1  0  0  0  0
  1 38  1  0  0  0  0
  1 39  1  0  0  0  0
  2  3  1  0  0  0  0
  2 40  1  0  0  0  0
  2 41  1  0  0  0  0
  3  4  1  0  0  0  0
  4  5  2  0  0  0  0
  4 10  1  0  0  0  0
  5  6  1  0  0  0  0
  5 42  1  0  0  0  0
  6  7  2  0  0  0  0
  6  8  1  0  0  0  0
  8  9  1  0  0  0  0
  8 43  1  0  0  0  0
  9 10  2  0  0  0  0
  9 44  1  0  0  0  0
 10 11  1  0  0  0  0
 11 12  1  0  0  0  0
 11 36  2  0  0  0  0
 12 13  2  0  0  0  0
 12 45  1  0  0  0  0
 13 14  1  0  0  0  0
 13 46  1  0  0  0  0
 14 15  1  0  0  0  0
 14 34  2  0  0  0  0
 15 16  1  0  0  0  0
 15 47  1  0  0  0  0
 15 48  1  0  0  0  0
 16 17  2  0  0  0  0
 16 18  1  0  0  0  0
 18 19  1  0  0  0  0
 18 49  1  0  0  0  0
 19 20  1  0  0  0  0
 19 32  2  0  0  0  0
 20 21  2  0  0  0  0
 20 50  1  0  0  0  0
 21 22  1  0  0  0  0
 21 26  1  0  0  0  0
 22 23  1  0  0  0  0
 22 24  1  0  0  0  0
 22 25  1  0  0  0  0
 26 27  2  0  0  0  0
 26 51  1  0  0  0  0
 27 28  1  0  0  0  0
 27 32  1  0  0  0  0
 28 29  1  0  0  0  0
 28 52  1  0  0  0  0
 28 53  1  0  0  0  0
 29 30  1  0  0  0  0
 29 31  1  0  0  0  0
 30 54  1  0  0  0  0
 30 55  1  0  0  0  0
 30 56  1  0  0  0  0
 31 57  1  0  0  0  0
 31 58  1  0  0  0  0
 31 59  1  0  0  0  0
 32 33  1  0  0  0  0
 34 35  1  0  0  0  0
 34 36  1  0  0  0  0
 36 60  1  0  0  0  0
M  END
$$$$
