CHEMBL406661
 OpenBabel04072215383D

 64 70  0  0  0  0  0  0  0  0999 V2000
   -7.9601   -6.1631   -5.7011 C   0  0  0  0  0  0  0  0  0  0  0  0
   -8.0804   -4.9073   -4.9667 N   0  0  0  0  0  0  0  0  0  0  0  0
   -8.8391   -5.1234   -3.7139 C   0  0  0  0  0  0  0  0  0  0  0  0
   -8.9727   -3.8255   -2.9044 C   0  0  0  0  0  0  0  0  0  0  0  0
   -7.6211   -3.3140   -2.5846 N   0  0  0  0  0  0  0  0  0  0  0  0
   -7.3774   -2.8294   -1.3268 C   0  0  0  0  0  0  0  0  0  0  0  0
   -7.8712   -3.5363   -0.2275 C   0  0  0  0  0  0  0  0  0  0  0  0
   -7.7642   -3.0628    1.0718 C   0  0  0  0  0  0  0  0  0  0  0  0
   -7.0892   -1.8866    1.3355 C   0  0  0  0  0  0  0  0  0  0  0  0
   -7.0802   -1.3435    2.6220 N   0  0  0  0  0  0  0  0  0  0  0  0
   -7.1597   -1.9688    3.8745 C   0  0  0  0  0  0  0  0  0  0  0  0
   -6.3389   -1.3150    4.7086 N   0  0  0  0  0  0  0  0  0  0  0  0
   -6.1244   -1.8585    5.8968 C   0  0  0  0  0  0  0  0  0  0  0  0
   -6.7432   -3.0118    6.2936 C   0  0  0  0  0  0  0  0  0  0  0  0
   -6.5845   -3.3380    7.6964 C   0  0  0  0  0  0  0  0  0  0  0  0
   -5.4568   -3.4163    8.1643 O   0  0  0  0  0  0  0  0  0  0  0  0
   -7.7668   -3.4750    8.3783 N   0  0  0  0  0  0  0  0  0  0  0  0
   -7.8243   -4.4252    9.4458 C   0  0  0  0  0  0  0  0  0  0  0  0
   -8.4338   -4.0501   10.6462 C   0  0  0  0  0  0  0  0  0  0  0  0
   -8.9209   -2.4176   10.9420 Cl  0  0  0  0  0  0  0  0  0  0  0  0
   -8.6135   -4.9850   11.6698 C   0  0  0  0  0  0  0  0  0  0  0  0
   -8.2125   -6.3076   11.5028 C   0  0  0  0  0  0  0  0  0  0  0  0
   -7.5794   -6.6987   10.3306 C   0  0  0  0  0  0  0  0  0  0  0  0
   -7.3435   -5.7609    9.3206 C   0  0  0  0  0  0  0  0  0  0  0  0
   -6.4766   -6.3762    7.9444 Cl  0  0  0  0  0  0  0  0  0  0  0  0
   -8.9351   -3.4087    7.5917 C   0  0  0  0  0  0  0  0  0  0  0  0
  -10.1862   -3.3818    7.9586 N   0  0  0  0  0  0  0  0  0  0  0  0
  -10.5152   -4.6587    7.6588 C   0  0  0  0  0  0  0  0  0  0  0  0
  -11.3372   -5.4315    8.4871 C   0  0  0  0  0  0  0  0  0  0  0  0
  -11.0402   -6.7790    8.5809 C   0  0  0  0  0  0  0  0  0  0  0  0
  -10.1254   -7.3496    7.6897 C   0  0  0  0  0  0  0  0  0  0  0  0
   -9.4634   -6.6032    6.6583 C   0  0  0  0  0  0  0  0  0  0  0  0
   -9.6104   -5.1942    6.6906 C   0  0  0  0  0  0  0  0  0  0  0  0
   -8.8836   -4.0100    6.3197 N   0  0  0  0  0  0  0  0  0  0  0  0
   -7.7511   -3.5662    5.5069 C   0  0  0  0  0  0  0  0  0  0  0  0
   -7.9316   -3.0605    4.2380 N   0  0  0  0  0  0  0  0  0  0  0  0
   -6.5297   -1.1768    0.2539 C   0  0  0  0  0  0  0  0  0  0  0  0
   -6.6628   -1.6521   -1.0574 C   0  0  0  0  0  0  0  0  0  0  0  0
   -6.8043   -3.0541   -3.7709 C   0  0  0  0  0  0  0  0  0  0  0  0
   -6.7435   -4.3446   -4.6381 C   0  0  0  0  0  0  0  0  0  0  0  0
   -8.9537   -6.5502   -5.9553 H   0  0  0  0  0  0  0  0  0  0  0  0
   -7.4297   -6.9335   -5.1298 H   0  0  0  0  0  0  0  0  0  0  0  0
   -7.4317   -6.0047   -6.6465 H   0  0  0  0  0  0  0  0  0  0  0  0
   -8.3439   -5.8854   -3.0933 H   0  0  0  0  0  0  0  0  0  0  0  0
   -9.8447   -5.4915   -3.9426 H   0  0  0  0  0  0  0  0  0  0  0  0
   -9.5804   -4.0295   -2.0170 H   0  0  0  0  0  0  0  0  0  0  0  0
   -9.5176   -3.0665   -3.4778 H   0  0  0  0  0  0  0  0  0  0  0  0
   -8.3545   -4.4931   -0.3628 H   0  0  0  0  0  0  0  0  0  0  0  0
   -8.2035   -3.6581    1.8779 H   0  0  0  0  0  0  0  0  0  0  0  0
   -6.3940   -0.6009    2.7443 H   0  0  0  0  0  0  0  0  0  0  0  0
   -5.5123   -1.2780    6.5805 H   0  0  0  0  0  0  0  0  0  0  0  0
   -9.0693   -4.6754   12.6037 H   0  0  0  0  0  0  0  0  0  0  0  0
   -8.3827   -7.0308   12.2954 H   0  0  0  0  0  0  0  0  0  0  0  0
   -7.2757   -7.7370   10.2044 H   0  0  0  0  0  0  0  0  0  0  0  0
  -11.9476   -4.9334    9.2365 H   0  0  0  0  0  0  0  0  0  0  0  0
  -11.4581   -7.3464    9.4136 H   0  0  0  0  0  0  0  0  0  0  0  0
   -9.8624   -8.3963    7.8646 H   0  0  0  0  0  0  0  0  0  0  0  0
   -8.7037   -7.1091    6.0704 H   0  0  0  0  0  0  0  0  0  0  0  0
   -5.9876   -0.2457    0.4140 H   0  0  0  0  0  0  0  0  0  0  0  0
   -6.2267   -1.0590   -1.8597 H   0  0  0  0  0  0  0  0  0  0  0  0
   -5.7806   -2.7649   -3.5079 H   0  0  0  0  0  0  0  0  0  0  0  0
   -7.2467   -2.2335   -4.3551 H   0  0  0  0  0  0  0  0  0  0  0  0
   -6.1542   -5.0936   -4.0925 H   0  0  0  0  0  0  0  0  0  0  0  0
   -6.2058   -4.1214   -5.5687 H   0  0  0  0  0  0  0  0  0  0  0  0
  1  2  1  0  0  0  0
  1 41  1  0  0  0  0
  1 42  1  0  0  0  0
  1 43  1  0  0  0  0
  2  3  1  0  0  0  0
  2 40  1  0  0  0  0
  3  4  1  0  0  0  0
  3 44  1  0  0  0  0
  3 45  1  0  0  0  0
  4  5  1  0  0  0  0
  4 46  1  0  0  0  0
  4 47  1  0  0  0  0
  5  6  1  0  0  0  0
  5 39  1  0  0  0  0
  6  7  1  0  0  0  0
  6 38  2  0  0  0  0
  7  8  2  0  0  0  0
  7 48  1  0  0  0  0
  8  9  1  0  0  0  0
  8 49  1  0  0  0  0
  9 10  1  0  0  0  0
  9 37  2  0  0  0  0
 10 11  1  0  0  0  0
 10 50  1  0  0  0  0
 11 12  1  0  0  0  0
 11 36  2  0  0  0  0
 12 13  2  0  0  0  0
 13 14  1  0  0  0  0
 13 51  1  0  0  0  0
 14 15  1  0  0  0  0
 14 35  2  0  0  0  0
 15 16  2  0  0  0  0
 15 17  1  0  0  0  0
 17 18  1  0  0  0  0
 17 26  1  0  0  0  0
 18 19  1  0  0  0  0
 18 24  2  0  0  0  0
 19 20  1  0  0  0  0
 19 21  2  0  0  0  0
 21 22  1  0  0  0  0
 21 52  1  0  0  0  0
 22 23  2  0  0  0  0
 22 53  1  0  0  0  0
 23 24  1  0  0  0  0
 23 54  1  0  0  0  0
 24 25  1  0  0  0  0
 26 27  2  0  0  0  0
 26 34  1  0  0  0  0
 27 28  1  0  0  0  0
 28 29  1  0  0  0  0
 28 33  2  0  0  0  0
 29 30  2  0  0  0  0
 29 55  1  0  0  0  0
 30 31  1  0  0  0  0
 30 56  1  0  0  0  0
 31 32  2  0  0  0  0
 31 57  1  0  0  0  0
 32 33  1  0  0  0  0
 32 58  1  0  0  0  0
 33 34  1  0  0  0  0
 34 35  1  0  0  0  0
 35 36  1  0  0  0  0
 37 38  1  0  0  0  0
 37 59  1  0  0  0  0
 38 60  1  0  0  0  0
 39 40  1  0  0  0  0
 39 61  1  0  0  0  0
 39 62  1  0  0  0  0
 40 63  1  0  0  0  0
 40 64  1  0  0  0  0
M  END
$$$$
