CHEMBL3323612
 OpenBabel04072215363D

 42 46  0  0  0  0  0  0  0  0999 V2000
    1.3271    1.7236   -0.1080 Cl  0  0  0  0  0  0  0  0  0  0  0  0
   -0.1115    0.7705   -0.0457 C   0  0  0  0  0  0  0  0  0  0  0  0
   -1.2726    1.3102   -0.6072 C   0  0  0  0  0  0  0  0  0  0  0  0
   -2.4707    0.5893   -0.5850 C   0  0  0  0  0  0  0  0  0  0  0  0
   -2.5196   -0.6805    0.0020 C   0  0  0  0  0  0  0  0  0  0  0  0
   -3.7594   -1.4509    0.0802 C   0  0  0  0  0  0  0  0  0  0  0  0
   -4.0444   -2.3318    1.0163 N   0  0  0  0  0  0  0  0  0  0  0  0
   -5.3065   -2.7864    0.7382 C   0  0  0  0  0  0  0  0  0  0  0  0
   -6.0969   -3.6891    1.4484 C   0  0  0  0  0  0  0  0  0  0  0  0
   -7.3720   -3.9804    0.9527 C   0  0  0  0  0  0  0  0  0  0  0  0
   -7.8508   -3.4399   -0.2563 C   0  0  0  0  0  0  0  0  0  0  0  0
   -9.1528   -3.7489   -0.7196 N   0  0  0  0  0  0  0  0  0  0  0  0
   -9.8878   -4.9321   -0.4315 C   0  0  0  0  0  0  0  0  0  0  0  0
   -9.2339   -6.1670   -0.3770 C   0  0  0  0  0  0  0  0  0  0  0  0
   -9.9555   -7.2818   -0.0102 C   0  0  0  0  0  0  0  0  0  0  0  0
  -11.2717   -7.2605    0.2716 N   0  0  0  0  0  0  0  0  0  0  0  0
  -11.9203   -6.0891    0.1690 C   0  0  0  0  0  0  0  0  0  0  0  0
  -13.2749   -6.0668    0.4689 C   0  0  0  0  0  0  0  0  0  0  0  0
  -14.0307   -4.8960    0.3858 C   0  0  0  0  0  0  0  0  0  0  0  0
  -13.4244   -3.7128   -0.0128 C   0  0  0  0  0  0  0  0  0  0  0  0
  -12.0602   -3.7031   -0.3035 C   0  0  0  0  0  0  0  0  0  0  0  0
  -11.2856   -4.8846   -0.2096 C   0  0  0  0  0  0  0  0  0  0  0  0
   -7.0649   -2.5048   -0.9528 C   0  0  0  0  0  0  0  0  0  0  0  0
   -5.8014   -2.2095   -0.4232 C   0  0  0  0  0  0  0  0  0  0  0  0
   -4.7952   -1.3658   -0.8239 N   0  0  0  0  0  0  0  0  0  0  0  0
   -1.3512   -1.2105    0.5721 C   0  0  0  0  0  0  0  0  0  0  0  0
   -0.1507   -0.4957    0.5453 C   0  0  0  0  0  0  0  0  0  0  0  0
    1.2416   -1.2286    1.2578 Cl  0  0  0  0  0  0  0  0  0  0  0  0
   -1.2547    2.3020   -1.0540 H   0  0  0  0  0  0  0  0  0  0  0  0
   -3.3621    1.0504   -1.0017 H   0  0  0  0  0  0  0  0  0  0  0  0
   -5.7366   -4.1336    2.3691 H   0  0  0  0  0  0  0  0  0  0  0  0
   -7.9969   -4.6495    1.5393 H   0  0  0  0  0  0  0  0  0  0  0  0
   -9.3601   -3.3987   -1.6495 H   0  0  0  0  0  0  0  0  0  0  0  0
   -8.1750   -6.2569   -0.5878 H   0  0  0  0  0  0  0  0  0  0  0  0
   -9.4752   -8.2516    0.0830 H   0  0  0  0  0  0  0  0  0  0  0  0
  -13.7534   -6.9903    0.7870 H   0  0  0  0  0  0  0  0  0  0  0  0
  -15.0876   -4.9161    0.6379 H   0  0  0  0  0  0  0  0  0  0  0  0
  -14.0065   -2.7977   -0.0831 H   0  0  0  0  0  0  0  0  0  0  0  0
  -11.5958   -2.7632   -0.5919 H   0  0  0  0  0  0  0  0  0  0  0  0
   -7.4187   -2.0279   -1.8595 H   0  0  0  0  0  0  0  0  0  0  0  0
   -4.8077   -0.7853   -1.6479 H   0  0  0  0  0  0  0  0  0  0  0  0
   -1.3857   -2.1912    1.0468 H   0  0  0  0  0  0  0  0  0  0  0  0
  1  2  1  0  0  0  0
  2  3  1  0  0  0  0
  2 27  2  0  0  0  0
  3  4  2  0  0  0  0
  3 29  1  0  0  0  0
  4  5  1  0  0  0  0
  4 30  1  0  0  0  0
  5  6  1  0  0  0  0
  5 26  2  0  0  0  0
  6  7  2  0  0  0  0
  6 25  1  0  0  0  0
  7  8  1  0  0  0  0
  8  9  1  0  0  0  0
  8 24  2  0  0  0  0
  9 10  2  0  0  0  0
  9 31  1  0  0  0  0
 10 11  1  0  0  0  0
 10 32  1  0  0  0  0
 11 12  1  0  0  0  0
 11 23  2  0  0  0  0
 12 13  1  0  0  0  0
 12 33  1  0  0  0  0
 13 14  1  0  0  0  0
 13 22  2  0  0  0  0
 14 15  2  0  0  0  0
 14 34  1  0  0  0  0
 15 16  1  0  0  0  0
 15 35  1  0  0  0  0
 16 17  2  0  0  0  0
 17 18  1  0  0  0  0
 17 22  1  0  0  0  0
 18 19  2  0  0  0  0
 18 36  1  0  0  0  0
 19 20  1  0  0  0  0
 19 37  1  0  0  0  0
 20 21  2  0  0  0  0
 20 38  1  0  0  0  0
 21 22  1  0  0  0  0
 21 39  1  0  0  0  0
 23 24  1  0  0  0  0
 23 40  1  0  0  0  0
 24 25  1  0  0  0  0
 25 41  1  0  0  0  0
 26 27  1  0  0  0  0
 26 42  1  0  0  0  0
 27 28  1  0  0  0  0
M  END
$$$$
