CHEMBL162
 OpenBabel04072215363D

 61 68  0  0  1  0  0  0  0  0999 V2000
    3.7809   -1.0637    0.9551 C   0  0  0  0  0  0  0  0  0  0  0  0
    3.3121   -0.6610   -0.3451 N   0  0  0  0  0  0  0  0  0  0  0  0
    2.8094   -1.6478   -1.3034 C   0  0  2  0  0  0  0  0  0  0  0  0
    3.7893   -2.7482   -2.0459 C   0  0  0  0  0  0  0  0  0  0  0  0
    3.4259   -3.2801   -3.5613 C   0  0  3  0  0  0  0  0  0  0  0  0
    2.9809   -1.9947   -3.9263 O   0  0  0  0  0  0  0  0  0  0  0  0
    1.6416   -1.8000   -3.4415 C   0  0  1  0  0  0  0  0  0  0  0  0
    0.7917   -2.9803   -2.6792 C   0  0  0  0  0  0  0  0  0  0  0  0
    1.8331   -0.8376   -2.2804 C   0  0  2  0  0  0  0  0  0  0  0  0
    2.3409    0.4549   -2.6488 O   0  0  0  0  0  0  0  0  0  0  0  0
    1.2786    1.3755   -2.9199 C   0  0  0  0  0  0  0  0  0  0  0  0
    1.0480   -1.5919   -4.7113 N   0  0  0  0  0  0  0  0  0  0  0  0
    0.9734   -0.6047   -5.6836 C   0  0  0  0  0  0  0  0  0  0  0  0
    1.7063    0.5743   -5.8670 C   0  0  0  0  0  0  0  0  0  0  0  0
    1.3068    1.4562   -6.8711 C   0  0  0  0  0  0  0  0  0  0  0  0
    0.2724    1.1437   -7.7182 C   0  0  0  0  0  0  0  0  0  0  0  0
   -0.2947   -0.1429   -7.7284 C   0  0  0  0  0  0  0  0  0  0  0  0
    0.1516   -1.0813   -6.7825 C   0  0  0  0  0  0  0  0  0  0  0  0
    0.2584   -2.4869   -6.7346 C   0  0  0  0  0  0  0  0  0  0  0  0
    0.0050   -3.3912   -7.7568 C   0  0  0  0  0  0  0  0  0  0  0  0
    0.5576   -4.6724   -7.5345 C   0  0  0  0  0  0  0  0  0  0  0  0
    1.4667   -4.7307   -6.4457 C   0  0  0  0  0  0  0  0  0  0  0  0
    2.0281   -5.8892   -5.8735 C   0  0  0  0  0  0  0  0  0  0  0  0
    2.1219   -7.2266   -6.3009 C   0  0  0  0  0  0  0  0  0  0  0  0
    1.9706   -8.2228   -5.3557 C   0  0  0  0  0  0  0  0  0  0  0  0
    1.7263   -7.8792   -4.0266 C   0  0  0  0  0  0  0  0  0  0  0  0
    1.9395   -6.5689   -3.5520 C   0  0  0  0  0  0  0  0  0  0  0  0
    2.3097   -5.5630   -4.4653 C   0  0  0  0  0  0  0  0  0  0  0  0
    2.4803   -4.1645   -4.2950 N   0  0  0  0  0  0  0  0  0  0  0  0
    1.7341   -3.8097   -5.4293 C   0  0  0  0  0  0  0  0  0  0  0  0
    0.9781   -2.6414   -5.5652 C   0  0  0  0  0  0  0  0  0  0  0  0
   -0.0629   -5.5671   -8.4735 C   0  0  0  0  0  0  0  0  0  0  0  0
   -0.0354   -6.7804   -8.6200 O   0  0  0  0  0  0  0  0  0  0  0  0
   -0.8784   -4.7377   -9.2434 N   0  0  0  0  0  0  0  0  0  0  0  0
   -0.8748   -3.3264   -8.9110 C   0  0  0  0  0  0  0  0  0  0  0  0
    3.8628   -0.1874    1.5948 H   0  0  0  0  0  0  0  0  0  0  0  0
    4.7689   -1.5373    0.8911 H   0  0  0  0  0  0  0  0  0  0  0  0
    3.0812   -1.7472    1.4408 H   0  0  0  0  0  0  0  0  0  0  0  0
    3.7568    0.1513   -0.7702 H   0  0  0  0  0  0  0  0  0  0  0  0
    2.1637   -2.2838   -0.6858 H   0  0  0  0  0  0  0  0  0  0  0  0
    4.0886   -3.5550   -1.3720 H   0  0  0  0  0  0  0  0  0  0  0  0
    4.7086   -2.1495   -2.2061 H   0  0  0  0  0  0  0  0  0  0  0  0
    4.3829   -3.4791   -4.0455 H   0  0  0  0  0  0  0  0  0  0  0  0
    1.3842   -3.5713   -1.9661 H   0  0  0  0  0  0  0  0  0  0  0  0
    0.3326   -3.7341   -3.3217 H   0  0  0  0  0  0  0  0  0  0  0  0
   -0.0545   -2.5566   -2.1297 H   0  0  0  0  0  0  0  0  0  0  0  0
    0.9010   -0.6743   -1.7155 H   0  0  0  0  0  0  0  0  0  0  0  0
    1.2600    2.1513   -2.1456 H   0  0  0  0  0  0  0  0  0  0  0  0
    0.2930    0.8994   -2.9841 H   0  0  0  0  0  0  0  0  0  0  0  0
    1.4713    1.8960   -3.8510 H   0  0  0  0  0  0  0  0  0  0  0  0
    2.5857    0.7766   -5.2604 H   0  0  0  0  0  0  0  0  0  0  0  0
    1.8459    2.3961   -6.9856 H   0  0  0  0  0  0  0  0  0  0  0  0
   -0.0452    1.8588   -8.4812 H   0  0  0  0  0  0  0  0  0  0  0  0
   -0.9709   -0.4274   -8.5281 H   0  0  0  0  0  0  0  0  0  0  0  0
    2.1126   -7.4798   -7.3594 H   0  0  0  0  0  0  0  0  0  0  0  0
    1.8963   -9.2598   -5.6819 H   0  0  0  0  0  0  0  0  0  0  0  0
    1.3169   -8.6385   -3.3634 H   0  0  0  0  0  0  0  0  0  0  0  0
    1.6358   -6.3145   -2.5406 H   0  0  0  0  0  0  0  0  0  0  0  0
   -1.5309   -5.1476   -9.8970 H   0  0  0  0  0  0  0  0  0  0  0  0
   -1.8872   -3.0092   -8.6533 H   0  0  0  0  0  0  0  0  0  0  0  0
   -0.4500   -2.7485   -9.7305 H   0  0  0  0  0  0  0  0  0  0  0  0
  1  2  1  0  0  0  0
  1 36  1  0  0  0  0
  1 37  1  0  0  0  0
  1 38  1  0  0  0  0
  2  3  1  0  0  0  0
  2 39  1  0  0  0  0
  3  4  1  0  0  0  0
  3  9  1  0  0  0  0
  3 40  1  1  0  0  0
  4  5  1  0  0  0  0
  4 41  1  0  0  0  0
  4 42  1  0  0  0  0
  5  6  1  0  0  0  0
  5 29  1  0  0  0  0
  5 43  1  0  0  0  0
  6  7  1  0  0  0  0
  7  9  1  0  0  0  0
  7 12  1  0  0  0  0
  7  8  1  1  0  0  0
  8 44  1  0  0  0  0
  8 45  1  0  0  0  0
  8 46  1  0  0  0  0
  9 10  1  0  0  0  0
  9 47  1  1  0  0  0
 10 11  1  0  0  0  0
 11 48  1  0  0  0  0
 11 49  1  0  0  0  0
 11 50  1  0  0  0  0
 12 13  1  0  0  0  0
 12 31  1  0  0  0  0
 13 14  1  0  0  0  0
 13 18  2  0  0  0  0
 14 15  2  0  0  0  0
 14 51  1  0  0  0  0
 15 16  1  0  0  0  0
 15 52  1  0  0  0  0
 16 17  2  0  0  0  0
 16 53  1  0  0  0  0
 17 18  1  0  0  0  0
 17 54  1  0  0  0  0
 18 19  1  0  0  0  0
 19 20  1  0  0  0  0
 19 31  2  0  0  0  0
 20 21  2  0  0  0  0
 20 35  1  0  0  0  0
 21 22  1  0  0  0  0
 21 32  1  0  0  0  0
 22 23  1  0  0  0  0
 22 30  2  0  0  0  0
 23 24  1  0  0  0  0
 23 28  2  0  0  0  0
 24 25  2  0  0  0  0
 24 55  1  0  0  0  0
 25 26  1  0  0  0  0
 25 56  1  0  0  0  0
 26 27  2  0  0  0  0
 26 57  1  0  0  0  0
 27 28  1  0  0  0  0
 27 58  1  0  0  0  0
 28 29  1  0  0  0  0
 29 30  1  0  0  0  0
 30 31  1  0  0  0  0
 32 34  1  0  0  0  0
 32 33  2  0  0  0  0
 34 35  1  0  0  0  0
 34 59  1  0  0  0  0
 35 60  1  0  0  0  0
 35 61  1  0  0  0  0
M  END
$$$$
