CHEMBL2071274
 OpenBabel04072215363D

 59 63  0  0  1  0  0  0  0  0999 V2000
    2.1909   -0.1528    1.2728 N   0  0  0  0  0  0  0  0  0  0  0  0
    3.3277   -0.8061    1.6186 C   0  0  0  0  0  0  0  0  0  0  0  0
    4.3948   -0.1946    1.6158 O   0  0  0  0  0  0  0  0  0  0  0  0
    3.2467   -2.2653    2.0122 C   0  0  1  0  0  0  0  0  0  0  0  0
    2.3745   -2.5693    3.2686 C   0  0  2  0  0  0  0  0  0  0  0  0
    2.7461   -3.9548    3.7621 C   0  0  0  0  0  0  0  0  0  0  0  0
    2.2920   -4.8359    2.8539 C   0  0  0  0  0  0  0  0  0  0  0  0
    1.6039   -4.0359    1.7564 C   0  0  1  0  0  0  0  0  0  0  0  0
    1.0222   -2.9552    2.6770 C   0  0  0  0  0  0  0  0  0  0  0  0
    2.7252   -3.2932    0.9696 C   0  0  1  0  0  0  0  0  0  0  0  0
    2.3966   -2.8371   -0.3828 N   0  0  0  0  0  0  0  0  0  0  0  0
    1.1472   -2.4860   -0.8568 C   0  0  0  0  0  0  0  0  0  0  0  0
    0.2868   -1.9515    0.0207 N   0  0  0  0  0  0  0  0  0  0  0  0
   -0.9413   -1.6010   -0.3830 C   0  0  0  0  0  0  0  0  0  0  0  0
   -1.7069   -0.9471    0.5866 N   0  0  0  0  0  0  0  0  0  0  0  0
   -2.7311   -0.1038    0.3806 C   0  0  0  0  0  0  0  0  0  0  0  0
   -3.6335   -0.0455   -0.7005 C   0  0  0  0  0  0  0  0  0  0  0  0
   -4.4450    1.0072   -0.6118 N   0  0  0  0  0  0  0  0  0  0  0  0
   -4.0575    1.6154    0.5268 N   0  0  0  0  0  0  0  0  0  0  0  0
   -4.6525    2.8851    0.9134 C   0  0  0  0  0  0  0  0  0  0  0  0
   -6.0995    3.0053    0.4328 C   0  0  0  0  0  0  0  0  0  0  0  0
   -6.7810    4.2692    0.7705 N   0  0  0  0  0  0  0  0  0  0  0  0
   -6.8997    4.5195    2.2218 C   0  0  0  0  0  0  0  0  0  0  0  0
   -7.8715    3.5651    2.9331 C   0  0  0  0  0  0  0  0  0  0  0  0
   -9.1749    3.6092    2.3401 O   0  0  0  0  0  0  0  0  0  0  0  0
   -9.1174    3.3135    0.9384 C   0  0  0  0  0  0  0  0  0  0  0  0
   -8.1521    4.2640    0.2026 C   0  0  0  0  0  0  0  0  0  0  0  0
   -3.0659    0.9473    1.1943 C   0  0  0  0  0  0  0  0  0  0  0  0
   -1.3729   -1.7679   -1.6356 N   0  0  0  0  0  0  0  0  0  0  0  0
   -0.4960   -2.2929   -2.5134 C   0  0  0  0  0  0  0  0  0  0  0  0
    0.7904   -2.6537   -2.1838 C   0  0  0  0  0  0  0  0  0  0  0  0
    1.8487   -3.2918   -3.3756 Cl  0  0  0  0  0  0  0  0  0  0  0  0
    2.3436    0.7702    0.8834 H   0  0  0  0  0  0  0  0  0  0  0  0
    1.4440   -0.6892    0.8404 H   0  0  0  0  0  0  0  0  0  0  0  0
    4.2859   -2.5344    2.2585 H   0  0  0  0  0  0  0  0  0  0  0  0
    2.3213   -1.7975    4.0376 H   0  0  0  0  0  0  0  0  0  0  0  0
    3.2908   -4.1747    4.6679 H   0  0  0  0  0  0  0  0  0  0  0  0
    2.4082   -5.9090    2.8743 H   0  0  0  0  0  0  0  0  0  0  0  0
    0.8802   -4.6064    1.1723 H   0  0  0  0  0  0  0  0  0  0  0  0
    0.3111   -3.3628    3.4106 H   0  0  0  0  0  0  0  0  0  0  0  0
    0.5326   -2.1095    2.2119 H   0  0  0  0  0  0  0  0  0  0  0  0
    3.5407   -4.0114    0.7995 H   0  0  0  0  0  0  0  0  0  0  0  0
    3.1679   -2.4484   -0.9194 H   0  0  0  0  0  0  0  0  0  0  0  0
   -1.1402   -0.8560    1.4215 H   0  0  0  0  0  0  0  0  0  0  0  0
   -3.7209   -0.7081   -1.5499 H   0  0  0  0  0  0  0  0  0  0  0  0
   -4.0200    3.6716    0.4854 H   0  0  0  0  0  0  0  0  0  0  0  0
   -4.5879    2.9360    2.0064 H   0  0  0  0  0  0  0  0  0  0  0  0
   -6.6615    2.1350    0.7998 H   0  0  0  0  0  0  0  0  0  0  0  0
   -6.0971    2.9292   -0.6650 H   0  0  0  0  0  0  0  0  0  0  0  0
   -7.2697    5.5459    2.3440 H   0  0  0  0  0  0  0  0  0  0  0  0
   -5.9203    4.5039    2.7080 H   0  0  0  0  0  0  0  0  0  0  0  0
   -7.9767    3.8685    3.9794 H   0  0  0  0  0  0  0  0  0  0  0  0
   -7.5026    2.5332    2.9275 H   0  0  0  0  0  0  0  0  0  0  0  0
  -10.1278    3.4301    0.5345 H   0  0  0  0  0  0  0  0  0  0  0  0
   -8.8391    2.2618    0.8046 H   0  0  0  0  0  0  0  0  0  0  0  0
   -8.5464    5.2859    0.2744 H   0  0  0  0  0  0  0  0  0  0  0  0
   -8.1271    4.0224   -0.8674 H   0  0  0  0  0  0  0  0  0  0  0  0
   -2.6555    1.3137    2.1266 H   0  0  0  0  0  0  0  0  0  0  0  0
   -0.8795   -2.4098   -3.5223 H   0  0  0  0  0  0  0  0  0  0  0  0
  1  2  1  0  0  0  0
  1 33  1  0  0  0  0
  1 34  1  0  0  0  0
  2  3  2  0  0  0  0
  2  4  1  0  0  0  0
  4  5  1  0  0  0  0
  4 10  1  0  0  0  0
  4 35  1  1  0  0  0
  5  6  1  0  0  0  0
  5  9  1  0  0  0  0
  5 36  1  1  0  0  0
  6  7  2  0  0  0  0
  6 37  1  0  0  0  0
  7  8  1  0  0  0  0
  7 38  1  0  0  0  0
  8  9  1  0  0  0  0
  8 10  1  0  0  0  0
  8 39  1  6  0  0  0
  9 40  1  0  0  0  0
  9 41  1  0  0  0  0
 10 11  1  0  0  0  0
 10 42  1  6  0  0  0
 11 12  1  0  0  0  0
 11 43  1  0  0  0  0
 12 13  1  0  0  0  0
 12 31  2  0  0  0  0
 13 14  2  0  0  0  0
 14 15  1  0  0  0  0
 14 29  1  0  0  0  0
 15 16  1  0  0  0  0
 15 44  1  0  0  0  0
 16 17  1  0  0  0  0
 16 28  2  0  0  0  0
 17 18  2  0  0  0  0
 17 45  1  0  0  0  0
 18 19  1  0  0  0  0
 19 20  1  0  0  0  0
 19 28  1  0  0  0  0
 20 21  1  0  0  0  0
 20 46  1  0  0  0  0
 20 47  1  0  0  0  0
 21 22  1  0  0  0  0
 21 48  1  0  0  0  0
 21 49  1  0  0  0  0
 22 23  1  0  0  0  0
 22 27  1  0  0  0  0
 23 24  1  0  0  0  0
 23 50  1  0  0  0  0
 23 51  1  0  0  0  0
 24 25  1  0  0  0  0
 24 52  1  0  0  0  0
 24 53  1  0  0  0  0
 25 26  1  0  0  0  0
 26 27  1  0  0  0  0
 26 54  1  0  0  0  0
 26 55  1  0  0  0  0
 27 56  1  0  0  0  0
 27 57  1  0  0  0  0
 28 58  1  0  0  0  0
 29 30  2  0  0  0  0
 30 31  1  0  0  0  0
 30 59  1  0  0  0  0
 31 32  1  0  0  0  0
M  END
$$$$
