CHEMBL3397944
 OpenBabel04072215363D

 57 60  0  0  0  0  0  0  0  0999 V2000
    1.0037    0.4900   -0.8329 O   0  0  0  0  0  0  0  0  0  0  0  0
    2.1166    0.2348   -0.3916 C   0  0  0  0  0  0  0  0  0  0  0  0
    2.6933   -1.0204   -0.2484 N   0  0  0  0  0  0  0  0  0  0  0  0
    2.0870   -2.2343   -0.6306 C   0  0  0  0  0  0  0  0  0  0  0  0
    0.9686   -2.2656   -1.4530 C   0  0  0  0  0  0  0  0  0  0  0  0
    0.3474   -3.4675   -1.7607 C   0  0  0  0  0  0  0  0  0  0  0  0
    0.8617   -4.6860   -1.3053 C   0  0  0  0  0  0  0  0  0  0  0  0
    0.3208   -5.9051   -1.6621 O   0  0  0  0  0  0  0  0  0  0  0  0
   -0.6075   -5.8003   -2.7457 C   0  0  0  0  0  0  0  0  0  0  0  0
   -0.9751   -7.1471   -3.3659 C   0  0  0  0  0  0  0  0  0  0  0  0
   -1.7288   -6.9487   -4.6249 N   0  0  0  0  0  0  0  0  0  0  0  0
   -3.0083   -6.2215   -4.4541 C   0  0  0  0  0  0  0  0  0  0  0  0
   -4.0671   -7.0433   -3.7081 C   0  0  0  0  0  0  0  0  0  0  0  0
   -4.3416   -8.2623   -4.4096 O   0  0  0  0  0  0  0  0  0  0  0  0
   -3.1477   -9.0360   -4.5950 C   0  0  0  0  0  0  0  0  0  0  0  0
   -2.0318   -8.2326   -5.2873 C   0  0  0  0  0  0  0  0  0  0  0  0
    1.9896   -4.6596   -0.4756 C   0  0  0  0  0  0  0  0  0  0  0  0
    2.6523   -6.1128    0.1856 Cl  0  0  0  0  0  0  0  0  0  0  0  0
    2.6102   -3.4410   -0.1528 C   0  0  0  0  0  0  0  0  0  0  0  0
    2.9168    1.3679    0.1211 C   0  0  0  0  0  0  0  0  0  0  0  0
    2.2347    2.4322    0.7137 C   0  0  0  0  0  0  0  0  0  0  0  0
    2.9485    3.5203    1.1961 C   0  0  0  0  0  0  0  0  0  0  0  0
    4.3409    3.5399    1.0849 C   0  0  0  0  0  0  0  0  0  0  0  0
    5.0563    2.4729    0.5041 C   0  0  0  0  0  0  0  0  0  0  0  0
    6.5367    2.4476    0.4785 C   0  0  0  0  0  0  0  0  0  0  0  0
    7.2870    3.0121    1.5272 C   0  0  0  0  0  0  0  0  0  0  0  0
    8.6811    2.9183    1.5647 C   0  0  0  0  0  0  0  0  0  0  0  0
    9.3634    2.2416    0.5580 C   0  0  0  0  0  0  0  0  0  0  0  0
    8.6406    1.6789   -0.4844 C   0  0  0  0  0  0  0  0  0  0  0  0
    9.2565    0.9715   -1.4745 O   0  0  0  0  0  0  0  0  0  0  0  0
    7.2544    1.8005   -0.5450 C   0  0  0  0  0  0  0  0  0  0  0  0
    4.3092    1.3942    0.0011 C   0  0  0  0  0  0  0  0  0  0  0  0
    3.5430   -1.0918    0.2969 H   0  0  0  0  0  0  0  0  0  0  0  0
    0.5455   -1.3686   -1.8930 H   0  0  0  0  0  0  0  0  0  0  0  0
   -0.5415   -3.3938   -2.3784 H   0  0  0  0  0  0  0  0  0  0  0  0
   -0.1671   -5.1942   -3.5485 H   0  0  0  0  0  0  0  0  0  0  0  0
   -1.5183   -5.3302   -2.3565 H   0  0  0  0  0  0  0  0  0  0  0  0
   -1.5147   -7.7553   -2.6314 H   0  0  0  0  0  0  0  0  0  0  0  0
   -0.0439   -7.6865   -3.5803 H   0  0  0  0  0  0  0  0  0  0  0  0
   -3.3903   -5.9892   -5.4571 H   0  0  0  0  0  0  0  0  0  0  0  0
   -2.8647   -5.2486   -3.9744 H   0  0  0  0  0  0  0  0  0  0  0  0
   -5.0004   -6.4748   -3.6496 H   0  0  0  0  0  0  0  0  0  0  0  0
   -3.7602   -7.2712   -2.6810 H   0  0  0  0  0  0  0  0  0  0  0  0
   -3.4133   -9.8950   -5.2188 H   0  0  0  0  0  0  0  0  0  0  0  0
   -2.8187   -9.4222   -3.6245 H   0  0  0  0  0  0  0  0  0  0  0  0
   -2.3533   -8.0001   -6.3116 H   0  0  0  0  0  0  0  0  0  0  0  0
   -1.1251   -8.8395   -5.3858 H   0  0  0  0  0  0  0  0  0  0  0  0
    3.4874   -3.4467    0.4885 H   0  0  0  0  0  0  0  0  0  0  0  0
    1.1513    2.4065    0.8060 H   0  0  0  0  0  0  0  0  0  0  0  0
    2.4217    4.3475    1.6646 H   0  0  0  0  0  0  0  0  0  0  0  0
    4.8650    4.4144    1.4649 H   0  0  0  0  0  0  0  0  0  0  0  0
    6.7890    3.5133    2.3546 H   0  0  0  0  0  0  0  0  0  0  0  0
    9.2279    3.3609    2.3927 H   0  0  0  0  0  0  0  0  0  0  0  0
   10.4414    2.1531    0.6108 H   0  0  0  0  0  0  0  0  0  0  0  0
   10.1916    0.8598   -1.2375 H   0  0  0  0  0  0  0  0  0  0  0  0
    6.7404    1.3624   -1.3987 H   0  0  0  0  0  0  0  0  0  0  0  0
    4.8162    0.5680   -0.4907 H   0  0  0  0  0  0  0  0  0  0  0  0
  1  2  2  0  0  0  0
  2  3  1  0  0  0  0
  2 20  1  0  0  0  0
  3  4  1  0  0  0  0
  3 33  1  0  0  0  0
  4  5  1  0  0  0  0
  4 19  2  0  0  0  0
  5  6  2  0  0  0  0
  5 34  1  0  0  0  0
  6  7  1  0  0  0  0
  6 35  1  0  0  0  0
  7  8  1  0  0  0  0
  7 17  2  0  0  0  0
  8  9  1  0  0  0  0
  9 10  1  0  0  0  0
  9 36  1  0  0  0  0
  9 37  1  0  0  0  0
 10 11  1  0  0  0  0
 10 38  1  0  0  0  0
 10 39  1  0  0  0  0
 11 12  1  0  0  0  0
 11 16  1  0  0  0  0
 12 13  1  0  0  0  0
 12 40  1  0  0  0  0
 12 41  1  0  0  0  0
 13 14  1  0  0  0  0
 13 42  1  0  0  0  0
 13 43  1  0  0  0  0
 14 15  1  0  0  0  0
 15 16  1  0  0  0  0
 15 44  1  0  0  0  0
 15 45  1  0  0  0  0
 16 46  1  0  0  0  0
 16 47  1  0  0  0  0
 17 18  1  0  0  0  0
 17 19  1  0  0  0  0
 19 48  1  0  0  0  0
 20 21  1  0  0  0  0
 20 32  2  0  0  0  0
 21 22  2  0  0  0  0
 21 49  1  0  0  0  0
 22 23  1  0  0  0  0
 22 50  1  0  0  0  0
 23 24  2  0  0  0  0
 23 51  1  0  0  0  0
 24 25  1  0  0  0  0
 24 32  1  0  0  0  0
 25 26  1  0  0  0  0
 25 31  2  0  0  0  0
 26 27  2  0  0  0  0
 26 52  1  0  0  0  0
 27 28  1  0  0  0  0
 27 53  1  0  0  0  0
 28 29  2  0  0  0  0
 28 54  1  0  0  0  0
 29 30  1  0  0  0  0
 29 31  1  0  0  0  0
 30 55  1  0  0  0  0
 31 56  1  0  0  0  0
 32 57  1  0  0  0  0
M  END
$$$$
