CHEMBL3676361
 OpenBabel04072215373D

 50 52  0  0  0  0  0  0  0  0999 V2000
    3.4452   -2.9821    2.6955 C   0  0  0  0  0  0  0  0  0  0  0  0
    3.5030   -2.8644    1.3634 C   0  0  0  0  0  0  0  0  0  0  0  0
    3.6460   -1.5113    0.7622 C   0  0  0  0  0  0  0  0  0  0  0  0
    3.1528   -0.5128    1.2787 O   0  0  0  0  0  0  0  0  0  0  0  0
    4.4227   -1.3953   -0.3674 N   0  0  0  0  0  0  0  0  0  0  0  0
    5.2503   -2.4245   -0.8392 C   0  0  0  0  0  0  0  0  0  0  0  0
    6.3835   -2.7290   -0.0822 C   0  0  0  0  0  0  0  0  0  0  0  0
    7.0731   -3.9333   -0.2949 C   0  0  0  0  0  0  0  0  0  0  0  0
    8.0964   -4.4105    0.5384 C   0  0  0  0  0  0  0  0  0  0  0  0
    8.3999   -3.7348    1.7541 N   0  0  0  0  0  0  0  0  0  0  0  0
    9.1307   -4.3388    2.8069 C   0  0  0  0  0  0  0  0  0  0  0  0
    8.8333   -5.6459    3.2195 C   0  0  0  0  0  0  0  0  0  0  0  0
    9.6601   -6.3212    4.1150 C   0  0  0  0  0  0  0  0  0  0  0  0
   10.7830   -5.6816    4.6436 C   0  0  0  0  0  0  0  0  0  0  0  0
   11.9253   -6.7217    5.7487 Br  0  0  0  0  0  0  0  0  0  0  0  0
   11.0428   -4.3435    4.3232 C   0  0  0  0  0  0  0  0  0  0  0  0
   12.3875   -3.4827    4.9865 Cl  0  0  0  0  0  0  0  0  0  0  0  0
   10.2076   -3.6828    3.4148 C   0  0  0  0  0  0  0  0  0  0  0  0
   10.4569   -2.4073    3.0678 F   0  0  0  0  0  0  0  0  0  0  0  0
    8.7300   -5.5679    0.2790 N   0  0  0  0  0  0  0  0  0  0  0  0
    8.3170   -6.2617   -0.7844 C   0  0  0  0  0  0  0  0  0  0  0  0
    7.3097   -5.9421   -1.5902 N   0  0  0  0  0  0  0  0  0  0  0  0
    6.6825   -4.7844   -1.3420 C   0  0  0  0  0  0  0  0  0  0  0  0
    5.5836   -4.4335   -2.1194 C   0  0  0  0  0  0  0  0  0  0  0  0
    4.8577   -3.2567   -1.8965 C   0  0  0  0  0  0  0  0  0  0  0  0
    3.7599   -3.0644   -2.7077 O   0  0  0  0  0  0  0  0  0  0  0  0
    3.5547   -1.7012   -3.1053 C   0  0  0  0  0  0  0  0  0  0  0  0
    2.5042   -1.5772   -4.2134 C   0  0  0  0  0  0  0  0  0  0  0  0
    2.2539   -0.1799   -4.5510 N   0  0  0  0  0  0  0  0  0  0  0  0
    3.0693    0.5118   -5.4176 C   0  0  0  0  0  0  0  0  0  0  0  0
    2.7544    1.9808   -5.5382 C   0  0  0  0  0  0  0  0  0  0  0  0
    3.9811   -0.0117   -6.0488 O   0  0  0  0  0  0  0  0  0  0  0  0
    3.4183   -3.9583    3.1668 H   0  0  0  0  0  0  0  0  0  0  0  0
    3.4466   -2.1083    3.3419 H   0  0  0  0  0  0  0  0  0  0  0  0
    3.5225   -3.7369    0.7229 H   0  0  0  0  0  0  0  0  0  0  0  0
    4.7891   -0.4504   -0.4235 H   0  0  0  0  0  0  0  0  0  0  0  0
    6.6636   -2.0682    0.7338 H   0  0  0  0  0  0  0  0  0  0  0  0
    8.6680   -2.7685    1.5971 H   0  0  0  0  0  0  0  0  0  0  0  0
    7.9758   -6.1664    2.7950 H   0  0  0  0  0  0  0  0  0  0  0  0
    9.4345   -7.3567    4.3595 H   0  0  0  0  0  0  0  0  0  0  0  0
    8.8402   -7.1942   -0.9835 H   0  0  0  0  0  0  0  0  0  0  0  0
    5.2598   -5.1169   -2.9045 H   0  0  0  0  0  0  0  0  0  0  0  0
    4.5015   -1.2586   -3.4387 H   0  0  0  0  0  0  0  0  0  0  0  0
    3.1583   -1.1260   -2.2658 H   0  0  0  0  0  0  0  0  0  0  0  0
    1.5525   -2.0054   -3.8807 H   0  0  0  0  0  0  0  0  0  0  0  0
    2.8167   -2.1256   -5.1081 H   0  0  0  0  0  0  0  0  0  0  0  0
    1.5737    0.3308   -4.0019 H   0  0  0  0  0  0  0  0  0  0  0  0
    2.1165    2.3273   -4.7202 H   0  0  0  0  0  0  0  0  0  0  0  0
    2.2497    2.1689   -6.4897 H   0  0  0  0  0  0  0  0  0  0  0  0
    3.6887    2.5493   -5.5005 H   0  0  0  0  0  0  0  0  0  0  0  0
  1  2  2  0  0  0  0
  1 33  1  0  0  0  0
  1 34  1  0  0  0  0
  2  3  1  0  0  0  0
  2 35  1  0  0  0  0
  3  4  2  0  0  0  0
  3  5  1  0  0  0  0
  5  6  1  0  0  0  0
  5 36  1  0  0  0  0
  6  7  1  0  0  0  0
  6 25  2  0  0  0  0
  7  8  2  0  0  0  0
  7 37  1  0  0  0  0
  8  9  1  0  0  0  0
  8 23  1  0  0  0  0
  9 10  1  0  0  0  0
  9 20  2  0  0  0  0
 10 11  1  0  0  0  0
 10 38  1  0  0  0  0
 11 12  1  0  0  0  0
 11 18  2  0  0  0  0
 12 13  2  0  0  0  0
 12 39  1  0  0  0  0
 13 14  1  0  0  0  0
 13 40  1  0  0  0  0
 14 15  1  0  0  0  0
 14 16  2  0  0  0  0
 16 17  1  0  0  0  0
 16 18  1  0  0  0  0
 18 19  1  0  0  0  0
 20 21  1  0  0  0  0
 21 22  2  0  0  0  0
 21 41  1  0  0  0  0
 22 23  1  0  0  0  0
 23 24  2  0  0  0  0
 24 25  1  0  0  0  0
 24 42  1  0  0  0  0
 25 26  1  0  0  0  0
 26 27  1  0  0  0  0
 27 28  1  0  0  0  0
 27 43  1  0  0  0  0
 27 44  1  0  0  0  0
 28 29  1  0  0  0  0
 28 45  1  0  0  0  0
 28 46  1  0  0  0  0
 29 30  1  0  0  0  0
 29 47  1  0  0  0  0
 30 31  1  0  0  0  0
 30 32  2  0  0  0  0
 31 48  1  0  0  0  0
 31 49  1  0  0  0  0
 31 50  1  0  0  0  0
M  END
$$$$
