CHEMBL178981
 OpenBabel04072215363D

 52 55  0  0  0  0  0  0  0  0999 V2000
    5.4395    1.4924    0.8239 C   0  0  0  0  0  0  0  0  0  0  0  0
    4.2569    1.1729    0.0915 O   0  0  0  0  0  0  0  0  0  0  0  0
    4.4236    0.3796   -1.0107 C   0  0  0  0  0  0  0  0  0  0  0  0
    5.5162   -0.4943   -1.1582 C   0  0  0  0  0  0  0  0  0  0  0  0
    5.7552   -1.2169   -2.3197 C   0  0  0  0  0  0  0  0  0  0  0  0
    6.8895   -1.9315   -2.3928 N   0  0  0  0  0  0  0  0  0  0  0  0
    7.1775   -2.5761   -3.5389 C   0  0  0  0  0  0  0  0  0  0  0  0
    6.3725   -2.5414   -4.6521 C   0  0  0  0  0  0  0  0  0  0  0  0
    5.1851   -1.8034   -4.5881 C   0  0  0  0  0  0  0  0  0  0  0  0
    4.4710   -1.8289   -5.7777 O   0  0  0  0  0  0  0  0  0  0  0  0
    3.7310   -0.7446   -6.1893 C   0  0  0  0  0  0  0  0  0  0  0  0
    4.0796    0.5813   -5.9546 C   0  0  0  0  0  0  0  0  0  0  0  0
    3.1369    1.5928   -6.1715 C   0  0  0  0  0  0  0  0  0  0  0  0
    1.8772    1.3131   -6.7130 C   0  0  0  0  0  0  0  0  0  0  0  0
    0.8465    2.2751   -6.8343 N   0  0  0  0  0  0  0  0  0  0  0  0
    0.9229    3.5975   -6.4288 C   0  0  0  0  0  0  0  0  0  0  0  0
    1.9360    4.1535   -6.0192 O   0  0  0  0  0  0  0  0  0  0  0  0
   -0.3060    4.2430   -6.4966 N   0  0  0  0  0  0  0  0  0  0  0  0
   -0.4014    5.6160   -6.1171 C   0  0  0  0  0  0  0  0  0  0  0  0
    0.5393    6.5443   -6.5893 C   0  0  0  0  0  0  0  0  0  0  0  0
    0.5107    7.8709   -6.1626 C   0  0  0  0  0  0  0  0  0  0  0  0
   -0.4650    8.2849   -5.2603 C   0  0  0  0  0  0  0  0  0  0  0  0
   -1.4280    7.3787   -4.8015 C   0  0  0  0  0  0  0  0  0  0  0  0
   -2.5892    7.9676   -3.6628 Cl  0  0  0  0  0  0  0  0  0  0  0  0
   -1.4145    6.0452   -5.2410 C   0  0  0  0  0  0  0  0  0  0  0  0
   -2.5722    4.8902   -4.6583 Cl  0  0  0  0  0  0  0  0  0  0  0  0
    1.6055   -0.0020   -7.1060 C   0  0  0  0  0  0  0  0  0  0  0  0
    2.5268   -1.0264   -6.8408 C   0  0  0  0  0  0  0  0  0  0  0  0
    4.8222   -1.1540   -3.3724 C   0  0  0  0  0  0  0  0  0  0  0  0
    3.6309   -0.4302   -3.1306 C   0  0  0  0  0  0  0  0  0  0  0  0
    3.4546    0.3977   -2.0166 C   0  0  0  0  0  0  0  0  0  0  0  0
    2.3149    1.1420   -2.1249 O   0  0  0  0  0  0  0  0  0  0  0  0
    2.1192    2.2789   -1.3018 C   0  0  0  0  0  0  0  0  0  0  0  0
    5.2796    2.4512    1.3254 H   0  0  0  0  0  0  0  0  0  0  0  0
    6.3223    1.6110    0.1839 H   0  0  0  0  0  0  0  0  0  0  0  0
    5.6164    0.7307    1.5895 H   0  0  0  0  0  0  0  0  0  0  0  0
    6.2403   -0.6076   -0.3545 H   0  0  0  0  0  0  0  0  0  0  0  0
    8.1032   -3.1370   -3.5315 H   0  0  0  0  0  0  0  0  0  0  0  0
    6.6586   -3.0601   -5.5572 H   0  0  0  0  0  0  0  0  0  0  0  0
    5.0269    0.8432   -5.4926 H   0  0  0  0  0  0  0  0  0  0  0  0
    3.4169    2.5883   -5.8445 H   0  0  0  0  0  0  0  0  0  0  0  0
   -0.0232    1.9768   -7.2528 H   0  0  0  0  0  0  0  0  0  0  0  0
   -1.0957    3.6698   -6.2232 H   0  0  0  0  0  0  0  0  0  0  0  0
    1.3195    6.2344   -7.2831 H   0  0  0  0  0  0  0  0  0  0  0  0
    1.2639    8.5708   -6.5181 H   0  0  0  0  0  0  0  0  0  0  0  0
   -0.4639    9.3147   -4.9097 H   0  0  0  0  0  0  0  0  0  0  0  0
    0.6585   -0.2640   -7.5710 H   0  0  0  0  0  0  0  0  0  0  0  0
    2.2791   -2.0546   -7.0933 H   0  0  0  0  0  0  0  0  0  0  0  0
    2.8240   -0.4422   -3.8591 H   0  0  0  0  0  0  0  0  0  0  0  0
    1.4680    2.9691   -1.8511 H   0  0  0  0  0  0  0  0  0  0  0  0
    3.0351    2.8319   -1.0787 H   0  0  0  0  0  0  0  0  0  0  0  0
    1.5924    1.9800   -0.3922 H   0  0  0  0  0  0  0  0  0  0  0  0
  1  2  1  0  0  0  0
  1 34  1  0  0  0  0
  1 35  1  0  0  0  0
  1 36  1  0  0  0  0
  2  3  1  0  0  0  0
  3  4  1  0  0  0  0
  3 31  2  0  0  0  0
  4  5  2  0  0  0  0
  4 37  1  0  0  0  0
  5  6  1  0  0  0  0
  5 29  1  0  0  0  0
  6  7  2  0  0  0  0
  7  8  1  0  0  0  0
  7 38  1  0  0  0  0
  8  9  2  0  0  0  0
  8 39  1  0  0  0  0
  9 10  1  0  0  0  0
  9 29  1  0  0  0  0
 10 11  1  0  0  0  0
 11 12  1  0  0  0  0
 11 28  2  0  0  0  0
 12 13  2  0  0  0  0
 12 40  1  0  0  0  0
 13 14  1  0  0  0  0
 13 41  1  0  0  0  0
 14 15  1  0  0  0  0
 14 27  2  0  0  0  0
 15 16  1  0  0  0  0
 15 42  1  0  0  0  0
 16 17  2  0  0  0  0
 16 18  1  0  0  0  0
 18 19  1  0  0  0  0
 18 43  1  0  0  0  0
 19 20  1  0  0  0  0
 19 25  2  0  0  0  0
 20 21  2  0  0  0  0
 20 44  1  0  0  0  0
 21 22  1  0  0  0  0
 21 45  1  0  0  0  0
 22 23  2  0  0  0  0
 22 46  1  0  0  0  0
 23 24  1  0  0  0  0
 23 25  1  0  0  0  0
 25 26  1  0  0  0  0
 27 28  1  0  0  0  0
 27 47  1  0  0  0  0
 28 48  1  0  0  0  0
 29 30  2  0  0  0  0
 30 31  1  0  0  0  0
 30 49  1  0  0  0  0
 31 32  1  0  0  0  0
 32 33  1  0  0  0  0
 33 50  1  0  0  0  0
 33 51  1  0  0  0  0
 33 52  1  0  0  0  0
M  END
$$$$
