CHEMBL1779201
 OpenBabel04072215363D

 58 63  0  0  0  0  0  0  0  0999 V2000
    1.0034    0.1239   -0.0072 C   0  0  0  0  0  0  0  0  0  0  0  0
    2.5479    0.1133    0.0237 C   0  0  0  0  0  0  0  0  0  0  0  0
    3.1074    0.1370   -1.4158 C   0  0  0  0  0  0  0  0  0  0  0  0
    3.0462   -1.1625    0.7385 C   0  0  0  0  0  0  0  0  0  0  0  0
    2.6837   -2.4353    0.2458 C   0  0  0  0  0  0  0  0  0  0  0  0
    3.0879   -3.6283    0.8663 C   0  0  0  0  0  0  0  0  0  0  0  0
    2.6697   -4.8560    0.3951 N   0  0  0  0  0  0  0  0  0  0  0  0
    2.3918   -5.9630    1.3187 C   0  0  0  0  0  0  0  0  0  0  0  0
    3.1821   -7.2225    0.9228 C   0  0  0  0  0  0  0  0  0  0  0  0
    3.0437   -7.6486   -0.4885 N   0  0  0  0  0  0  0  0  0  0  0  0
    1.6645   -8.0714   -0.8199 C   0  0  0  0  0  0  0  0  0  0  0  0
    1.2213   -9.3707   -0.1224 C   0  0  0  0  0  0  0  0  0  0  0  0
    0.8879   -9.9752   -1.4047 O   0  0  0  0  0  0  0  0  0  0  0  0
    1.6977   -8.9719   -2.0748 C   0  0  0  0  0  0  0  0  0  0  0  0
    3.4189   -6.4887   -1.3398 C   0  0  0  0  0  0  0  0  0  0  0  0
    2.7009   -5.1458   -1.0434 C   0  0  0  0  0  0  0  0  0  0  0  0
    3.9206   -3.5280    1.9837 C   0  0  0  0  0  0  0  0  0  0  0  0
    4.3009   -2.2964    2.4988 C   0  0  0  0  0  0  0  0  0  0  0  0
    3.8607   -1.1185    1.8928 C   0  0  0  0  0  0  0  0  0  0  0  0
    4.2882    0.1565    2.5304 C   0  0  0  0  0  0  0  0  0  0  0  0
    4.9835    0.1603    3.5402 O   0  0  0  0  0  0  0  0  0  0  0  0
    3.8242    1.3616    1.8872 C   0  0  0  0  0  0  0  0  0  0  0  0
    3.0345    1.3404    0.7563 C   0  0  0  0  0  0  0  0  0  0  0  0
    2.7695    2.6410    0.4078 N   0  0  0  0  0  0  0  0  0  0  0  0
    3.3847    3.4973    1.2970 C   0  0  0  0  0  0  0  0  0  0  0  0
    3.4033    4.8972    1.3411 C   0  0  0  0  0  0  0  0  0  0  0  0
    4.1314    5.5005    2.3770 C   0  0  0  0  0  0  0  0  0  0  0  0
    4.1812    6.9328    2.4522 C   0  0  0  0  0  0  0  0  0  0  0  0
    4.2204    8.0851    2.5213 N   0  0  0  0  0  0  0  0  0  0  0  0
    4.8063    4.7363    3.3328 C   0  0  0  0  0  0  0  0  0  0  0  0
    4.7687    3.3429    3.2739 C   0  0  0  0  0  0  0  0  0  0  0  0
    4.0528    2.7159    2.2394 C   0  0  0  0  0  0  0  0  0  0  0  0
    0.5901   -0.7496   -0.5233 H   0  0  0  0  0  0  0  0  0  0  0  0
    0.6161    1.0091   -0.5251 H   0  0  0  0  0  0  0  0  0  0  0  0
    0.5870    0.1293    1.0080 H   0  0  0  0  0  0  0  0  0  0  0  0
    2.7847   -0.7321   -2.0002 H   0  0  0  0  0  0  0  0  0  0  0  0
    4.2049    0.1393   -1.4132 H   0  0  0  0  0  0  0  0  0  0  0  0
    2.7802    1.0296   -1.9616 H   0  0  0  0  0  0  0  0  0  0  0  0
    2.0342   -2.5031   -0.6249 H   0  0  0  0  0  0  0  0  0  0  0  0
    1.3153   -6.1682    1.3246 H   0  0  0  0  0  0  0  0  0  0  0  0
    2.6407   -5.7158    2.3573 H   0  0  0  0  0  0  0  0  0  0  0  0
    2.9413   -8.0423    1.6075 H   0  0  0  0  0  0  0  0  0  0  0  0
    4.2481   -7.0100    1.0936 H   0  0  0  0  0  0  0  0  0  0  0  0
    0.8914   -7.2971   -0.8380 H   0  0  0  0  0  0  0  0  0  0  0  0
    0.3264   -9.2689    0.4999 H   0  0  0  0  0  0  0  0  0  0  0  0
    1.9690   -9.9716    0.4033 H   0  0  0  0  0  0  0  0  0  0  0  0
    1.1922   -8.5599   -2.9524 H   0  0  0  0  0  0  0  0  0  0  0  0
    2.6617   -9.3994   -2.3746 H   0  0  0  0  0  0  0  0  0  0  0  0
    3.2928   -6.7374   -2.4001 H   0  0  0  0  0  0  0  0  0  0  0  0
    4.4974   -6.3265   -1.2078 H   0  0  0  0  0  0  0  0  0  0  0  0
    1.6783   -5.1597   -1.4372 H   0  0  0  0  0  0  0  0  0  0  0  0
    3.2440   -4.3653   -1.5923 H   0  0  0  0  0  0  0  0  0  0  0  0
    4.3138   -4.4173    2.4665 H   0  0  0  0  0  0  0  0  0  0  0  0
    4.9407   -2.2655    3.3780 H   0  0  0  0  0  0  0  0  0  0  0  0
    2.2117    2.9387   -0.3807 H   0  0  0  0  0  0  0  0  0  0  0  0
    2.8781    5.4913    0.6000 H   0  0  0  0  0  0  0  0  0  0  0  0
    5.3671    5.2137    4.1337 H   0  0  0  0  0  0  0  0  0  0  0  0
    5.2982    2.7438    4.0165 H   0  0  0  0  0  0  0  0  0  0  0  0
  1  2  1  0  0  0  0
  1 33  1  0  0  0  0
  1 34  1  0  0  0  0
  1 35  1  0  0  0  0
  2  3  1  0  0  0  0
  2  4  1  0  0  0  0
  2 23  1  0  0  0  0
  3 36  1  0  0  0  0
  3 37  1  0  0  0  0
  3 38  1  0  0  0  0
  4  5  1  0  0  0  0
  4 19  2  0  0  0  0
  5  6  2  0  0  0  0
  5 39  1  0  0  0  0
  6  7  1  0  0  0  0
  6 17  1  0  0  0  0
  7  8  1  0  0  0  0
  7 16  1  0  0  0  0
  8  9  1  0  0  0  0
  8 40  1  0  0  0  0
  8 41  1  0  0  0  0
  9 10  1  0  0  0  0
  9 42  1  0  0  0  0
  9 43  1  0  0  0  0
 10 11  1  0  0  0  0
 10 15  1  0  0  0  0
 11 12  1  0  0  0  0
 11 14  1  0  0  0  0
 11 44  1  0  0  0  0
 12 13  1  0  0  0  0
 12 45  1  0  0  0  0
 12 46  1  0  0  0  0
 13 14  1  0  0  0  0
 14 47  1  0  0  0  0
 14 48  1  0  0  0  0
 15 16  1  0  0  0  0
 15 49  1  0  0  0  0
 15 50  1  0  0  0  0
 16 51  1  0  0  0  0
 16 52  1  0  0  0  0
 17 18  2  0  0  0  0
 17 53  1  0  0  0  0
 18 19  1  0  0  0  0
 18 54  1  0  0  0  0
 19 20  1  0  0  0  0
 20 21  2  0  0  0  0
 20 22  1  0  0  0  0
 22 23  2  0  0  0  0
 22 32  1  0  0  0  0
 23 24  1  0  0  0  0
 24 25  1  0  0  0  0
 24 55  1  0  0  0  0
 25 26  1  0  0  0  0
 25 32  2  0  0  0  0
 26 27  2  0  0  0  0
 26 56  1  0  0  0  0
 27 28  1  0  0  0  0
 27 30  1  0  0  0  0
 28 29  3  0  0  0  0
 30 31  2  0  0  0  0
 30 57  1  0  0  0  0
 31 32  1  0  0  0  0
 31 58  1  0  0  0  0
M  END
$$$$
