CHEMBL3898428
 OpenBabel04072215373D

 54 58  0  0  0  0  0  0  0  0999 V2000
    2.3068   -0.1921   -0.1894 O   0  0  0  0  0  0  0  0  0  0  0  0
    0.9420   -0.1078   -0.1795 C   0  0  0  0  0  0  0  0  0  0  0  0
    0.3075    1.0082   -0.7223 C   0  0  0  0  0  0  0  0  0  0  0  0
   -1.0888    1.1066   -0.6789 C   0  0  0  0  0  0  0  0  0  0  0  0
   -1.8732    0.0747   -0.1355 C   0  0  0  0  0  0  0  0  0  0  0  0
   -3.3508    0.1355   -0.0811 C   0  0  0  0  0  0  0  0  0  0  0  0
   -4.0591   -0.4325    0.9984 C   0  0  0  0  0  0  0  0  0  0  0  0
   -5.4610   -0.4564    1.0533 C   0  0  0  0  0  0  0  0  0  0  0  0
   -6.1860    0.1292    0.0025 C   0  0  0  0  0  0  0  0  0  0  0  0
   -7.5600    0.3248   -0.3278 C   0  0  0  0  0  0  0  0  0  0  0  0
   -8.6740   -0.0926    0.4765 C   0  0  0  0  0  0  0  0  0  0  0  0
   -9.9548    0.1451    0.1443 C   0  0  0  0  0  0  0  0  0  0  0  0
  -11.1427   -0.1981    0.9351 C   0  0  0  0  0  0  0  0  0  0  0  0
  -11.1322   -0.2681    2.3336 C   0  0  0  0  0  0  0  0  0  0  0  0
  -12.3157   -0.4970    3.0412 C   0  0  0  0  0  0  0  0  0  0  0  0
  -13.5211   -0.6512    2.3592 C   0  0  0  0  0  0  0  0  0  0  0  0
  -13.5444   -0.5861    0.9687 C   0  0  0  0  0  0  0  0  0  0  0  0
  -12.3620   -0.3593    0.2619 C   0  0  0  0  0  0  0  0  0  0  0  0
   -7.6908    0.9769   -1.4940 N   0  0  0  0  0  0  0  0  0  0  0  0
   -6.4328    1.1940   -1.8938 N   0  0  0  0  0  0  0  0  0  0  0  0
   -5.4811    0.7067   -1.0453 C   0  0  0  0  0  0  0  0  0  0  0  0
   -4.0847    0.7263   -1.1232 C   0  0  0  0  0  0  0  0  0  0  0  0
   -1.2022   -1.0520    0.3594 C   0  0  0  0  0  0  0  0  0  0  0  0
    0.1925   -1.1343    0.3954 C   0  0  0  0  0  0  0  0  0  0  0  0
    0.8609   -2.1876    0.9689 O   0  0  0  0  0  0  0  0  0  0  0  0
    0.1238   -2.8685    1.9918 C   0  0  0  0  0  0  0  0  0  0  0  0
    1.0235   -3.6583    2.9085 C   0  0  0  0  0  0  0  0  0  0  0  0
    2.3388   -3.2517    3.1622 C   0  0  0  0  0  0  0  0  0  0  0  0
    3.1295   -3.9515    4.0722 C   0  0  0  0  0  0  0  0  0  0  0  0
    2.6096   -5.0551    4.7467 C   0  0  0  0  0  0  0  0  0  0  0  0
    1.2964   -5.4601    4.5141 C   0  0  0  0  0  0  0  0  0  0  0  0
    0.5042   -4.7629    3.6023 C   0  0  0  0  0  0  0  0  0  0  0  0
    2.6681    0.5708   -0.6677 H   0  0  0  0  0  0  0  0  0  0  0  0
    0.8785    1.8186   -1.1652 H   0  0  0  0  0  0  0  0  0  0  0  0
   -1.5549    2.0071   -1.0727 H   0  0  0  0  0  0  0  0  0  0  0  0
   -3.5202   -0.8781    1.8339 H   0  0  0  0  0  0  0  0  0  0  0  0
   -5.9631   -0.9251    1.8941 H   0  0  0  0  0  0  0  0  0  0  0  0
   -8.4452   -0.6179    1.3977 H   0  0  0  0  0  0  0  0  0  0  0  0
  -10.1619    0.6559   -0.7959 H   0  0  0  0  0  0  0  0  0  0  0  0
  -10.2132   -0.1176    2.8933 H   0  0  0  0  0  0  0  0  0  0  0  0
  -12.2980   -0.5367    4.1272 H   0  0  0  0  0  0  0  0  0  0  0  0
  -14.4431   -0.8121    2.9112 H   0  0  0  0  0  0  0  0  0  0  0  0
  -14.4825   -0.6981    0.4319 H   0  0  0  0  0  0  0  0  0  0  0  0
  -12.4020   -0.2992   -0.8240 H   0  0  0  0  0  0  0  0  0  0  0  0
   -6.2870    1.6919   -2.7642 H   0  0  0  0  0  0  0  0  0  0  0  0
   -3.5912    1.1684   -1.9826 H   0  0  0  0  0  0  0  0  0  0  0  0
   -1.7973   -1.8865    0.7160 H   0  0  0  0  0  0  0  0  0  0  0  0
   -0.5822   -3.5566    1.5104 H   0  0  0  0  0  0  0  0  0  0  0  0
   -0.4197   -2.1551    2.6267 H   0  0  0  0  0  0  0  0  0  0  0  0
    2.7499   -2.3826    2.6513 H   0  0  0  0  0  0  0  0  0  0  0  0
    4.1503   -3.6284    4.2569 H   0  0  0  0  0  0  0  0  0  0  0  0
    3.2270   -5.5953    5.4581 H   0  0  0  0  0  0  0  0  0  0  0  0
    0.8880   -6.3142    5.0472 H   0  0  0  0  0  0  0  0  0  0  0  0
   -0.5234   -5.0811    3.4424 H   0  0  0  0  0  0  0  0  0  0  0  0
  1  2  1  0  0  0  0
  1 33  1  0  0  0  0
  2  3  1  0  0  0  0
  2 24  2  0  0  0  0
  3  4  2  0  0  0  0
  3 34  1  0  0  0  0
  4  5  1  0  0  0  0
  4 35  1  0  0  0  0
  5  6  1  0  0  0  0
  5 23  2  0  0  0  0
  6  7  1  0  0  0  0
  6 22  2  0  0  0  0
  7  8  2  0  0  0  0
  7 36  1  0  0  0  0
  8  9  1  0  0  0  0
  8 37  1  0  0  0  0
  9 10  1  0  0  0  0
  9 21  2  0  0  0  0
 10 11  1  0  0  0  0
 10 19  2  0  0  0  0
 11 12  2  0  0  0  0
 11 38  1  0  0  0  0
 12 13  1  0  0  0  0
 12 39  1  0  0  0  0
 13 14  1  0  0  0  0
 13 18  2  0  0  0  0
 14 15  2  0  0  0  0
 14 40  1  0  0  0  0
 15 16  1  0  0  0  0
 15 41  1  0  0  0  0
 16 17  2  0  0  0  0
 16 42  1  0  0  0  0
 17 18  1  0  0  0  0
 17 43  1  0  0  0  0
 18 44  1  0  0  0  0
 19 20  1  0  0  0  0
 20 21  1  0  0  0  0
 20 45  1  0  0  0  0
 21 22  1  0  0  0  0
 22 46  1  0  0  0  0
 23 24  1  0  0  0  0
 23 47  1  0  0  0  0
 24 25  1  0  0  0  0
 25 26  1  0  0  0  0
 26 27  1  0  0  0  0
 26 48  1  0  0  0  0
 26 49  1  0  0  0  0
 27 28  1  0  0  0  0
 27 32  2  0  0  0  0
 28 29  2  0  0  0  0
 28 50  1  0  0  0  0
 29 30  1  0  0  0  0
 29 51  1  0  0  0  0
 30 31  2  0  0  0  0
 30 52  1  0  0  0  0
 31 32  1  0  0  0  0
 31 53  1  0  0  0  0
 32 54  1  0  0  0  0
M  END
$$$$
