CHEMBL495299
 OpenBabel04072215383D

 63 68  0  0  0  0  0  0  0  0999 V2000
   12.1792   -1.4162   -5.1294 C   0  0  0  0  0  0  0  0  0  0  0  0
   11.1991   -1.9680   -4.2471 O   0  0  0  0  0  0  0  0  0  0  0  0
    9.9165   -2.0230   -4.7333 C   0  0  0  0  0  0  0  0  0  0  0  0
    9.6503   -2.1181   -6.1061 C   0  0  0  0  0  0  0  0  0  0  0  0
    8.3622   -2.0978   -6.6282 C   0  0  0  0  0  0  0  0  0  0  0  0
    8.2610   -2.1481   -7.9640 N   0  0  0  0  0  0  0  0  0  0  0  0
    7.0309   -2.0789   -8.5005 C   0  0  0  0  0  0  0  0  0  0  0  0
    5.8811   -1.9337   -7.7594 C   0  0  0  0  0  0  0  0  0  0  0  0
    5.9648   -1.8724   -6.3577 C   0  0  0  0  0  0  0  0  0  0  0  0
    4.6596   -1.6690   -5.5910 C   0  0  0  0  0  0  0  0  0  0  0  0
    3.9170   -0.4803   -6.0362 N   0  0  0  0  0  0  0  0  0  0  0  0
    4.4816    0.8104   -5.6559 C   0  0  0  0  0  0  0  0  0  0  0  0
    3.9346    1.4206   -4.3530 C   0  0  0  0  0  0  0  0  0  0  0  0
    2.4266    1.4397   -4.3002 C   0  0  0  0  0  0  0  0  0  0  0  0
    1.7430    0.4768   -5.0750 C   0  0  0  0  0  0  0  0  0  0  0  0
    0.3349    0.4515   -5.0645 C   0  0  0  0  0  0  0  0  0  0  0  0
   -0.3981    1.3755   -4.3232 C   0  0  0  0  0  0  0  0  0  0  0  0
    0.2709    2.3137   -3.5443 C   0  0  0  0  0  0  0  0  0  0  0  0
    1.6782    2.3248   -3.4764 C   0  0  0  0  0  0  0  0  0  0  0  0
    2.3021    3.3012   -2.5095 C   0  0  0  0  0  0  0  0  0  0  0  0
    3.3439    3.8653   -2.8172 O   0  0  0  0  0  0  0  0  0  0  0  0
    1.6283    3.4344   -1.3091 N   0  0  0  0  0  0  0  0  0  0  0  0
    1.9219    4.3353   -0.3091 C   0  0  0  0  0  0  0  0  0  0  0  0
    1.4426    4.1979    0.9117 N   0  0  0  0  0  0  0  0  0  0  0  0
    1.9053    5.2405    1.7134 C   0  0  0  0  0  0  0  0  0  0  0  0
    1.6881    5.3964    3.0983 C   0  0  0  0  0  0  0  0  0  0  0  0
    2.2211    6.5064    3.7666 C   0  0  0  0  0  0  0  0  0  0  0  0
    2.9395    7.4710    3.0736 C   0  0  0  0  0  0  0  0  0  0  0  0
    3.1637    7.3428    1.7001 C   0  0  0  0  0  0  0  0  0  0  0  0
    2.6532    6.2109    1.0428 C   0  0  0  0  0  0  0  0  0  0  0  0
    2.8111    5.7504   -0.6071 S   0  0  0  0  0  0  0  0  0  0  0  0
    2.4627   -0.5697   -5.9129 C   0  0  0  0  0  0  0  0  0  0  0  0
    7.2578   -1.9947   -5.7577 C   0  0  0  0  0  0  0  0  0  0  0  0
    7.5203   -2.0465   -4.3639 C   0  0  0  0  0  0  0  0  0  0  0  0
    8.8326   -2.0412   -3.8484 C   0  0  0  0  0  0  0  0  0  0  0  0
    8.8680   -2.1145   -2.4850 O   0  0  0  0  0  0  0  0  0  0  0  0
    9.8772   -1.3858   -1.7970 C   0  0  0  0  0  0  0  0  0  0  0  0
   12.9244   -0.8897   -4.5242 H   0  0  0  0  0  0  0  0  0  0  0  0
   11.7713   -0.6815   -5.8321 H   0  0  0  0  0  0  0  0  0  0  0  0
   12.6835   -2.2234   -5.6692 H   0  0  0  0  0  0  0  0  0  0  0  0
   10.4622   -2.2132   -6.8196 H   0  0  0  0  0  0  0  0  0  0  0  0
    6.9977   -2.1325   -9.5857 H   0  0  0  0  0  0  0  0  0  0  0  0
    4.9192   -1.8512   -8.2615 H   0  0  0  0  0  0  0  0  0  0  0  0
    4.7941   -1.6537   -4.5065 H   0  0  0  0  0  0  0  0  0  0  0  0
    4.0711   -2.5719   -5.8093 H   0  0  0  0  0  0  0  0  0  0  0  0
    4.2705    1.5082   -6.4781 H   0  0  0  0  0  0  0  0  0  0  0  0
    5.5753    0.7666   -5.5953 H   0  0  0  0  0  0  0  0  0  0  0  0
    4.3348    2.4350   -4.3123 H   0  0  0  0  0  0  0  0  0  0  0  0
    4.3078    0.8611   -3.4916 H   0  0  0  0  0  0  0  0  0  0  0  0
   -0.1995   -0.2970   -5.6480 H   0  0  0  0  0  0  0  0  0  0  0  0
   -1.4827    1.3570   -4.3503 H   0  0  0  0  0  0  0  0  0  0  0  0
   -0.3229    3.0423   -2.9956 H   0  0  0  0  0  0  0  0  0  0  0  0
    0.9449    2.7399   -1.0395 H   0  0  0  0  0  0  0  0  0  0  0  0
    1.1188    4.6474    3.6410 H   0  0  0  0  0  0  0  0  0  0  0  0
    2.0689    6.6111    4.8408 H   0  0  0  0  0  0  0  0  0  0  0  0
    3.3395    8.3331    3.6035 H   0  0  0  0  0  0  0  0  0  0  0  0
    3.7270    8.0961    1.1562 H   0  0  0  0  0  0  0  0  0  0  0  0
    2.0578   -0.5059   -6.9296 H   0  0  0  0  0  0  0  0  0  0  0  0
    2.1623   -1.5498   -5.5180 H   0  0  0  0  0  0  0  0  0  0  0  0
    6.7073   -2.0872   -3.6515 H   0  0  0  0  0  0  0  0  0  0  0  0
    9.3848   -0.8465   -0.9809 H   0  0  0  0  0  0  0  0  0  0  0  0
   10.3971   -0.6411   -2.4031 H   0  0  0  0  0  0  0  0  0  0  0  0
   10.5857   -2.0883   -1.3485 H   0  0  0  0  0  0  0  0  0  0  0  0
  1  2  1  0  0  0  0
  1 38  1  0  0  0  0
  1 39  1  0  0  0  0
  1 40  1  0  0  0  0
  2  3  1  0  0  0  0
  3  4  1  0  0  0  0
  3 35  2  0  0  0  0
  4  5  2  0  0  0  0
  4 41  1  0  0  0  0
  5  6  1  0  0  0  0
  5 33  1  0  0  0  0
  6  7  2  0  0  0  0
  7  8  1  0  0  0  0
  7 42  1  0  0  0  0
  8  9  2  0  0  0  0
  8 43  1  0  0  0  0
  9 10  1  0  0  0  0
  9 33  1  0  0  0  0
 10 11  1  0  0  0  0
 10 44  1  0  0  0  0
 10 45  1  0  0  0  0
 11 12  1  0  0  0  0
 11 32  1  0  0  0  0
 12 13  1  0  0  0  0
 12 46  1  0  0  0  0
 12 47  1  0  0  0  0
 13 14  1  0  0  0  0
 13 48  1  0  0  0  0
 13 49  1  0  0  0  0
 14 15  1  0  0  0  0
 14 19  2  0  0  0  0
 15 16  2  0  0  0  0
 15 32  1  0  0  0  0
 16 17  1  0  0  0  0
 16 50  1  0  0  0  0
 17 18  2  0  0  0  0
 17 51  1  0  0  0  0
 18 19  1  0  0  0  0
 18 52  1  0  0  0  0
 19 20  1  0  0  0  0
 20 21  2  0  0  0  0
 20 22  1  0  0  0  0
 22 23  1  0  0  0  0
 22 53  1  0  0  0  0
 23 24  2  0  0  0  0
 23 31  1  0  0  0  0
 24 25  1  0  0  0  0
 25 26  1  0  0  0  0
 25 30  2  0  0  0  0
 26 27  2  0  0  0  0
 26 54  1  0  0  0  0
 27 28  1  0  0  0  0
 27 55  1  0  0  0  0
 28 29  2  0  0  0  0
 28 56  1  0  0  0  0
 29 30  1  0  0  0  0
 29 57  1  0  0  0  0
 30 31  1  0  0  0  0
 32 58  1  0  0  0  0
 32 59  1  0  0  0  0
 33 34  2  0  0  0  0
 34 35  1  0  0  0  0
 34 60  1  0  0  0  0
 35 36  1  0  0  0  0
 36 37  1  0  0  0  0
 37 61  1  0  0  0  0
 37 62  1  0  0  0  0
 37 63  1  0  0  0  0
M  END
$$$$
