CHEMBL2000271
 OpenBabel04072215363D

 52 55  0  0  1  0  0  0  0  0999 V2000
    0.2996   -1.2705    3.5383 C   0  0  0  0  0  0  0  0  0  0  0  0
    0.1451   -1.3186    2.0640 C   0  0  0  0  0  0  0  0  0  0  0  0
   -0.6952   -2.1918    1.4944 N   0  0  0  0  0  0  0  0  0  0  0  0
   -0.5722   -1.9404    0.1777 N   0  0  0  0  0  0  0  0  0  0  0  0
    0.3043   -0.9339   -0.1235 C   0  0  0  0  0  0  0  0  0  0  0  0
    0.6985   -0.3691   -1.3363 C   0  0  0  0  0  0  0  0  0  0  0  0
    1.6380    0.6732   -1.2807 C   0  0  0  0  0  0  0  0  0  0  0  0
    2.1915    1.1354   -0.0711 C   0  0  0  0  0  0  0  0  0  0  0  0
    3.2030    2.2177   -0.0371 C   0  0  0  0  0  0  0  0  0  0  0  0
    4.1266    2.4242   -1.0645 C   0  0  0  0  0  0  0  0  0  0  0  0
    5.0785    3.3900   -1.0783 N   0  0  0  0  0  0  0  0  0  0  0  0
    5.1398    4.1895    0.0105 C   0  0  0  0  0  0  0  0  0  0  0  0
    4.3021    4.0694    1.1082 C   0  0  0  0  0  0  0  0  0  0  0  0
    4.4926    4.9378    2.1437 O   0  0  0  0  0  0  0  0  0  0  0  0
    4.1703    4.4195    3.4446 C   0  0  0  0  0  0  0  0  0  0  0  0
    4.5341    5.4689    4.5073 C   0  0  3  0  0  0  0  0  0  0  0  0
    3.8375    6.8222    4.2324 C   0  0  0  0  0  0  0  0  0  0  0  0
    2.3761    6.7593    4.2819 N   0  0  0  0  0  0  0  0  0  0  0  0
    4.2179    4.9666    5.9339 C   0  0  0  0  0  0  0  0  0  0  0  0
    4.9539    3.7119    6.3571 C   0  0  0  0  0  0  0  0  0  0  0  0
    6.3536    3.6613    6.3829 C   0  0  0  0  0  0  0  0  0  0  0  0
    7.0150    2.5017    6.7949 C   0  0  0  0  0  0  0  0  0  0  0  0
    6.2848    1.3847    7.1964 C   0  0  0  0  0  0  0  0  0  0  0  0
    4.8945    1.4246    7.1882 C   0  0  0  0  0  0  0  0  0  0  0  0
    4.2306    2.5811    6.7713 C   0  0  0  0  0  0  0  0  0  0  0  0
    3.3073    3.0949    1.0554 C   0  0  0  0  0  0  0  0  0  0  0  0
    1.7576    0.5219    1.1258 C   0  0  0  0  0  0  0  0  0  0  0  0
    0.8023   -0.5110    1.0989 C   0  0  0  0  0  0  0  0  0  0  0  0
   -0.3420   -2.0033    4.0373 H   0  0  0  0  0  0  0  0  0  0  0  0
    0.0346   -0.2770    3.9154 H   0  0  0  0  0  0  0  0  0  0  0  0
    1.3363   -1.4793    3.8195 H   0  0  0  0  0  0  0  0  0  0  0  0
   -1.1220   -2.4949   -0.4685 H   0  0  0  0  0  0  0  0  0  0  0  0
    0.2980   -0.7101   -2.2859 H   0  0  0  0  0  0  0  0  0  0  0  0
    1.9276    1.1310   -2.2260 H   0  0  0  0  0  0  0  0  0  0  0  0
    4.1462    1.7868   -1.9447 H   0  0  0  0  0  0  0  0  0  0  0  0
    5.9167    4.9485   -0.0163 H   0  0  0  0  0  0  0  0  0  0  0  0
    4.7415    3.4985    3.6091 H   0  0  0  0  0  0  0  0  0  0  0  0
    3.1015    4.1938    3.5165 H   0  0  0  0  0  0  0  0  0  0  0  0
    5.6123    5.6617    4.4242 H   0  0  0  0  0  0  0  0  0  0  0  0
    4.1390    7.2098    3.2526 H   0  0  0  0  0  0  0  0  0  0  0  0
    4.1740    7.5563    4.9736 H   0  0  0  0  0  0  0  0  0  0  0  0
    2.0345    6.1691    3.5234 H   0  0  0  0  0  0  0  0  0  0  0  0
    2.0020    7.6879    4.0791 H   0  0  0  0  0  0  0  0  0  0  0  0
    3.1379    4.7945    6.0271 H   0  0  0  0  0  0  0  0  0  0  0  0
    4.4606    5.7506    6.6636 H   0  0  0  0  0  0  0  0  0  0  0  0
    6.9440    4.5270    6.0905 H   0  0  0  0  0  0  0  0  0  0  0  0
    8.1021    2.4726    6.8096 H   0  0  0  0  0  0  0  0  0  0  0  0
    6.8023    0.4855    7.5236 H   0  0  0  0  0  0  0  0  0  0  0  0
    4.3233    0.5598    7.5164 H   0  0  0  0  0  0  0  0  0  0  0  0
    3.1435    2.5973    6.7855 H   0  0  0  0  0  0  0  0  0  0  0  0
    2.5841    3.0209    1.8595 H   0  0  0  0  0  0  0  0  0  0  0  0
    2.1599    0.8219    2.0887 H   0  0  0  0  0  0  0  0  0  0  0  0
  1  2  1  0  0  0  0
  1 29  1  0  0  0  0
  1 30  1  0  0  0  0
  1 31  1  0  0  0  0
  2  3  2  0  0  0  0
  2 28  1  0  0  0  0
  3  4  1  0  0  0  0
  4  5  1  0  0  0  0
  4 32  1  0  0  0  0
  5  6  1  0  0  0  0
  5 28  2  0  0  0  0
  6  7  2  0  0  0  0
  6 33  1  0  0  0  0
  7  8  1  0  0  0  0
  7 34  1  0  0  0  0
  8  9  1  0  0  0  0
  8 27  2  0  0  0  0
  9 10  1  0  0  0  0
  9 26  2  0  0  0  0
 10 11  2  0  0  0  0
 10 35  1  0  0  0  0
 11 12  1  0  0  0  0
 12 13  2  0  0  0  0
 12 36  1  0  0  0  0
 13 14  1  0  0  0  0
 13 26  1  0  0  0  0
 14 15  1  0  0  0  0
 15 16  1  0  0  0  0
 15 37  1  0  0  0  0
 15 38  1  0  0  0  0
 16 17  1  0  0  0  0
 16 19  1  0  0  0  0
 16 39  1  0  0  0  0
 17 18  1  0  0  0  0
 17 40  1  0  0  0  0
 17 41  1  0  0  0  0
 18 42  1  0  0  0  0
 18 43  1  0  0  0  0
 19 20  1  0  0  0  0
 19 44  1  0  0  0  0
 19 45  1  0  0  0  0
 20 21  1  0  0  0  0
 20 25  2  0  0  0  0
 21 22  2  0  0  0  0
 21 46  1  0  0  0  0
 22 23  1  0  0  0  0
 22 47  1  0  0  0  0
 23 24  2  0  0  0  0
 23 48  1  0  0  0  0
 24 25  1  0  0  0  0
 24 49  1  0  0  0  0
 25 50  1  0  0  0  0
 26 51  1  0  0  0  0
 27 28  1  0  0  0  0
 27 52  1  0  0  0  0
M  END
$$$$
