CHEMBL2180603
 OpenBabel04072215363D

 33 35  0  0  0  0  0  0  0  0999 V2000
    2.5438    1.6874    0.1801 C   0  0  0  0  0  0  0  0  0  0  0  0
    2.3883    0.2698    0.1439 O   0  0  0  0  0  0  0  0  0  0  0  0
    3.0398   -0.4201    1.1342 C   0  0  0  0  0  0  0  0  0  0  0  0
    4.1911    0.0699    1.7612 C   0  0  0  0  0  0  0  0  0  0  0  0
    4.7824   -0.5658    2.8418 C   0  0  0  0  0  0  0  0  0  0  0  0
    5.8322    0.0343    3.4116 N   0  0  0  0  0  0  0  0  0  0  0  0
    6.3582   -0.5519    4.4891 C   0  0  0  0  0  0  0  0  0  0  0  0
    5.9456   -1.6918    5.0384 N   0  0  0  0  0  0  0  0  0  0  0  0
    4.8946   -2.3012    4.4395 C   0  0  0  0  0  0  0  0  0  0  0  0
    4.3190   -3.7196    5.3565 S   0  0  0  0  0  0  0  0  0  0  0  0
    4.5978   -5.0199    4.2287 C   0  0  0  0  0  0  0  0  0  0  0  0
    5.0214   -4.8731    2.9900 N   0  0  0  0  0  0  0  0  0  0  0  0
    4.9845   -6.0634    2.2800 N   0  0  0  0  0  0  0  0  0  0  0  0
    4.5466   -7.0637    3.0192 C   0  0  0  0  0  0  0  0  0  0  0  0
    4.3044   -8.4459    2.5275 C   0  0  0  0  0  0  0  0  0  0  0  0
    4.2249   -6.6463    4.6468 S   0  0  0  0  0  0  0  0  0  0  0  0
    4.2358   -1.7642    3.3142 C   0  0  0  0  0  0  0  0  0  0  0  0
    3.0975   -2.2942    2.6499 C   0  0  0  0  0  0  0  0  0  0  0  0
    2.5187   -1.6487    1.5507 C   0  0  0  0  0  0  0  0  0  0  0  0
    1.4233   -2.2956    1.0479 O   0  0  0  0  0  0  0  0  0  0  0  0
    1.2050   -2.1879   -0.3548 C   0  0  0  0  0  0  0  0  0  0  0  0
    1.7351    2.1278   -0.4115 H   0  0  0  0  0  0  0  0  0  0  0  0
    3.4934    1.9798   -0.2799 H   0  0  0  0  0  0  0  0  0  0  0  0
    2.4619    2.0839    1.1988 H   0  0  0  0  0  0  0  0  0  0  0  0
    4.6539    0.9936    1.4250 H   0  0  0  0  0  0  0  0  0  0  0  0
    7.1843   -0.0414    4.9716 H   0  0  0  0  0  0  0  0  0  0  0  0
    4.3263   -8.4764    1.4335 H   0  0  0  0  0  0  0  0  0  0  0  0
    3.3216   -8.8061    2.8486 H   0  0  0  0  0  0  0  0  0  0  0  0
    5.0676   -9.1325    2.9053 H   0  0  0  0  0  0  0  0  0  0  0  0
    2.6510   -3.2294    2.9781 H   0  0  0  0  0  0  0  0  0  0  0  0
    0.7989   -3.1451   -0.6991 H   0  0  0  0  0  0  0  0  0  0  0  0
    2.1189   -2.0027   -0.9290 H   0  0  0  0  0  0  0  0  0  0  0  0
    0.4533   -1.4176   -0.5525 H   0  0  0  0  0  0  0  0  0  0  0  0
  1  2  1  0  0  0  0
  1 22  1  0  0  0  0
  1 23  1  0  0  0  0
  1 24  1  0  0  0  0
  2  3  1  0  0  0  0
  3  4  1  0  0  0  0
  3 19  2  0  0  0  0
  4  5  2  0  0  0  0
  4 25  1  0  0  0  0
  5  6  1  0  0  0  0
  5 17  1  0  0  0  0
  6  7  2  0  0  0  0
  7  8  1  0  0  0  0
  7 26  1  0  0  0  0
  8  9  2  0  0  0  0
  9 10  1  0  0  0  0
  9 17  1  0  0  0  0
 10 11  1  0  0  0  0
 11 12  2  0  0  0  0
 11 16  1  0  0  0  0
 12 13  1  0  0  0  0
 13 14  2  0  0  0  0
 14 15  1  0  0  0  0
 14 16  1  0  0  0  0
 15 27  1  0  0  0  0
 15 28  1  0  0  0  0
 15 29  1  0  0  0  0
 17 18  2  0  0  0  0
 18 19  1  0  0  0  0
 18 30  1  0  0  0  0
 19 20  1  0  0  0  0
 20 21  1  0  0  0  0
 21 31  1  0  0  0  0
 21 32  1  0  0  0  0
 21 33  1  0  0  0  0
M  END
$$$$
