CHEMBL4071203
 OpenBabel04072215383D

 54 58  0  0  0  0  0  0  0  0999 V2000
    9.8983   -4.2019   -2.5837 C   0  0  0  0  0  0  0  0  0  0  0  0
   10.0347   -3.4798   -3.8202 O   0  0  0  0  0  0  0  0  0  0  0  0
    9.0075   -2.6193   -4.1134 C   0  0  0  0  0  0  0  0  0  0  0  0
    8.2810   -2.0045   -3.0779 C   0  0  0  0  0  0  0  0  0  0  0  0
    7.1090   -1.2920   -3.3061 C   0  0  0  0  0  0  0  0  0  0  0  0
    6.4199   -0.8738   -2.2392 N   0  0  0  0  0  0  0  0  0  0  0  0
    5.2363   -0.2974   -2.4764 C   0  0  0  0  0  0  0  0  0  0  0  0
    4.6945   -0.1100   -3.6805 N   0  0  0  0  0  0  0  0  0  0  0  0
    5.4458   -0.4549   -4.7402 C   0  0  0  0  0  0  0  0  0  0  0  0
    4.9315   -0.2163   -6.0278 O   0  0  0  0  0  0  0  0  0  0  0  0
    3.9283    0.7451   -6.1306 C   0  0  0  0  0  0  0  0  0  0  0  0
    4.0716    1.9523   -5.4540 C   0  0  0  0  0  0  0  0  0  0  0  0
    3.0256    2.8615   -5.4059 C   0  0  0  0  0  0  0  0  0  0  0  0
    1.8208    2.6258   -6.0747 C   0  0  0  0  0  0  0  0  0  0  0  0
    0.7277    3.5324   -5.8957 N   0  0  0  0  0  0  0  0  0  0  0  0
    0.5960    4.4277   -4.8446 C   0  0  0  0  0  0  0  0  0  0  0  0
    1.3797    4.5665   -3.9105 O   0  0  0  0  0  0  0  0  0  0  0  0
   -0.5485    5.2059   -4.9280 N   0  0  0  0  0  0  0  0  0  0  0  0
   -0.8210    6.1885   -3.9145 C   0  0  0  0  0  0  0  0  0  0  0  0
   -2.0203    7.0920   -3.9306 C   0  0  0  0  0  0  0  0  0  0  0  0
   -0.6631    7.6488   -4.2436 C   0  0  0  0  0  0  0  0  0  0  0  0
    1.7162    1.4813   -6.9258 C   0  0  0  0  0  0  0  0  0  0  0  0
    0.5942    1.2151   -7.7577 C   0  0  0  0  0  0  0  0  0  0  0  0
    0.5274    0.0883   -8.5782 C   0  0  0  0  0  0  0  0  0  0  0  0
    1.5688   -0.8240   -8.5924 C   0  0  0  0  0  0  0  0  0  0  0  0
    2.6823   -0.6097   -7.7738 C   0  0  0  0  0  0  0  0  0  0  0  0
    2.7912    0.5250   -6.9452 C   0  0  0  0  0  0  0  0  0  0  0  0
    6.6962   -1.0877   -4.6184 C   0  0  0  0  0  0  0  0  0  0  0  0
    7.5201   -1.5326   -5.6736 C   0  0  0  0  0  0  0  0  0  0  0  0
    8.6524   -2.3333   -5.4383 C   0  0  0  0  0  0  0  0  0  0  0  0
    9.2022   -2.7323   -6.6192 O   0  0  0  0  0  0  0  0  0  0  0  0
   10.2412   -3.6884   -6.6840 C   0  0  0  0  0  0  0  0  0  0  0  0
   10.2639   -5.2216   -2.7341 H   0  0  0  0  0  0  0  0  0  0  0  0
    8.8609   -4.2965   -2.2366 H   0  0  0  0  0  0  0  0  0  0  0  0
   10.5061   -3.7285   -1.8036 H   0  0  0  0  0  0  0  0  0  0  0  0
    8.5856   -2.1157   -2.0421 H   0  0  0  0  0  0  0  0  0  0  0  0
    4.6732    0.0501   -1.6186 H   0  0  0  0  0  0  0  0  0  0  0  0
    4.9724    2.1721   -4.8880 H   0  0  0  0  0  0  0  0  0  0  0  0
    3.1918    3.7502   -4.8089 H   0  0  0  0  0  0  0  0  0  0  0  0
   -0.0882    3.3923   -6.4639 H   0  0  0  0  0  0  0  0  0  0  0  0
   -1.2869    4.9455   -5.5631 H   0  0  0  0  0  0  0  0  0  0  0  0
   -0.4894    5.8754   -2.9241 H   0  0  0  0  0  0  0  0  0  0  0  0
   -2.4553    7.3668   -2.9743 H   0  0  0  0  0  0  0  0  0  0  0  0
   -2.7367    7.0159   -4.7368 H   0  0  0  0  0  0  0  0  0  0  0  0
   -0.1723    8.2724   -3.5046 H   0  0  0  0  0  0  0  0  0  0  0  0
   -0.4526    7.9288   -5.2686 H   0  0  0  0  0  0  0  0  0  0  0  0
   -0.2496    1.8955   -7.7972 H   0  0  0  0  0  0  0  0  0  0  0  0
   -0.3445   -0.0726   -9.2152 H   0  0  0  0  0  0  0  0  0  0  0  0
    1.5233   -1.6974   -9.2370 H   0  0  0  0  0  0  0  0  0  0  0  0
    3.4881   -1.3435   -7.8095 H   0  0  0  0  0  0  0  0  0  0  0  0
    7.2550   -1.2984   -6.7024 H   0  0  0  0  0  0  0  0  0  0  0  0
   10.2170   -4.0989   -7.7016 H   0  0  0  0  0  0  0  0  0  0  0  0
   10.1061   -4.5314   -6.0041 H   0  0  0  0  0  0  0  0  0  0  0  0
   11.2122   -3.2037   -6.5539 H   0  0  0  0  0  0  0  0  0  0  0  0
  1  2  1  0  0  0  0
  1 33  1  0  0  0  0
  1 34  1  0  0  0  0
  1 35  1  0  0  0  0
  2  3  1  0  0  0  0
  3  4  1  0  0  0  0
  3 30  2  0  0  0  0
  4  5  2  0  0  0  0
  4 36  1  0  0  0  0
  5  6  1  0  0  0  0
  5 28  1  0  0  0  0
  6  7  2  0  0  0  0
  7  8  1  0  0  0  0
  7 37  1  0  0  0  0
  8  9  2  0  0  0  0
  9 10  1  0  0  0  0
  9 28  1  0  0  0  0
 10 11  1  0  0  0  0
 11 12  1  0  0  0  0
 11 27  2  0  0  0  0
 12 13  2  0  0  0  0
 12 38  1  0  0  0  0
 13 14  1  0  0  0  0
 13 39  1  0  0  0  0
 14 15  1  0  0  0  0
 14 22  2  0  0  0  0
 15 16  1  0  0  0  0
 15 40  1  0  0  0  0
 16 17  2  0  0  0  0
 16 18  1  0  0  0  0
 18 19  1  0  0  0  0
 18 41  1  0  0  0  0
 19 20  1  0  0  0  0
 19 21  1  0  0  0  0
 19 42  1  0  0  0  0
 20 21  1  0  0  0  0
 20 43  1  0  0  0  0
 20 44  1  0  0  0  0
 21 45  1  0  0  0  0
 21 46  1  0  0  0  0
 22 23  1  0  0  0  0
 22 27  1  0  0  0  0
 23 24  2  0  0  0  0
 23 47  1  0  0  0  0
 24 25  1  0  0  0  0
 24 48  1  0  0  0  0
 25 26  2  0  0  0  0
 25 49  1  0  0  0  0
 26 27  1  0  0  0  0
 26 50  1  0  0  0  0
 28 29  2  0  0  0  0
 29 30  1  0  0  0  0
 29 51  1  0  0  0  0
 30 31  1  0  0  0  0
 31 32  1  0  0  0  0
 32 52  1  0  0  0  0
 32 53  1  0  0  0  0
 32 54  1  0  0  0  0
M  END
$$$$
