CHEMBL2113168
 OpenBabel04072215363D

 56 59  0  0  0  0  0  0  0  0999 V2000
    1.0168    0.4196    0.7659 C   0  0  0  0  0  0  0  0  0  0  0  0
    2.2665    0.2034    0.1409 O   0  0  0  0  0  0  0  0  0  0  0  0
    2.7430    1.3370   -0.5928 C   0  0  0  0  0  0  0  0  0  0  0  0
    4.0579    0.8811   -1.2103 C   0  0  0  0  0  0  0  0  0  0  0  0
    4.7227    1.8732   -1.9624 O   0  0  0  0  0  0  0  0  0  0  0  0
    6.0805    1.7492   -2.1291 C   0  0  0  0  0  0  0  0  0  0  0  0
    6.6570    3.0171   -2.3923 C   0  0  0  0  0  0  0  0  0  0  0  0
    8.0254    3.2351   -2.5480 C   0  0  0  0  0  0  0  0  0  0  0  0
    8.4942    4.4764   -2.7304 N   0  0  0  0  0  0  0  0  0  0  0  0
    9.8214    4.6104   -2.8554 C   0  0  0  0  0  0  0  0  0  0  0  0
   10.7202    3.6223   -2.8464 N   0  0  0  0  0  0  0  0  0  0  0  0
   10.2387    2.3756   -2.6862 C   0  0  0  0  0  0  0  0  0  0  0  0
   11.1395    1.2734   -2.7275 N   0  0  0  0  0  0  0  0  0  0  0  0
   12.5216    1.4251   -2.6658 C   0  0  0  0  0  0  0  0  0  0  0  0
   13.1834    2.1920   -1.7974 C   0  0  0  0  0  0  0  0  0  0  0  0
   14.6371    2.3419   -1.7949 C   0  0  0  0  0  0  0  0  0  0  0  0
   15.1698    2.9723   -0.8782 O   0  0  0  0  0  0  0  0  0  0  0  0
   15.4267    1.7115   -2.9231 C   0  0  0  0  0  0  0  0  0  0  0  0
   16.7706    2.0695   -3.1062 N   0  0  0  0  0  0  0  0  0  0  0  0
   17.3087    3.3753   -2.6522 C   0  0  0  0  0  0  0  0  0  0  0  0
   18.3819    3.8619   -3.6391 C   0  0  0  0  0  0  0  0  0  0  0  0
   19.4327    2.8965   -3.8048 O   0  0  0  0  0  0  0  0  0  0  0  0
   18.8947    1.6521   -4.2804 C   0  0  0  0  0  0  0  0  0  0  0  0
   17.8510    1.0820   -3.3062 C   0  0  0  0  0  0  0  0  0  0  0  0
   14.7710    0.8558   -3.7242 C   0  0  0  0  0  0  0  0  0  0  0  0
   13.3189    0.6042   -3.6335 C   0  0  0  0  0  0  0  0  0  0  0  0
   12.7735   -0.2139   -4.3678 O   0  0  0  0  0  0  0  0  0  0  0  0
    8.8678    2.1269   -2.4956 C   0  0  0  0  0  0  0  0  0  0  0  0
    8.3131    0.8596   -2.2215 C   0  0  0  0  0  0  0  0  0  0  0  0
    6.9342    0.6434   -2.0386 C   0  0  0  0  0  0  0  0  0  0  0  0
    6.7383   -0.6576   -1.6839 O   0  0  0  0  0  0  0  0  0  0  0  0
    5.6269   -1.4214   -2.1047 C   0  0  0  0  0  0  0  0  0  0  0  0
    0.7526   -0.4956    1.3042 H   0  0  0  0  0  0  0  0  0  0  0  0
    0.2445    0.6189    0.0186 H   0  0  0  0  0  0  0  0  0  0  0  0
    1.0845    1.2405    1.4839 H   0  0  0  0  0  0  0  0  0  0  0  0
    2.8898    2.1977    0.0673 H   0  0  0  0  0  0  0  0  0  0  0  0
    2.0258    1.6127   -1.3756 H   0  0  0  0  0  0  0  0  0  0  0  0
    3.7661    0.0838   -1.8932 H   0  0  0  0  0  0  0  0  0  0  0  0
    4.6946    0.4997   -0.4053 H   0  0  0  0  0  0  0  0  0  0  0  0
    6.0029    3.8887   -2.4337 H   0  0  0  0  0  0  0  0  0  0  0  0
   10.2050    5.6193   -2.9770 H   0  0  0  0  0  0  0  0  0  0  0  0
   10.8754    0.6409   -3.4845 H   0  0  0  0  0  0  0  0  0  0  0  0
   12.6544    2.7597   -1.0383 H   0  0  0  0  0  0  0  0  0  0  0  0
   17.7418    3.2599   -1.6519 H   0  0  0  0  0  0  0  0  0  0  0  0
   16.5221    4.1365   -2.6153 H   0  0  0  0  0  0  0  0  0  0  0  0
   18.8326    4.7889   -3.2711 H   0  0  0  0  0  0  0  0  0  0  0  0
   17.9384    4.0737   -4.6200 H   0  0  0  0  0  0  0  0  0  0  0  0
   19.7293    0.9522   -4.3895 H   0  0  0  0  0  0  0  0  0  0  0  0
   18.4561    1.8101   -5.2732 H   0  0  0  0  0  0  0  0  0  0  0  0
   18.3257    0.8837   -2.3367 H   0  0  0  0  0  0  0  0  0  0  0  0
   17.4728    0.1295   -3.6920 H   0  0  0  0  0  0  0  0  0  0  0  0
   15.2665    0.3616   -4.5467 H   0  0  0  0  0  0  0  0  0  0  0  0
    8.9810    0.0041   -2.1098 H   0  0  0  0  0  0  0  0  0  0  0  0
    5.9723   -2.4231   -2.3776 H   0  0  0  0  0  0  0  0  0  0  0  0
    5.1041   -1.0059   -2.9692 H   0  0  0  0  0  0  0  0  0  0  0  0
    4.9687   -1.5654   -1.2417 H   0  0  0  0  0  0  0  0  0  0  0  0
  1  2  1  0  0  0  0
  1 33  1  0  0  0  0
  1 34  1  0  0  0  0
  1 35  1  0  0  0  0
  2  3  1  0  0  0  0
  3  4  1  0  0  0  0
  3 36  1  0  0  0  0
  3 37  1  0  0  0  0
  4  5  1  0  0  0  0
  4 38  1  0  0  0  0
  4 39  1  0  0  0  0
  5  6  1  0  0  0  0
  6  7  1  0  0  0  0
  6 30  2  0  0  0  0
  7  8  2  0  0  0  0
  7 40  1  0  0  0  0
  8  9  1  0  0  0  0
  8 28  1  0  0  0  0
  9 10  2  0  0  0  0
 10 11  1  0  0  0  0
 10 41  1  0  0  0  0
 11 12  2  0  0  0  0
 12 13  1  0  0  0  0
 12 28  1  0  0  0  0
 13 14  1  0  0  0  0
 13 42  1  0  0  0  0
 14 15  2  0  0  0  0
 14 26  1  0  0  0  0
 15 16  1  0  0  0  0
 15 43  1  0  0  0  0
 16 17  2  0  0  0  0
 16 18  1  0  0  0  0
 18 19  1  0  0  0  0
 18 25  2  0  0  0  0
 19 20  1  0  0  0  0
 19 24  1  0  0  0  0
 20 21  1  0  0  0  0
 20 44  1  0  0  0  0
 20 45  1  0  0  0  0
 21 22  1  0  0  0  0
 21 46  1  0  0  0  0
 21 47  1  0  0  0  0
 22 23  1  0  0  0  0
 23 24  1  0  0  0  0
 23 48  1  0  0  0  0
 23 49  1  0  0  0  0
 24 50  1  0  0  0  0
 24 51  1  0  0  0  0
 25 26  1  0  0  0  0
 25 52  1  0  0  0  0
 26 27  2  0  0  0  0
 28 29  2  0  0  0  0
 29 30  1  0  0  0  0
 29 53  1  0  0  0  0
 30 31  1  0  0  0  0
 31 32  1  0  0  0  0
 32 54  1  0  0  0  0
 32 55  1  0  0  0  0
 32 56  1  0  0  0  0
M  END
$$$$
