CHEMBL254674
 OpenBabel04072215363D

 64 70  0  0  0  0  0  0  0  0999 V2000
   -3.5774   -2.7616   -6.1474 C   0  0  0  0  0  0  0  0  0  0  0  0
   -4.3492   -3.3565   -5.0596 N   0  0  0  0  0  0  0  0  0  0  0  0
   -3.5640   -3.3492   -3.8042 C   0  0  0  0  0  0  0  0  0  0  0  0
   -4.3455   -3.9304   -2.6021 C   0  0  0  0  0  0  0  0  0  0  0  0
   -5.6110   -3.2019   -2.4439 N   0  0  0  0  0  0  0  0  0  0  0  0
   -6.1102   -2.8588   -1.2055 C   0  0  0  0  0  0  0  0  0  0  0  0
   -6.9507   -1.7499   -1.0505 C   0  0  0  0  0  0  0  0  0  0  0  0
   -7.3913   -1.3311    0.2094 C   0  0  0  0  0  0  0  0  0  0  0  0
   -7.0393   -2.0348    1.3656 C   0  0  0  0  0  0  0  0  0  0  0  0
   -7.4333   -1.4984    2.6127 N   0  0  0  0  0  0  0  0  0  0  0  0
   -7.2670   -2.1044    3.8654 C   0  0  0  0  0  0  0  0  0  0  0  0
   -6.3995   -1.4071    4.6179 N   0  0  0  0  0  0  0  0  0  0  0  0
   -6.1655   -1.8501    5.8497 C   0  0  0  0  0  0  0  0  0  0  0  0
   -6.7995   -2.9534    6.3488 C   0  0  0  0  0  0  0  0  0  0  0  0
   -6.6495   -3.2126    7.7778 C   0  0  0  0  0  0  0  0  0  0  0  0
   -5.5199   -3.2080    8.2583 O   0  0  0  0  0  0  0  0  0  0  0  0
   -7.8228   -3.4137    8.4592 N   0  0  0  0  0  0  0  0  0  0  0  0
   -7.8547   -4.3739    9.5252 C   0  0  0  0  0  0  0  0  0  0  0  0
   -8.5825   -4.0793   10.6870 C   0  0  0  0  0  0  0  0  0  0  0  0
   -9.2387   -2.5051   10.9769 Cl  0  0  0  0  0  0  0  0  0  0  0  0
   -8.7678   -5.0447   11.6800 C   0  0  0  0  0  0  0  0  0  0  0  0
   -8.2410   -6.3221   11.5209 C   0  0  0  0  0  0  0  0  0  0  0  0
   -8.5062   -7.5132   12.7327 Cl  0  0  0  0  0  0  0  0  0  0  0  0
   -7.4980   -6.6428   10.3949 C   0  0  0  0  0  0  0  0  0  0  0  0
   -7.2818   -5.6734    9.4094 C   0  0  0  0  0  0  0  0  0  0  0  0
   -6.3617   -6.2269    8.0429 Cl  0  0  0  0  0  0  0  0  0  0  0  0
   -8.9862   -3.4243    7.6664 C   0  0  0  0  0  0  0  0  0  0  0  0
  -10.2357   -3.4639    8.0300 N   0  0  0  0  0  0  0  0  0  0  0  0
  -10.5362   -4.7354    7.6787 C   0  0  0  0  0  0  0  0  0  0  0  0
  -11.3712   -5.5547    8.4468 C   0  0  0  0  0  0  0  0  0  0  0  0
  -11.0407   -6.8989    8.5059 C   0  0  0  0  0  0  0  0  0  0  0  0
  -10.0683   -7.4193    7.6430 C   0  0  0  0  0  0  0  0  0  0  0  0
   -9.3933   -6.6258    6.6664 C   0  0  0  0  0  0  0  0  0  0  0  0
   -9.6009   -5.2196    6.7442 C   0  0  0  0  0  0  0  0  0  0  0  0
   -8.8873   -4.0412    6.4116 N   0  0  0  0  0  0  0  0  0  0  0  0
   -7.7869   -3.5854    5.5884 C   0  0  0  0  0  0  0  0  0  0  0  0
   -7.9951   -3.1797    4.3046 N   0  0  0  0  0  0  0  0  0  0  0  0
   -6.1861   -3.1263    1.2347 C   0  0  0  0  0  0  0  0  0  0  0  0
   -5.7435   -3.5342   -0.0320 C   0  0  0  0  0  0  0  0  0  0  0  0
   -6.4396   -3.1737   -3.6612 C   0  0  0  0  0  0  0  0  0  0  0  0
   -5.6134   -2.6127   -4.8442 C   0  0  0  0  0  0  0  0  0  0  0  0
   -2.6554   -3.3294   -6.3153 H   0  0  0  0  0  0  0  0  0  0  0  0
   -3.3070   -1.7186   -5.9467 H   0  0  0  0  0  0  0  0  0  0  0  0
   -4.1448   -2.7977   -7.0835 H   0  0  0  0  0  0  0  0  0  0  0  0
   -3.2605   -2.3217   -3.5576 H   0  0  0  0  0  0  0  0  0  0  0  0
   -2.6491   -3.9380   -3.9364 H   0  0  0  0  0  0  0  0  0  0  0  0
   -3.7025   -3.8295   -1.7206 H   0  0  0  0  0  0  0  0  0  0  0  0
   -4.5455   -4.9981   -2.7551 H   0  0  0  0  0  0  0  0  0  0  0  0
   -7.2342   -1.1503   -1.9103 H   0  0  0  0  0  0  0  0  0  0  0  0
   -7.9983   -0.4318    0.2831 H   0  0  0  0  0  0  0  0  0  0  0  0
   -6.8489   -0.6642    2.7383 H   0  0  0  0  0  0  0  0  0  0  0  0
   -5.5379   -1.2229    6.4806 H   0  0  0  0  0  0  0  0  0  0  0  0
   -9.3336   -4.8005   12.5747 H   0  0  0  0  0  0  0  0  0  0  0  0
   -7.0989   -7.6491   10.2767 H   0  0  0  0  0  0  0  0  0  0  0  0
  -12.0341   -5.1025    9.1808 H   0  0  0  0  0  0  0  0  0  0  0  0
  -11.4845   -7.5091    9.2941 H   0  0  0  0  0  0  0  0  0  0  0  0
   -9.7816   -8.4617    7.7943 H   0  0  0  0  0  0  0  0  0  0  0  0
   -8.5935   -7.0831    6.0872 H   0  0  0  0  0  0  0  0  0  0  0  0
   -5.8325   -3.6670    2.1076 H   0  0  0  0  0  0  0  0  0  0  0  0
   -5.1018   -4.4098   -0.0802 H   0  0  0  0  0  0  0  0  0  0  0  0
   -7.3487   -2.5736   -3.5503 H   0  0  0  0  0  0  0  0  0  0  0  0
   -6.7680   -4.1953   -3.8951 H   0  0  0  0  0  0  0  0  0  0  0  0
   -5.4007   -1.5522   -4.6511 H   0  0  0  0  0  0  0  0  0  0  0  0
   -6.2271   -2.6653   -5.7512 H   0  0  0  0  0  0  0  0  0  0  0  0
  1  2  1  0  0  0  0
  1 42  1  0  0  0  0
  1 43  1  0  0  0  0
  1 44  1  0  0  0  0
  2  3  1  0  0  0  0
  2 41  1  0  0  0  0
  3  4  1  0  0  0  0
  3 45  1  0  0  0  0
  3 46  1  0  0  0  0
  4  5  1  0  0  0  0
  4 47  1  0  0  0  0
  4 48  1  0  0  0  0
  5  6  1  0  0  0  0
  5 40  1  0  0  0  0
  6  7  1  0  0  0  0
  6 39  2  0  0  0  0
  7  8  2  0  0  0  0
  7 49  1  0  0  0  0
  8  9  1  0  0  0  0
  8 50  1  0  0  0  0
  9 10  1  0  0  0  0
  9 38  2  0  0  0  0
 10 11  1  0  0  0  0
 10 51  1  0  0  0  0
 11 12  1  0  0  0  0
 11 37  2  0  0  0  0
 12 13  2  0  0  0  0
 13 14  1  0  0  0  0
 13 52  1  0  0  0  0
 14 15  1  0  0  0  0
 14 36  2  0  0  0  0
 15 16  2  0  0  0  0
 15 17  1  0  0  0  0
 17 18  1  0  0  0  0
 17 27  1  0  0  0  0
 18 19  1  0  0  0  0
 18 25  2  0  0  0  0
 19 20  1  0  0  0  0
 19 21  2  0  0  0  0
 21 22  1  0  0  0  0
 21 53  1  0  0  0  0
 22 23  1  0  0  0  0
 22 24  2  0  0  0  0
 24 25  1  0  0  0  0
 24 54  1  0  0  0  0
 25 26  1  0  0  0  0
 27 28  2  0  0  0  0
 27 35  1  0  0  0  0
 28 29  1  0  0  0  0
 29 30  1  0  0  0  0
 29 34  2  0  0  0  0
 30 31  2  0  0  0  0
 30 55  1  0  0  0  0
 31 32  1  0  0  0  0
 31 56  1  0  0  0  0
 32 33  2  0  0  0  0
 32 57  1  0  0  0  0
 33 34  1  0  0  0  0
 33 58  1  0  0  0  0
 34 35  1  0  0  0  0
 35 36  1  0  0  0  0
 36 37  1  0  0  0  0
 38 39  1  0  0  0  0
 38 59  1  0  0  0  0
 39 60  1  0  0  0  0
 40 41  1  0  0  0  0
 40 61  1  0  0  0  0
 40 62  1  0  0  0  0
 41 63  1  0  0  0  0
 41 64  1  0  0  0  0
M  END
$$$$
