CHEMBL3656110
 OpenBabel04072215373D

 56 59  0  0  0  0  0  0  0  0999 V2000
    3.1687   -2.6186    1.0780 C   0  0  0  0  0  0  0  0  0  0  0  0
    4.4139   -2.1550    0.5271 N   0  0  0  0  0  0  0  0  0  0  0  0
    4.7686   -0.8315    0.6281 C   0  0  0  0  0  0  0  0  0  0  0  0
    4.0519    0.0029    1.1796 O   0  0  0  0  0  0  0  0  0  0  0  0
    6.0566   -0.4647    0.0379 C   0  0  0  0  0  0  0  0  0  0  0  0
    6.9577   -1.2311   -0.6827 C   0  0  0  0  0  0  0  0  0  0  0  0
    8.0248   -0.4343   -1.0326 N   0  0  0  0  0  0  0  0  0  0  0  0
    7.8447    0.8438   -0.5559 C   0  0  0  0  0  0  0  0  0  0  0  0
    8.8212    1.9132   -0.7459 C   0  0  0  0  0  0  0  0  0  0  0  0
    8.6026    3.1839   -0.2290 C   0  0  0  0  0  0  0  0  0  0  0  0
    9.6161    4.1345   -0.3179 C   0  0  0  0  0  0  0  0  0  0  0  0
    9.5311    5.4042    0.2257 O   0  0  0  0  0  0  0  0  0  0  0  0
    8.8187    5.5840    1.3951 C   0  0  0  0  0  0  0  0  0  0  0  0
    8.7780    4.6390    2.4132 C   0  0  0  0  0  0  0  0  0  0  0  0
    7.9512    4.8350    3.5197 C   0  0  0  0  0  0  0  0  0  0  0  0
    7.1848    5.9981    3.6748 C   0  0  0  0  0  0  0  0  0  0  0  0
    6.2800    6.1883    4.7634 N   0  0  0  0  0  0  0  0  0  0  0  0
    5.9187    5.1922    5.6600 C   0  0  0  0  0  0  0  0  0  0  0  0
    6.2949    4.0303    5.5735 O   0  0  0  0  0  0  0  0  0  0  0  0
    5.0784    5.6365    6.6725 N   0  0  0  0  0  0  0  0  0  0  0  0
    4.7328    4.8265    7.7935 C   0  0  0  0  0  0  0  0  0  0  0  0
    5.5229    3.7426    8.2022 C   0  0  0  0  0  0  0  0  0  0  0  0
    5.1323    2.9123    9.2526 C   0  0  0  0  0  0  0  0  0  0  0  0
    3.9609    3.1809    9.9460 C   0  0  0  0  0  0  0  0  0  0  0  0
    3.1835    4.2938    9.6049 C   0  0  0  0  0  0  0  0  0  0  0  0
    1.9346    4.5893   10.3832 C   0  0  0  0  0  0  0  0  0  0  0  0
    3.5729    5.1126    8.5234 C   0  0  0  0  0  0  0  0  0  0  0  0
    7.3293    7.0003    2.7069 C   0  0  0  0  0  0  0  0  0  0  0  0
    8.1376    6.7911    1.5713 C   0  0  0  0  0  0  0  0  0  0  0  0
   10.7719    3.8170   -1.0198 C   0  0  0  0  0  0  0  0  0  0  0  0
   10.8882    2.5372   -1.5444 C   0  0  0  0  0  0  0  0  0  0  0  0
    9.9493    1.5690   -1.4095 N   0  0  0  0  0  0  0  0  0  0  0  0
    6.6340    0.8365    0.1126 C   0  0  0  0  0  0  0  0  0  0  0  0
    3.0959   -3.6978    0.9286 H   0  0  0  0  0  0  0  0  0  0  0  0
    2.3406   -2.1140    0.5710 H   0  0  0  0  0  0  0  0  0  0  0  0
    3.1337   -2.3835    2.1459 H   0  0  0  0  0  0  0  0  0  0  0  0
    5.0425   -2.8078    0.0863 H   0  0  0  0  0  0  0  0  0  0  0  0
    6.9454   -2.2688   -0.9854 H   0  0  0  0  0  0  0  0  0  0  0  0
    8.8433   -0.7198   -1.5569 H   0  0  0  0  0  0  0  0  0  0  0  0
    7.6701    3.4127    0.2720 H   0  0  0  0  0  0  0  0  0  0  0  0
    9.3451    3.7142    2.3564 H   0  0  0  0  0  0  0  0  0  0  0  0
    7.9378    4.0280    4.2436 H   0  0  0  0  0  0  0  0  0  0  0  0
    5.8253    7.0849    4.8310 H   0  0  0  0  0  0  0  0  0  0  0  0
    4.4857    6.4284    6.4756 H   0  0  0  0  0  0  0  0  0  0  0  0
    6.4632    3.5062    7.7143 H   0  0  0  0  0  0  0  0  0  0  0  0
    5.7475    2.0565    9.5172 H   0  0  0  0  0  0  0  0  0  0  0  0
    3.6658    2.5198   10.7574 H   0  0  0  0  0  0  0  0  0  0  0  0
    1.8366    3.9190   11.2452 H   0  0  0  0  0  0  0  0  0  0  0  0
    1.0511    4.4565    9.7522 H   0  0  0  0  0  0  0  0  0  0  0  0
    1.9630    5.6132   10.7675 H   0  0  0  0  0  0  0  0  0  0  0  0
    2.9423    5.9533    8.2478 H   0  0  0  0  0  0  0  0  0  0  0  0
    6.7995    7.9440    2.8010 H   0  0  0  0  0  0  0  0  0  0  0  0
    8.2160    7.5677    0.8148 H   0  0  0  0  0  0  0  0  0  0  0  0
   11.5672    4.5426   -1.1477 H   0  0  0  0  0  0  0  0  0  0  0  0
   11.7742    2.2448   -2.1017 H   0  0  0  0  0  0  0  0  0  0  0  0
    6.1839    1.6774    0.6255 H   0  0  0  0  0  0  0  0  0  0  0  0
  1  2  1  0  0  0  0
  1 34  1  0  0  0  0
  1 35  1  0  0  0  0
  1 36  1  0  0  0  0
  2  3  1  0  0  0  0
  2 37  1  0  0  0  0
  3  4  2  0  0  0  0
  3  5  1  0  0  0  0
  5  6  2  0  0  0  0
  5 33  1  0  0  0  0
  6  7  1  0  0  0  0
  6 38  1  0  0  0  0
  7  8  1  0  0  0  0
  7 39  1  0  0  0  0
  8  9  1  0  0  0  0
  8 33  2  0  0  0  0
  9 10  1  0  0  0  0
  9 32  2  0  0  0  0
 10 11  2  0  0  0  0
 10 40  1  0  0  0  0
 11 12  1  0  0  0  0
 11 30  1  0  0  0  0
 12 13  1  0  0  0  0
 13 14  1  0  0  0  0
 13 29  2  0  0  0  0
 14 15  2  0  0  0  0
 14 41  1  0  0  0  0
 15 16  1  0  0  0  0
 15 42  1  0  0  0  0
 16 17  1  0  0  0  0
 16 28  2  0  0  0  0
 17 18  1  0  0  0  0
 17 43  1  0  0  0  0
 18 19  2  0  0  0  0
 18 20  1  0  0  0  0
 20 21  1  0  0  0  0
 20 44  1  0  0  0  0
 21 22  1  0  0  0  0
 21 27  2  0  0  0  0
 22 23  2  0  0  0  0
 22 45  1  0  0  0  0
 23 24  1  0  0  0  0
 23 46  1  0  0  0  0
 24 25  2  0  0  0  0
 24 47  1  0  0  0  0
 25 26  1  0  0  0  0
 25 27  1  0  0  0  0
 26 48  1  0  0  0  0
 26 49  1  0  0  0  0
 26 50  1  0  0  0  0
 27 51  1  0  0  0  0
 28 29  1  0  0  0  0
 28 52  1  0  0  0  0
 29 53  1  0  0  0  0
 30 31  2  0  0  0  0
 30 54  1  0  0  0  0
 31 32  1  0  0  0  0
 31 55  1  0  0  0  0
 33 56  1  0  0  0  0
M  END
$$$$
