CHEMBL3753739
 OpenBabel04072215373D

 67 72  0  0  0  0  0  0  0  0999 V2000
   16.5117  -13.1642   -7.8948 C   0  0  0  0  0  0  0  0  0  0  0  0
   15.4162  -12.6713   -7.1320 O   0  0  0  0  0  0  0  0  0  0  0  0
   14.5460  -11.8329   -7.7734 C   0  0  0  0  0  0  0  0  0  0  0  0
   14.6489  -11.4038   -9.0955 C   0  0  0  0  0  0  0  0  0  0  0  0
   13.6919  -10.5346   -9.6353 C   0  0  0  0  0  0  0  0  0  0  0  0
   12.6125  -10.0755   -8.8660 C   0  0  0  0  0  0  0  0  0  0  0  0
   11.6217   -9.1439   -9.4037 C   0  0  0  0  0  0  0  0  0  0  0  0
   11.3108   -9.0192  -10.7459 C   0  0  0  0  0  0  0  0  0  0  0  0
   10.1769   -7.7457  -10.9717 S   0  0  0  0  0  0  0  0  0  0  0  0
   10.1103   -7.5304   -9.2798 C   0  0  0  0  0  0  0  0  0  0  0  0
    9.2369   -6.5627   -8.8588 N   0  0  0  0  0  0  0  0  0  0  0  0
    8.9534   -6.3655   -7.5270 C   0  0  0  0  0  0  0  0  0  0  0  0
    9.3470   -7.0641   -6.5901 O   0  0  0  0  0  0  0  0  0  0  0  0
    7.9852   -5.2064   -7.2430 C   0  0  0  0  0  0  0  0  0  0  0  0
    8.1999   -4.0234   -8.1141 N   0  0  0  0  0  0  0  0  0  0  0  0
    9.5363   -3.4093   -7.9231 C   0  0  0  0  0  0  0  0  0  0  0  0
    9.7893   -2.7805   -6.5386 C   0  0  0  0  0  0  0  0  0  0  0  0
    8.7400   -1.8328   -6.1535 N   0  0  0  0  0  0  0  0  0  0  0  0
    9.0132   -0.6785   -5.4203 C   0  0  0  0  0  0  0  0  0  0  0  0
    8.2859    0.4267   -5.6877 N   0  0  0  0  0  0  0  0  0  0  0  0
    8.6226    1.6735   -5.1687 N   0  0  0  0  0  0  0  0  0  0  0  0
    9.7386    1.8459   -4.4254 C   0  0  0  0  0  0  0  0  0  0  0  0
    9.9653    3.2461   -3.9552 C   0  0  0  0  0  0  0  0  0  0  0  0
   10.5149    3.5510   -2.6913 C   0  0  0  0  0  0  0  0  0  0  0  0
   10.7976    4.8652   -2.2975 C   0  0  0  0  0  0  0  0  0  0  0  0
   10.4667    5.9253   -3.1310 C   0  0  0  0  0  0  0  0  0  0  0  0
    9.8502    5.6684   -4.3511 C   0  0  0  0  0  0  0  0  0  0  0  0
    9.6098    4.3475   -4.7586 C   0  0  0  0  0  0  0  0  0  0  0  0
   10.5483    0.7292   -4.1177 C   0  0  0  0  0  0  0  0  0  0  0  0
   11.8006    0.8094   -3.4464 C   0  0  0  0  0  0  0  0  0  0  0  0
   12.4911   -0.3185   -3.0017 C   0  0  0  0  0  0  0  0  0  0  0  0
   11.9392   -1.5649   -3.2032 C   0  0  0  0  0  0  0  0  0  0  0  0
   10.7609   -1.6765   -3.9394 C   0  0  0  0  0  0  0  0  0  0  0  0
   10.0981   -0.5595   -4.5119 C   0  0  0  0  0  0  0  0  0  0  0  0
    7.3494   -2.1988   -6.4449 C   0  0  0  0  0  0  0  0  0  0  0  0
    7.1986   -2.9620   -7.7980 C   0  0  0  0  0  0  0  0  0  0  0  0
   10.8955   -8.3011   -8.5714 N   0  0  0  0  0  0  0  0  0  0  0  0
   12.5207  -10.5048   -7.5352 C   0  0  0  0  0  0  0  0  0  0  0  0
   13.4765  -11.3796   -6.9983 C   0  0  0  0  0  0  0  0  0  0  0  0
   17.1104  -13.8111   -7.2466 H   0  0  0  0  0  0  0  0  0  0  0  0
   17.1576  -12.3473   -8.2352 H   0  0  0  0  0  0  0  0  0  0  0  0
   16.1632  -13.7692   -8.7388 H   0  0  0  0  0  0  0  0  0  0  0  0
   15.4684  -11.7178   -9.7346 H   0  0  0  0  0  0  0  0  0  0  0  0
   13.8236  -10.2051  -10.6637 H   0  0  0  0  0  0  0  0  0  0  0  0
   11.6872   -9.5814  -11.5882 H   0  0  0  0  0  0  0  0  0  0  0  0
    8.7925   -5.9693   -9.5473 H   0  0  0  0  0  0  0  0  0  0  0  0
    8.0730   -4.9530   -6.1812 H   0  0  0  0  0  0  0  0  0  0  0  0
    6.9773   -5.6044   -7.4077 H   0  0  0  0  0  0  0  0  0  0  0  0
    9.6582   -2.6314   -8.6885 H   0  0  0  0  0  0  0  0  0  0  0  0
   10.3272   -4.1392   -8.1297 H   0  0  0  0  0  0  0  0  0  0  0  0
   10.7685   -2.2898   -6.5862 H   0  0  0  0  0  0  0  0  0  0  0  0
    9.8421   -3.5890   -5.8035 H   0  0  0  0  0  0  0  0  0  0  0  0
   10.7379    2.7609   -1.9777 H   0  0  0  0  0  0  0  0  0  0  0  0
   11.2691    5.0543   -1.3360 H   0  0  0  0  0  0  0  0  0  0  0  0
   10.6734    6.9473   -2.8234 H   0  0  0  0  0  0  0  0  0  0  0  0
    9.5572    6.4954   -4.9930 H   0  0  0  0  0  0  0  0  0  0  0  0
    9.1326    4.1840   -5.7241 H   0  0  0  0  0  0  0  0  0  0  0  0
   12.2727    1.7719   -3.2642 H   0  0  0  0  0  0  0  0  0  0  0  0
   13.4319   -0.2116   -2.4748 H   0  0  0  0  0  0  0  0  0  0  0  0
   12.4225   -2.4561   -2.8133 H   0  0  0  0  0  0  0  0  0  0  0  0
   10.3370   -2.6705   -4.0405 H   0  0  0  0  0  0  0  0  0  0  0  0
    6.6904   -1.3228   -6.4830 H   0  0  0  0  0  0  0  0  0  0  0  0
    6.9849   -2.8362   -5.6301 H   0  0  0  0  0  0  0  0  0  0  0  0
    7.2535   -2.2214   -8.6073 H   0  0  0  0  0  0  0  0  0  0  0  0
    6.1865   -3.3820   -7.8619 H   0  0  0  0  0  0  0  0  0  0  0  0
   11.7046  -10.1580   -6.9038 H   0  0  0  0  0  0  0  0  0  0  0  0
   13.3847  -11.7014   -5.9640 H   0  0  0  0  0  0  0  0  0  0  0  0
  1  2  1  0  0  0  0
  1 40  1  0  0  0  0
  1 41  1  0  0  0  0
  1 42  1  0  0  0  0
  2  3  1  0  0  0  0
  3  4  1  0  0  0  0
  3 39  2  0  0  0  0
  4  5  2  0  0  0  0
  4 43  1  0  0  0  0
  5  6  1  0  0  0  0
  5 44  1  0  0  0  0
  6  7  1  0  0  0  0
  6 38  2  0  0  0  0
  7  8  2  0  0  0  0
  7 37  1  0  0  0  0
  8  9  1  0  0  0  0
  8 45  1  0  0  0  0
  9 10  1  0  0  0  0
 10 11  1  0  0  0  0
 10 37  2  0  0  0  0
 11 12  1  0  0  0  0
 11 46  1  0  0  0  0
 12 13  2  0  0  0  0
 12 14  1  0  0  0  0
 14 15  1  0  0  0  0
 14 47  1  0  0  0  0
 14 48  1  0  0  0  0
 15 16  1  0  0  0  0
 15 36  1  0  0  0  0
 16 17  1  0  0  0  0
 16 49  1  0  0  0  0
 16 50  1  0  0  0  0
 17 18  1  0  0  0  0
 17 51  1  0  0  0  0
 17 52  1  0  0  0  0
 18 19  1  0  0  0  0
 18 35  1  0  0  0  0
 19 20  1  0  0  0  0
 19 34  2  0  0  0  0
 20 21  2  0  0  0  0
 21 22  1  0  0  0  0
 22 23  1  0  0  0  0
 22 29  2  0  0  0  0
 23 24  1  0  0  0  0
 23 28  2  0  0  0  0
 24 25  2  0  0  0  0
 24 53  1  0  0  0  0
 25 26  1  0  0  0  0
 25 54  1  0  0  0  0
 26 27  2  0  0  0  0
 26 55  1  0  0  0  0
 27 28  1  0  0  0  0
 27 56  1  0  0  0  0
 28 57  1  0  0  0  0
 29 30  1  0  0  0  0
 29 34  1  0  0  0  0
 30 31  2  0  0  0  0
 30 58  1  0  0  0  0
 31 32  1  0  0  0  0
 31 59  1  0  0  0  0
 32 33  2  0  0  0  0
 32 60  1  0  0  0  0
 33 34  1  0  0  0  0
 33 61  1  0  0  0  0
 35 36  1  0  0  0  0
 35 62  1  0  0  0  0
 35 63  1  0  0  0  0
 36 64  1  0  0  0  0
 36 65  1  0  0  0  0
 38 39  1  0  0  0  0
 38 66  1  0  0  0  0
 39 67  1  0  0  0  0
M  END
$$$$
