CHEMBL3690373
 OpenBabel04072215373D

 50 54  0  0  0  0  0  0  0  0999 V2000
    2.6063    1.2868   -0.5571 O   0  0  0  0  0  0  0  0  0  0  0  0
    2.4732    0.0765   -0.6979 C   0  0  0  0  0  0  0  0  0  0  0  0
    1.4050   -0.4456   -1.3923 N   0  0  0  0  0  0  0  0  0  0  0  0
    0.3424    0.4641   -1.8352 C   0  0  0  0  0  0  0  0  0  0  0  0
   -0.7036    0.8097   -0.7658 C   0  0  0  0  0  0  0  0  0  0  0  0
   -0.4916    0.1287    0.3851 F   0  0  0  0  0  0  0  0  0  0  0  0
   -0.7323    2.1261   -0.4769 F   0  0  0  0  0  0  0  0  0  0  0  0
   -1.9405    0.4615   -1.2008 F   0  0  0  0  0  0  0  0  0  0  0  0
    3.3154   -0.9130   -0.2418 N   0  0  0  0  0  0  0  0  0  0  0  0
    4.5264   -0.7438    0.4680 C   0  0  0  0  0  0  0  0  0  0  0  0
    5.0479    0.5056    0.7976 C   0  0  0  0  0  0  0  0  0  0  0  0
    6.2884    0.6109    1.4193 C   0  0  0  0  0  0  0  0  0  0  0  0
    7.0071   -0.5371    1.7404 C   0  0  0  0  0  0  0  0  0  0  0  0
    6.4659   -1.8111    1.5270 C   0  0  0  0  0  0  0  0  0  0  0  0
    7.1501   -3.0226    2.0073 C   0  0  0  0  0  0  0  0  0  0  0  0
    7.2189   -4.2925    1.4547 C   0  0  0  0  0  0  0  0  0  0  0  0
    7.9412   -5.1626    2.2306 N   0  0  0  0  0  0  0  0  0  0  0  0
    8.3187   -4.4629    3.2779 C   0  0  0  0  0  0  0  0  0  0  0  0
    9.0631   -4.8471    4.4377 C   0  0  0  0  0  0  0  0  0  0  0  0
    9.2983   -3.9653    5.4418 C   0  0  0  0  0  0  0  0  0  0  0  0
    9.9717   -4.4467    6.6228 C   0  0  0  0  0  0  0  0  0  0  0  0
   10.8516   -5.4446    6.7044 N   0  0  0  0  0  0  0  0  0  0  0  0
   11.2535   -5.5695    8.0012 C   0  0  0  0  0  0  0  0  0  0  0  0
   10.6886   -4.7211    8.9037 C   0  0  0  0  0  0  0  0  0  0  0  0
    9.6029   -3.6895    8.1861 S   0  0  0  0  0  0  0  0  0  0  0  0
   11.1589   -4.9054   10.2874 C   0  0  0  0  0  0  0  0  0  0  0  0
   12.4085   -5.8134   10.0441 C   0  0  0  0  0  0  0  0  0  0  0  0
   12.2217   -6.4857    8.6395 C   0  0  0  0  0  0  0  0  0  0  0  0
    8.8184   -2.5848    5.2920 C   0  0  0  0  0  0  0  0  0  0  0  0
    8.0916   -2.2292    4.2252 C   0  0  0  0  0  0  0  0  0  0  0  0
    7.8491   -3.1517    3.2084 N   0  0  0  0  0  0  0  0  0  0  0  0
    5.2354   -1.8982    0.8499 C   0  0  0  0  0  0  0  0  0  0  0  0
    1.1062   -1.3675   -1.1044 H   0  0  0  0  0  0  0  0  0  0  0  0
   -0.1448   -0.0250   -2.6842 H   0  0  0  0  0  0  0  0  0  0  0  0
    0.7974    1.3883   -2.2116 H   0  0  0  0  0  0  0  0  0  0  0  0
    3.0810   -1.8549   -0.5081 H   0  0  0  0  0  0  0  0  0  0  0  0
    4.5265    1.4279    0.5635 H   0  0  0  0  0  0  0  0  0  0  0  0
    6.6949    1.5925    1.6484 H   0  0  0  0  0  0  0  0  0  0  0  0
    7.9966   -0.4100    2.1701 H   0  0  0  0  0  0  0  0  0  0  0  0
    6.7811   -4.6259    0.5228 H   0  0  0  0  0  0  0  0  0  0  0  0
    9.3914   -5.8810    4.4973 H   0  0  0  0  0  0  0  0  0  0  0  0
   10.4095   -5.4321   10.8868 H   0  0  0  0  0  0  0  0  0  0  0  0
   11.4350   -3.9699   10.7814 H   0  0  0  0  0  0  0  0  0  0  0  0
   12.5489   -6.5470   10.8436 H   0  0  0  0  0  0  0  0  0  0  0  0
   13.3044   -5.1786   10.0168 H   0  0  0  0  0  0  0  0  0  0  0  0
   11.7908   -7.4857    8.7498 H   0  0  0  0  0  0  0  0  0  0  0  0
   13.1706   -6.5488    8.1014 H   0  0  0  0  0  0  0  0  0  0  0  0
    9.0503   -1.8524    6.0586 H   0  0  0  0  0  0  0  0  0  0  0  0
    7.6923   -1.2308    4.1363 H   0  0  0  0  0  0  0  0  0  0  0  0
    4.8173   -2.8796    0.6341 H   0  0  0  0  0  0  0  0  0  0  0  0
  1  2  2  0  0  0  0
  2  3  1  0  0  0  0
  2  9  1  0  0  0  0
  3  4  1  0  0  0  0
  3 33  1  0  0  0  0
  4  5  1  0  0  0  0
  4 34  1  0  0  0  0
  4 35  1  0  0  0  0
  5  6  1  0  0  0  0
  5  7  1  0  0  0  0
  5  8  1  0  0  0  0
  9 10  1  0  0  0  0
  9 36  1  0  0  0  0
 10 11  1  0  0  0  0
 10 32  2  0  0  0  0
 11 12  2  0  0  0  0
 11 37  1  0  0  0  0
 12 13  1  0  0  0  0
 12 38  1  0  0  0  0
 13 14  2  0  0  0  0
 13 39  1  0  0  0  0
 14 15  1  0  0  0  0
 14 32  1  0  0  0  0
 15 16  2  0  0  0  0
 15 31  1  0  0  0  0
 16 17  1  0  0  0  0
 16 40  1  0  0  0  0
 17 18  2  0  0  0  0
 18 19  1  0  0  0  0
 18 31  1  0  0  0  0
 19 20  2  0  0  0  0
 19 41  1  0  0  0  0
 20 21  1  0  0  0  0
 20 29  1  0  0  0  0
 21 22  2  0  0  0  0
 21 25  1  0  0  0  0
 22 23  1  0  0  0  0
 23 24  2  0  0  0  0
 23 28  1  0  0  0  0
 24 25  1  0  0  0  0
 24 26  1  0  0  0  0
 26 27  1  0  0  0  0
 26 42  1  0  0  0  0
 26 43  1  0  0  0  0
 27 28  1  0  0  0  0
 27 44  1  0  0  0  0
 27 45  1  0  0  0  0
 28 46  1  0  0  0  0
 28 47  1  0  0  0  0
 29 30  2  0  0  0  0
 29 48  1  0  0  0  0
 30 31  1  0  0  0  0
 30 49  1  0  0  0  0
 32 50  1  0  0  0  0
M  END
$$$$
