CHEMBL94678
 OpenBabel04072215383D

 56 63  0  0  1  0  0  0  0  0999 V2000
    1.3907   -0.3449    0.3139 C   0  0  0  0  0  0  0  0  0  0  0  0
    2.7898   -0.0012    0.1931 O   0  0  0  0  0  0  0  0  0  0  0  0
    3.4994   -0.6961   -0.7120 C   0  0  0  0  0  0  0  0  0  0  0  0
    3.1078   -1.8347   -1.0679 O   0  0  0  0  0  0  0  0  0  0  0  0
    4.7417   -0.0390   -1.4641 C   0  0  2  0  0  0  0  0  0  0  0  0
    5.6239   -1.1873   -1.6347 O   0  0  0  0  0  0  0  0  0  0  0  0
    5.6869    1.3048   -1.7010 C   0  0  0  0  0  0  0  0  0  0  0  0
    5.5425    1.8199   -3.3579 C   0  0  1  0  0  0  0  0  0  0  0  0
    5.0886    0.5520   -3.6302 O   0  0  0  0  0  0  0  0  0  0  0  0
    3.9500    0.3865   -2.6588 C   0  0  1  0  0  0  0  0  0  0  0  0
    3.2237   -0.5906   -3.6009 C   0  0  0  0  0  0  0  0  0  0  0  0
    3.2283    1.6841   -2.0917 N   0  0  0  0  0  0  0  0  0  0  0  0
    3.1272    2.5105   -0.8719 C   0  0  0  0  0  0  0  0  0  0  0  0
    3.7443    2.4895    0.4213 C   0  0  0  0  0  0  0  0  0  0  0  0
    3.6554    3.5767    1.3287 C   0  0  0  0  0  0  0  0  0  0  0  0
    2.9315    4.7092    1.0142 C   0  0  0  0  0  0  0  0  0  0  0  0
    2.2278    4.7716   -0.1785 C   0  0  0  0  0  0  0  0  0  0  0  0
    2.2827    3.7176   -1.1237 C   0  0  0  0  0  0  0  0  0  0  0  0
    1.8460    3.6307   -2.4258 C   0  0  0  0  0  0  0  0  0  0  0  0
    1.2398    4.6002   -3.2473 C   0  0  0  0  0  0  0  0  0  0  0  0
    1.3234    4.2840   -4.6029 C   0  0  0  0  0  0  0  0  0  0  0  0
    2.4779    3.5048   -4.8547 C   0  0  0  0  0  0  0  0  0  0  0  0
    2.8065    2.6563   -5.8854 C   0  0  0  0  0  0  0  0  0  0  0  0
    2.0756    2.0141   -6.9070 C   0  0  0  0  0  0  0  0  0  0  0  0
    2.7813    1.4714   -7.9603 C   0  0  0  0  0  0  0  0  0  0  0  0
    4.1692    1.5988   -7.9797 C   0  0  0  0  0  0  0  0  0  0  0  0
    4.9314    1.9740   -6.8367 C   0  0  0  0  0  0  0  0  0  0  0  0
    4.2534    2.3578   -5.6690 C   0  0  0  0  0  0  0  0  0  0  0  0
    4.6000    2.5087   -4.2584 N   0  0  0  0  0  0  0  0  0  0  0  0
    3.3870    3.0007   -3.9456 C   0  0  0  0  0  0  0  0  0  0  0  0
    2.6859    2.6318   -2.8444 C   0  0  0  0  0  0  0  0  0  0  0  0
    0.5175    5.1289   -5.3858 C   0  0  0  0  0  0  0  0  0  0  0  0
    0.2468    5.2293   -6.5719 O   0  0  0  0  0  0  0  0  0  0  0  0
    0.0355    6.0432   -4.4196 N   0  0  0  0  0  0  0  0  0  0  0  0
    0.5531    5.8785   -3.0649 C   0  0  0  0  0  0  0  0  0  0  0  0
    0.9826    0.1711    1.1844 H   0  0  0  0  0  0  0  0  0  0  0  0
    1.2300   -1.4197    0.4378 H   0  0  0  0  0  0  0  0  0  0  0  0
    0.8448    0.0107   -0.5711 H   0  0  0  0  0  0  0  0  0  0  0  0
    5.0775   -2.0006   -1.5559 H   0  0  0  0  0  0  0  0  0  0  0  0
    6.7236    0.9443   -1.6050 H   0  0  0  0  0  0  0  0  0  0  0  0
    5.6210    2.1295   -0.9982 H   0  0  0  0  0  0  0  0  0  0  0  0
    6.5522    2.0670   -3.7093 H   0  0  0  0  0  0  0  0  0  0  0  0
    3.7508   -1.5641   -3.5958 H   0  0  0  0  0  0  0  0  0  0  0  0
    3.3665   -0.2849   -4.6618 H   0  0  0  0  0  0  0  0  0  0  0  0
    2.1693   -0.7228   -3.4435 H   0  0  0  0  0  0  0  0  0  0  0  0
    4.3710    1.6626    0.7435 H   0  0  0  0  0  0  0  0  0  0  0  0
    4.2046    3.5387    2.2613 H   0  0  0  0  0  0  0  0  0  0  0  0
    2.9289    5.5646    1.6881 H   0  0  0  0  0  0  0  0  0  0  0  0
    1.7018    5.6925   -0.4251 H   0  0  0  0  0  0  0  0  0  0  0  0
    0.9865    1.9608   -6.8602 H   0  0  0  0  0  0  0  0  0  0  0  0
    2.2235    1.0153   -8.7801 H   0  0  0  0  0  0  0  0  0  0  0  0
    4.6614    1.4059   -8.9282 H   0  0  0  0  0  0  0  0  0  0  0  0
    5.9976    2.0527   -6.9114 H   0  0  0  0  0  0  0  0  0  0  0  0
   -0.4299    6.8745   -4.7519 H   0  0  0  0  0  0  0  0  0  0  0  0
   -0.2549    5.8764   -2.3390 H   0  0  0  0  0  0  0  0  0  0  0  0
    1.2858    6.6746   -2.8794 H   0  0  0  0  0  0  0  0  0  0  0  0
  1  2  1  0  0  0  0
  1 36  1  0  0  0  0
  1 37  1  0  0  0  0
  1 38  1  0  0  0  0
  2  3  1  0  0  0  0
  3  4  2  0  0  0  0
  5  3  1  1  0  0  0
  5  6  1  0  0  0  0
  5  7  1  0  0  0  0
  5 10  1  0  0  0  0
  6 39  1  0  0  0  0
  7  8  1  0  0  0  0
  7 40  1  0  0  0  0
  7 41  1  0  0  0  0
  8  9  1  0  0  0  0
  8 29  1  0  0  0  0
  8 42  1  6  0  0  0
  9 10  1  0  0  0  0
 10 11  1  6  0  0  0
 10 12  1  0  0  0  0
 11 43  1  0  0  0  0
 11 44  1  0  0  0  0
 11 45  1  0  0  0  0
 12 13  1  0  0  0  0
 12 31  1  0  0  0  0
 13 14  1  0  0  0  0
 13 18  2  0  0  0  0
 14 15  2  0  0  0  0
 14 46  1  0  0  0  0
 15 16  1  0  0  0  0
 15 47  1  0  0  0  0
 16 17  2  0  0  0  0
 16 48  1  0  0  0  0
 17 18  1  0  0  0  0
 17 49  1  0  0  0  0
 18 19  1  0  0  0  0
 19 20  1  0  0  0  0
 19 31  2  0  0  0  0
 20 21  2  0  0  0  0
 20 35  1  0  0  0  0
 21 22  1  0  0  0  0
 21 32  1  0  0  0  0
 22 23  1  0  0  0  0
 22 30  2  0  0  0  0
 23 24  1  0  0  0  0
 23 28  2  0  0  0  0
 24 25  2  0  0  0  0
 24 50  1  0  0  0  0
 25 26  1  0  0  0  0
 25 51  1  0  0  0  0
 26 27  2  0  0  0  0
 26 52  1  0  0  0  0
 27 28  1  0  0  0  0
 27 53  1  0  0  0  0
 28 29  1  0  0  0  0
 29 30  1  0  0  0  0
 30 31  1  0  0  0  0
 32 33  2  0  0  0  0
 32 34  1  0  0  0  0
 34 35  1  0  0  0  0
 34 54  1  0  0  0  0
 35 55  1  0  0  0  0
 35 56  1  0  0  0  0
M  END
$$$$
