CHEMBL428534
 OpenBabel04072215383D

 54 57  0  0  0  0  0  0  0  0999 V2000
    3.0056    0.8213    0.9376 C   0  0  0  0  0  0  0  0  0  0  0  0
    2.5823    0.3432   -0.3334 O   0  0  0  0  0  0  0  0  0  0  0  0
    3.1392   -0.7705   -0.8928 C   0  0  0  0  0  0  0  0  0  0  0  0
    4.1120   -1.5093   -0.2269 C   0  0  0  0  0  0  0  0  0  0  0  0
    4.7357   -2.6181   -0.8220 C   0  0  0  0  0  0  0  0  0  0  0  0
    5.7427   -3.3412   -0.1759 C   0  0  0  0  0  0  0  0  0  0  0  0
    6.0735   -3.0238    1.1771 N   0  0  0  0  0  0  0  0  0  0  0  0
    7.2885   -3.4074    1.7834 C   0  0  0  0  0  0  0  0  0  0  0  0
    8.5014   -3.1648    1.1347 C   0  0  0  0  0  0  0  0  0  0  0  0
    9.6878   -3.7095    1.6213 C   0  0  0  0  0  0  0  0  0  0  0  0
    9.6818   -4.4917    2.7802 C   0  0  0  0  0  0  0  0  0  0  0  0
   10.9118   -5.2450    3.1889 C   0  0  0  0  0  0  0  0  0  0  0  0
    8.4942   -4.6176    3.5128 C   0  0  0  0  0  0  0  0  0  0  0  0
    7.3133   -4.0702    3.0151 C   0  0  0  0  0  0  0  0  0  0  0  0
    6.1714   -4.2436    3.7008 F   0  0  0  0  0  0  0  0  0  0  0  0
    6.3928   -4.3377   -0.7989 N   0  0  0  0  0  0  0  0  0  0  0  0
    6.0089   -4.6178   -2.0447 C   0  0  0  0  0  0  0  0  0  0  0  0
    5.0291   -4.0146   -2.7335 N   0  0  0  0  0  0  0  0  0  0  0  0
    4.4041   -3.0015   -2.1171 C   0  0  0  0  0  0  0  0  0  0  0  0
    3.3944   -2.2908   -2.7691 C   0  0  0  0  0  0  0  0  0  0  0  0
    2.7531   -1.1845   -2.1846 C   0  0  0  0  0  0  0  0  0  0  0  0
    1.8010   -0.6143   -3.0156 O   0  0  0  0  0  0  0  0  0  0  0  0
    1.0971    0.5074   -2.4868 C   0  0  0  0  0  0  0  0  0  0  0  0
    0.0551    1.1089   -3.4490 C   0  0  0  0  0  0  0  0  0  0  0  0
    0.6524    1.6169   -4.7702 C   0  0  0  0  0  0  0  0  0  0  0  0
    1.5040    2.8719   -4.5741 C   0  0  0  0  0  0  0  0  0  0  0  0
    0.7439    3.9442   -3.9256 N   0  0  0  0  0  0  0  0  0  0  0  0
    0.2320    3.5212   -2.6224 C   0  0  0  0  0  0  0  0  0  0  0  0
   -0.6570    2.2770   -2.7337 C   0  0  0  0  0  0  0  0  0  0  0  0
    2.9588    1.9142    0.9081 H   0  0  0  0  0  0  0  0  0  0  0  0
    4.0341    0.5807    1.2145 H   0  0  0  0  0  0  0  0  0  0  0  0
    2.3129    0.4657    1.7054 H   0  0  0  0  0  0  0  0  0  0  0  0
    4.4560   -1.2283    0.7578 H   0  0  0  0  0  0  0  0  0  0  0  0
    5.2784   -3.2669    1.7713 H   0  0  0  0  0  0  0  0  0  0  0  0
    8.5146   -2.5949    0.2093 H   0  0  0  0  0  0  0  0  0  0  0  0
   10.6029   -3.5598    1.0534 H   0  0  0  0  0  0  0  0  0  0  0  0
   11.7262   -5.0907    2.4723 H   0  0  0  0  0  0  0  0  0  0  0  0
   10.6919   -6.3187    3.2009 H   0  0  0  0  0  0  0  0  0  0  0  0
   11.2553   -4.9302    4.1761 H   0  0  0  0  0  0  0  0  0  0  0  0
    8.4662   -5.1840    4.4393 H   0  0  0  0  0  0  0  0  0  0  0  0
    6.5476   -5.4125   -2.5504 H   0  0  0  0  0  0  0  0  0  0  0  0
    3.1142   -2.5999   -3.7756 H   0  0  0  0  0  0  0  0  0  0  0  0
    1.8219    1.2872   -2.2441 H   0  0  0  0  0  0  0  0  0  0  0  0
    0.5532    0.1829   -1.5910 H   0  0  0  0  0  0  0  0  0  0  0  0
   -0.6794    0.3290   -3.6906 H   0  0  0  0  0  0  0  0  0  0  0  0
   -0.1701    1.8584   -5.4583 H   0  0  0  0  0  0  0  0  0  0  0  0
    1.2436    0.8341   -5.2575 H   0  0  0  0  0  0  0  0  0  0  0  0
    1.8515    3.2321   -5.5488 H   0  0  0  0  0  0  0  0  0  0  0  0
    2.4047    2.6458   -3.9925 H   0  0  0  0  0  0  0  0  0  0  0  0
   -0.0435    4.1970   -4.5235 H   0  0  0  0  0  0  0  0  0  0  0  0
   -0.3482    4.3423   -2.1871 H   0  0  0  0  0  0  0  0  0  0  0  0
    1.0685    3.3493   -1.9352 H   0  0  0  0  0  0  0  0  0  0  0  0
   -1.5715    2.5357   -3.2800 H   0  0  0  0  0  0  0  0  0  0  0  0
   -0.9711    1.9692   -1.7279 H   0  0  0  0  0  0  0  0  0  0  0  0
  1  2  1  0  0  0  0
  1 30  1  0  0  0  0
  1 31  1  0  0  0  0
  1 32  1  0  0  0  0
  2  3  1  0  0  0  0
  3  4  1  0  0  0  0
  3 21  2  0  0  0  0
  4  5  2  0  0  0  0
  4 33  1  0  0  0  0
  5  6  1  0  0  0  0
  5 19  1  0  0  0  0
  6  7  1  0  0  0  0
  6 16  2  0  0  0  0
  7  8  1  0  0  0  0
  7 34  1  0  0  0  0
  8  9  1  0  0  0  0
  8 14  2  0  0  0  0
  9 10  2  0  0  0  0
  9 35  1  0  0  0  0
 10 11  1  0  0  0  0
 10 36  1  0  0  0  0
 11 12  1  0  0  0  0
 11 13  2  0  0  0  0
 12 37  1  0  0  0  0
 12 38  1  0  0  0  0
 12 39  1  0  0  0  0
 13 14  1  0  0  0  0
 13 40  1  0  0  0  0
 14 15  1  0  0  0  0
 16 17  1  0  0  0  0
 17 18  2  0  0  0  0
 17 41  1  0  0  0  0
 18 19  1  0  0  0  0
 19 20  2  0  0  0  0
 20 21  1  0  0  0  0
 20 42  1  0  0  0  0
 21 22  1  0  0  0  0
 22 23  1  0  0  0  0
 23 24  1  0  0  0  0
 23 43  1  0  0  0  0
 23 44  1  0  0  0  0
 24 25  1  0  0  0  0
 24 29  1  0  0  0  0
 24 45  1  0  0  0  0
 25 26  1  0  0  0  0
 25 46  1  0  0  0  0
 25 47  1  0  0  0  0
 26 27  1  0  0  0  0
 26 48  1  0  0  0  0
 26 49  1  0  0  0  0
 27 28  1  0  0  0  0
 27 50  1  0  0  0  0
 28 29  1  0  0  0  0
 28 51  1  0  0  0  0
 28 52  1  0  0  0  0
 29 53  1  0  0  0  0
 29 54  1  0  0  0  0
M  END
$$$$
