CHEMBL189325
 OpenBabel04072215363D

 85 88  0  0  0  0  0  0  0  0999 V2000
    1.2492    4.5395    2.2734 C   0  0  0  0  0  0  0  0  0  0  0  0
    2.6227    4.2761    2.0187 O   0  0  0  0  0  0  0  0  0  0  0  0
    2.9077    3.5412    0.8979 C   0  0  0  0  0  0  0  0  0  0  0  0
    1.9701    2.9255    0.0696 C   0  0  0  0  0  0  0  0  0  0  0  0
    2.4009    2.2270   -1.0519 C   0  0  0  0  0  0  0  0  0  0  0  0
    1.5741    1.6463   -1.9784 O   0  0  0  0  0  0  0  0  0  0  0  0
    0.3152    2.2901   -2.1627 C   0  0  0  0  0  0  0  0  0  0  0  0
    3.7698    2.0892   -1.3027 C   0  0  0  0  0  0  0  0  0  0  0  0
    4.7446    2.7349   -0.5134 C   0  0  0  0  0  0  0  0  0  0  0  0
    6.1732    2.7565   -0.9341 C   0  0  0  0  0  0  0  0  0  0  0  0
    6.4545    2.7951   -2.3124 C   0  0  0  0  0  0  0  0  0  0  0  0
    7.7626    2.8305   -2.7994 C   0  0  0  0  0  0  0  0  0  0  0  0
    8.0418    2.7668   -4.1601 C   0  0  0  0  0  0  0  0  0  0  0  0
    9.2849    2.7324   -4.6724 N   0  0  0  0  0  0  0  0  0  0  0  0
   10.3138    2.7736   -3.8090 C   0  0  0  0  0  0  0  0  0  0  0  0
   11.6218    2.7012   -4.3515 N   0  0  0  0  0  0  0  0  0  0  0  0
   11.9434    3.3616   -5.6210 C   0  0  0  0  0  0  0  0  0  0  0  0
   11.0485    4.4567   -6.2188 C   0  0  0  0  0  0  0  0  0  0  0  0
   10.7855    5.6737   -5.3338 C   0  0  0  0  0  0  0  0  0  0  0  0
   12.0644    6.3668   -4.9093 C   0  0  0  0  0  0  0  0  0  0  0  0
   11.7494    7.5064   -4.1242 O   0  0  0  0  0  0  0  0  0  0  0  0
   12.9400    8.1604   -3.6804 C   0  0  0  0  0  0  0  0  0  0  0  0
   12.5834    9.3340   -2.8212 C   0  0  0  0  0  0  0  0  0  0  0  0
   13.0270    9.4065   -1.4939 C   0  0  0  0  0  0  0  0  0  0  0  0
   12.7217   10.5169   -0.7084 C   0  0  0  0  0  0  0  0  0  0  0  0
   11.9702   11.5637   -1.2413 C   0  0  0  0  0  0  0  0  0  0  0  0
   11.5187   11.4975   -2.5592 C   0  0  0  0  0  0  0  0  0  0  0  0
   11.8237   10.3881   -3.3456 C   0  0  0  0  0  0  0  0  0  0  0  0
   12.5511    1.7264   -3.9717 C   0  0  0  0  0  0  0  0  0  0  0  0
   12.1847    0.6839   -2.9426 C   0  0  0  0  0  0  0  0  0  0  0  0
   13.6723    1.6612   -4.4917 O   0  0  0  0  0  0  0  0  0  0  0  0
   10.1090    2.9083   -2.4301 C   0  0  0  0  0  0  0  0  0  0  0  0
    8.8185    2.9192   -1.8948 C   0  0  0  0  0  0  0  0  0  0  0  0
    8.5837    2.9857   -0.5595 N   0  0  0  0  0  0  0  0  0  0  0  0
    7.3048    2.8312   -0.0978 C   0  0  0  0  0  0  0  0  0  0  0  0
    7.1837    2.7888    1.3173 N   0  0  0  0  0  0  0  0  0  0  0  0
    7.1693    1.5389    1.9194 C   0  0  0  0  0  0  0  0  0  0  0  0
    7.2424    0.4742    1.3128 O   0  0  0  0  0  0  0  0  0  0  0  0
    7.1213    1.6406    3.3033 N   0  0  0  0  0  0  0  0  0  0  0  0
    7.2485    0.4788    4.2173 C   0  0  0  0  0  0  0  0  0  0  0  0
    8.6584   -0.1288    4.1072 C   0  0  0  0  0  0  0  0  0  0  0  0
    7.0579    0.9382    5.6797 C   0  0  0  0  0  0  0  0  0  0  0  0
    6.1900   -0.5999    3.9328 C   0  0  0  0  0  0  0  0  0  0  0  0
    4.2738    3.4554    0.5940 C   0  0  0  0  0  0  0  0  0  0  0  0
    1.1903    5.1886    3.1521 H   0  0  0  0  0  0  0  0  0  0  0  0
    0.7087    3.6155    2.5031 H   0  0  0  0  0  0  0  0  0  0  0  0
    0.7870    5.0710    1.4346 H   0  0  0  0  0  0  0  0  0  0  0  0
    0.9118    2.9799    0.2887 H   0  0  0  0  0  0  0  0  0  0  0  0
   -0.0454    2.0434   -3.1663 H   0  0  0  0  0  0  0  0  0  0  0  0
    0.3892    3.3825   -2.1030 H   0  0  0  0  0  0  0  0  0  0  0  0
   -0.4103    1.9107   -1.4370 H   0  0  0  0  0  0  0  0  0  0  0  0
    4.0598    1.4958   -2.1684 H   0  0  0  0  0  0  0  0  0  0  0  0
    5.6401    2.7943   -3.0354 H   0  0  0  0  0  0  0  0  0  0  0  0
    7.2482    2.7151   -4.9016 H   0  0  0  0  0  0  0  0  0  0  0  0
   12.0678    2.5745   -6.3765 H   0  0  0  0  0  0  0  0  0  0  0  0
   12.9472    3.7913   -5.4930 H   0  0  0  0  0  0  0  0  0  0  0  0
   10.0985    4.0336   -6.5613 H   0  0  0  0  0  0  0  0  0  0  0  0
   11.5439    4.8109   -7.1333 H   0  0  0  0  0  0  0  0  0  0  0  0
   10.1983    5.4113   -4.4494 H   0  0  0  0  0  0  0  0  0  0  0  0
   10.1582    6.3854   -5.8864 H   0  0  0  0  0  0  0  0  0  0  0  0
   12.6288    6.6831   -5.7997 H   0  0  0  0  0  0  0  0  0  0  0  0
   12.6972    5.6900   -4.3167 H   0  0  0  0  0  0  0  0  0  0  0  0
   13.5191    8.5055   -4.5484 H   0  0  0  0  0  0  0  0  0  0  0  0
   13.5595    7.4464   -3.1208 H   0  0  0  0  0  0  0  0  0  0  0  0
   13.6126    8.5968   -1.0649 H   0  0  0  0  0  0  0  0  0  0  0  0
   13.0705   10.5660    0.3194 H   0  0  0  0  0  0  0  0  0  0  0  0
   11.7343   12.4292   -0.6304 H   0  0  0  0  0  0  0  0  0  0  0  0
   10.9280   12.3093   -2.9742 H   0  0  0  0  0  0  0  0  0  0  0  0
   11.4634   10.3384   -4.3714 H   0  0  0  0  0  0  0  0  0  0  0  0
   11.1194    0.4528   -2.9207 H   0  0  0  0  0  0  0  0  0  0  0  0
   12.5338    1.0105   -1.9604 H   0  0  0  0  0  0  0  0  0  0  0  0
   12.6971   -0.2494   -3.2034 H   0  0  0  0  0  0  0  0  0  0  0  0
   10.9514    3.0146   -1.7549 H   0  0  0  0  0  0  0  0  0  0  0  0
    7.9300    3.3208    1.7450 H   0  0  0  0  0  0  0  0  0  0  0  0
    6.5712    2.4215    3.6323 H   0  0  0  0  0  0  0  0  0  0  0  0
    9.4251    0.6137    4.3578 H   0  0  0  0  0  0  0  0  0  0  0  0
    8.8711   -0.4885    3.0949 H   0  0  0  0  0  0  0  0  0  0  0  0
    8.7804   -0.9770    4.7905 H   0  0  0  0  0  0  0  0  0  0  0  0
    7.8064    1.6819    5.9735 H   0  0  0  0  0  0  0  0  0  0  0  0
    7.1480    0.0908    6.3733 H   0  0  0  0  0  0  0  0  0  0  0  0
    6.0688    1.3839    5.8332 H   0  0  0  0  0  0  0  0  0  0  0  0
    6.3209   -1.0593    2.9491 H   0  0  0  0  0  0  0  0  0  0  0  0
    5.1792   -0.1800    3.9733 H   0  0  0  0  0  0  0  0  0  0  0  0
    6.2467   -1.4107    4.6696 H   0  0  0  0  0  0  0  0  0  0  0  0
    4.9635    4.0049    1.2302 H   0  0  0  0  0  0  0  0  0  0  0  0
  1  2  1  0  0  0  0
  1 45  1  0  0  0  0
  1 46  1  0  0  0  0
  1 47  1  0  0  0  0
  2  3  1  0  0  0  0
  3  4  1  0  0  0  0
  3 44  2  0  0  0  0
  4  5  2  0  0  0  0
  4 48  1  0  0  0  0
  5  6  1  0  0  0  0
  5  8  1  0  0  0  0
  6  7  1  0  0  0  0
  7 49  1  0  0  0  0
  7 50  1  0  0  0  0
  7 51  1  0  0  0  0
  8  9  2  0  0  0  0
  8 52  1  0  0  0  0
  9 10  1  0  0  0  0
  9 44  1  0  0  0  0
 10 11  1  0  0  0  0
 10 35  2  0  0  0  0
 11 12  2  0  0  0  0
 11 53  1  0  0  0  0
 12 13  1  0  0  0  0
 12 33  1  0  0  0  0
 13 14  2  0  0  0  0
 13 54  1  0  0  0  0
 14 15  1  0  0  0  0
 15 16  1  0  0  0  0
 15 32  2  0  0  0  0
 16 17  1  0  0  0  0
 16 29  1  0  0  0  0
 17 18  1  0  0  0  0
 17 55  1  0  0  0  0
 17 56  1  0  0  0  0
 18 19  1  0  0  0  0
 18 57  1  0  0  0  0
 18 58  1  0  0  0  0
 19 20  1  0  0  0  0
 19 59  1  0  0  0  0
 19 60  1  0  0  0  0
 20 21  1  0  0  0  0
 20 61  1  0  0  0  0
 20 62  1  0  0  0  0
 21 22  1  0  0  0  0
 22 23  1  0  0  0  0
 22 63  1  0  0  0  0
 22 64  1  0  0  0  0
 23 24  1  0  0  0  0
 23 28  2  0  0  0  0
 24 25  2  0  0  0  0
 24 65  1  0  0  0  0
 25 26  1  0  0  0  0
 25 66  1  0  0  0  0
 26 27  2  0  0  0  0
 26 67  1  0  0  0  0
 27 28  1  0  0  0  0
 27 68  1  0  0  0  0
 28 69  1  0  0  0  0
 29 30  1  0  0  0  0
 29 31  2  0  0  0  0
 30 70  1  0  0  0  0
 30 71  1  0  0  0  0
 30 72  1  0  0  0  0
 32 33  1  0  0  0  0
 32 73  1  0  0  0  0
 33 34  2  0  0  0  0
 34 35  1  0  0  0  0
 35 36  1  0  0  0  0
 36 37  1  0  0  0  0
 36 74  1  0  0  0  0
 37 38  2  0  0  0  0
 37 39  1  0  0  0  0
 39 40  1  0  0  0  0
 39 75  1  0  0  0  0
 40 41  1  0  0  0  0
 40 42  1  0  0  0  0
 40 43  1  0  0  0  0
 41 76  1  0  0  0  0
 41 77  1  0  0  0  0
 41 78  1  0  0  0  0
 42 79  1  0  0  0  0
 42 80  1  0  0  0  0
 42 81  1  0  0  0  0
 43 82  1  0  0  0  0
 43 83  1  0  0  0  0
 43 84  1  0  0  0  0
 44 85  1  0  0  0  0
M  END
$$$$
