CHEMBL240432
 OpenBabel04072215363D

 70 75  0  0  0  0  0  0  0  0999 V2000
    1.5039   -0.2542    0.1092 C   0  0  0  0  0  0  0  0  0  0  0  0
    1.0513    0.9736   -0.3641 C   0  0  0  0  0  0  0  0  0  0  0  0
   -0.3172    1.2585   -0.3731 C   0  0  0  0  0  0  0  0  0  0  0  0
   -1.2587    0.2878    0.0039 C   0  0  0  0  0  0  0  0  0  0  0  0
   -2.7003    0.5277   -0.1162 C   0  0  0  0  0  0  0  0  0  0  0  0
   -3.2950    1.1348   -1.2272 C   0  0  0  0  0  0  0  0  0  0  0  0
   -2.7738    1.7086   -2.4622 C   0  0  0  0  0  0  0  0  0  0  0  0
   -1.7509    1.0431   -3.1457 C   0  0  0  0  0  0  0  0  0  0  0  0
   -1.0371    1.6659   -4.1669 C   0  0  0  0  0  0  0  0  0  0  0  0
   -1.3867    2.9479   -4.5859 C   0  0  0  0  0  0  0  0  0  0  0  0
   -0.7133    3.6662   -5.5427 O   0  0  0  0  0  0  0  0  0  0  0  0
    0.0980    2.8827   -6.4242 C   0  0  0  0  0  0  0  0  0  0  0  0
    0.7810    3.7895   -7.4375 C   0  0  0  0  0  0  0  0  0  0  0  0
    1.5217    3.0187   -8.4137 N   0  0  0  0  0  0  0  0  0  0  0  0
    1.0389    2.5442   -9.6006 C   0  0  0  0  0  0  0  0  0  0  0  0
    2.0841    1.8390  -10.1503 C   0  0  0  0  0  0  0  0  0  0  0  0
    3.1807    1.8761   -9.3281 N   0  0  0  0  0  0  0  0  0  0  0  0
    2.8154    2.5993   -8.2928 C   0  0  0  0  0  0  0  0  0  0  0  0
   -2.4688    3.5886   -3.9778 C   0  0  0  0  0  0  0  0  0  0  0  0
   -3.1665    2.9708   -2.9225 C   0  0  0  0  0  0  0  0  0  0  0  0
   -4.6470    1.1511   -1.0877 O   0  0  0  0  0  0  0  0  0  0  0  0
   -4.9512    0.5159    0.0774 C   0  0  0  0  0  0  0  0  0  0  0  0
   -6.2227    0.3079    0.4647 N   0  0  0  0  0  0  0  0  0  0  0  0
   -6.3169   -0.3437    1.6382 C   0  0  0  0  0  0  0  0  0  0  0  0
   -5.2495   -0.7536    2.4226 C   0  0  0  0  0  0  0  0  0  0  0  0
   -3.9329   -0.4906    2.0154 C   0  0  0  0  0  0  0  0  0  0  0  0
   -2.8597   -0.7535    2.8737 N   0  0  0  0  0  0  0  0  0  0  0  0
   -2.7382   -2.0778    3.4932 C   0  0  0  0  0  0  0  0  0  0  0  0
   -1.6325   -2.0109    4.5740 C   0  0  0  0  0  0  0  0  0  0  0  0
   -1.4940   -3.2142    5.4236 N   0  0  0  0  0  0  0  0  0  0  0  0
   -0.4703   -2.9793    6.4707 C   0  0  0  0  0  0  0  0  0  0  0  0
    0.9909   -2.9920    5.9570 C   0  0  0  0  0  0  0  0  0  0  0  0
    1.3328   -4.1909    5.1702 N   0  0  0  0  0  0  0  0  0  0  0  0
    0.3217   -4.4101    4.1207 C   0  0  0  0  0  0  0  0  0  0  0  0
   -1.1189   -4.4293    4.6720 C   0  0  0  0  0  0  0  0  0  0  0  0
   -3.7853    0.1410    0.7506 C   0  0  0  0  0  0  0  0  0  0  0  0
   -0.7834   -0.9584    0.4347 C   0  0  0  0  0  0  0  0  0  0  0  0
    0.5874   -1.2130    0.5305 C   0  0  0  0  0  0  0  0  0  0  0  0
    2.5696   -0.4665    0.1410 H   0  0  0  0  0  0  0  0  0  0  0  0
    1.7600    1.7110   -0.7332 H   0  0  0  0  0  0  0  0  0  0  0  0
   -0.6342    2.2366   -0.7301 H   0  0  0  0  0  0  0  0  0  0  0  0
   -1.4327    0.0481   -2.8326 H   0  0  0  0  0  0  0  0  0  0  0  0
   -0.1869    1.1285   -4.5719 H   0  0  0  0  0  0  0  0  0  0  0  0
   -0.5374    2.1523   -6.9416 H   0  0  0  0  0  0  0  0  0  0  0  0
    0.8812    2.3548   -5.8667 H   0  0  0  0  0  0  0  0  0  0  0  0
    1.4794    4.4714   -6.9382 H   0  0  0  0  0  0  0  0  0  0  0  0
    0.0522    4.4116   -7.9680 H   0  0  0  0  0  0  0  0  0  0  0  0
    0.0311    2.7309   -9.9440 H   0  0  0  0  0  0  0  0  0  0  0  0
    2.1041    1.3044  -11.0914 H   0  0  0  0  0  0  0  0  0  0  0  0
    3.4394    2.8335   -7.4404 H   0  0  0  0  0  0  0  0  0  0  0  0
   -2.7641    4.5837   -4.3017 H   0  0  0  0  0  0  0  0  0  0  0  0
   -3.9825    3.5040   -2.4389 H   0  0  0  0  0  0  0  0  0  0  0  0
   -7.3350   -0.5256    1.9749 H   0  0  0  0  0  0  0  0  0  0  0  0
   -5.4536   -1.2278    3.3756 H   0  0  0  0  0  0  0  0  0  0  0  0
   -1.9766   -0.4179    2.4958 H   0  0  0  0  0  0  0  0  0  0  0  0
   -2.4735   -2.8112    2.7208 H   0  0  0  0  0  0  0  0  0  0  0  0
   -3.6749   -2.3999    3.9582 H   0  0  0  0  0  0  0  0  0  0  0  0
   -1.8839   -1.1643    5.2325 H   0  0  0  0  0  0  0  0  0  0  0  0
   -0.6880   -1.7504    4.0883 H   0  0  0  0  0  0  0  0  0  0  0  0
   -0.5802   -3.7620    7.2333 H   0  0  0  0  0  0  0  0  0  0  0  0
   -0.6699   -2.0345    6.9920 H   0  0  0  0  0  0  0  0  0  0  0  0
    1.6700   -2.9358    6.8152 H   0  0  0  0  0  0  0  0  0  0  0  0
    1.1872   -2.0993    5.3521 H   0  0  0  0  0  0  0  0  0  0  0  0
    1.3046   -4.9927    5.8014 H   0  0  0  0  0  0  0  0  0  0  0  0
    0.5327   -5.3664    3.6304 H   0  0  0  0  0  0  0  0  0  0  0  0
    0.4257   -3.6388    3.3477 H   0  0  0  0  0  0  0  0  0  0  0  0
   -1.2191   -5.2896    5.3500 H   0  0  0  0  0  0  0  0  0  0  0  0
   -1.8292   -4.6270    3.8630 H   0  0  0  0  0  0  0  0  0  0  0  0
   -1.4774   -1.7534    0.6957 H   0  0  0  0  0  0  0  0  0  0  0  0
    0.9390   -2.1681    0.9126 H   0  0  0  0  0  0  0  0  0  0  0  0
  1  2  1  0  0  0  0
  1 38  2  0  0  0  0
  1 39  1  0  0  0  0
  2  3  2  0  0  0  0
  2 40  1  0  0  0  0
  3  4  1  0  0  0  0
  3 41  1  0  0  0  0
  4  5  1  0  0  0  0
  4 37  2  0  0  0  0
  5  6  2  0  0  0  0
  5 36  1  0  0  0  0
  6  7  1  0  0  0  0
  6 21  1  0  0  0  0
  7  8  1  0  0  0  0
  7 20  2  0  0  0  0
  8  9  2  0  0  0  0
  8 42  1  0  0  0  0
  9 10  1  0  0  0  0
  9 43  1  0  0  0  0
 10 11  1  0  0  0  0
 10 19  2  0  0  0  0
 11 12  1  0  0  0  0
 12 13  1  0  0  0  0
 12 44  1  0  0  0  0
 12 45  1  0  0  0  0
 13 14  1  0  0  0  0
 13 46  1  0  0  0  0
 13 47  1  0  0  0  0
 14 15  1  0  0  0  0
 14 18  1  0  0  0  0
 15 16  2  0  0  0  0
 15 48  1  0  0  0  0
 16 17  1  0  0  0  0
 16 49  1  0  0  0  0
 17 18  2  0  0  0  0
 18 50  1  0  0  0  0
 19 20  1  0  0  0  0
 19 51  1  0  0  0  0
 20 52  1  0  0  0  0
 21 22  1  0  0  0  0
 22 23  1  0  0  0  0
 22 36  2  0  0  0  0
 23 24  2  0  0  0  0
 24 25  1  0  0  0  0
 24 53  1  0  0  0  0
 25 26  2  0  0  0  0
 25 54  1  0  0  0  0
 26 27  1  0  0  0  0
 26 36  1  0  0  0  0
 27 28  1  0  0  0  0
 27 55  1  0  0  0  0
 28 29  1  0  0  0  0
 28 56  1  0  0  0  0
 28 57  1  0  0  0  0
 29 30  1  0  0  0  0
 29 58  1  0  0  0  0
 29 59  1  0  0  0  0
 30 31  1  0  0  0  0
 30 35  1  0  0  0  0
 31 32  1  0  0  0  0
 31 60  1  0  0  0  0
 31 61  1  0  0  0  0
 32 33  1  0  0  0  0
 32 62  1  0  0  0  0
 32 63  1  0  0  0  0
 33 34  1  0  0  0  0
 33 64  1  0  0  0  0
 34 35  1  0  0  0  0
 34 65  1  0  0  0  0
 34 66  1  0  0  0  0
 35 67  1  0  0  0  0
 35 68  1  0  0  0  0
 37 38  1  0  0  0  0
 37 69  1  0  0  0  0
 38 70  1  0  0  0  0
M  END
$$$$
