CHEMBL321359
 OpenBabel04072215363D

 29 31  0  0  0  0  0  0  0  0999 V2000
    1.8545    0.1663    1.1908 C   0  0  0  0  0  0  0  0  0  0  0  0
    0.5658    0.1049    0.5324 N   0  0  0  0  0  0  0  0  0  0  0  0
   -0.1588   -1.0537    0.3796 C   0  0  0  0  0  0  0  0  0  0  0  0
   -1.3411   -0.7418   -0.2507 C   0  0  0  0  0  0  0  0  0  0  0  0
   -1.3283    0.6494   -0.4985 C   0  0  0  0  0  0  0  0  0  0  0  0
   -0.1309    1.1545   -0.0283 C   0  0  0  0  0  0  0  0  0  0  0  0
    0.3777    2.4752   -0.0110 C   0  0  0  0  0  0  0  0  0  0  0  0
    1.1110    2.9991   -1.0035 C   0  0  0  0  0  0  0  0  0  0  0  0
    1.6108    4.4159   -0.8941 C   0  0  0  0  0  0  0  0  0  0  0  0
    1.3735    5.2225   -0.0140 O   0  0  0  0  0  0  0  0  0  0  0  0
    2.4120    4.6031   -2.0085 N   0  0  0  0  0  0  0  0  0  0  0  0
    2.4467    3.4599   -2.8026 C   0  0  0  0  0  0  0  0  0  0  0  0
    3.1658    3.2915   -3.9693 C   0  0  0  0  0  0  0  0  0  0  0  0
    3.0545    2.0603   -4.6176 C   0  0  0  0  0  0  0  0  0  0  0  0
    2.2191    1.0520   -4.1040 C   0  0  0  0  0  0  0  0  0  0  0  0
    1.5003    1.2461   -2.9182 C   0  0  0  0  0  0  0  0  0  0  0  0
    1.6387    2.4533   -2.2583 C   0  0  0  0  0  0  0  0  0  0  0  0
    2.1022   -0.8188    1.5949 H   0  0  0  0  0  0  0  0  0  0  0  0
    1.7963    0.8884    2.0085 H   0  0  0  0  0  0  0  0  0  0  0  0
    2.6075    0.4600    0.4565 H   0  0  0  0  0  0  0  0  0  0  0  0
    0.2175   -2.0024    0.7404 H   0  0  0  0  0  0  0  0  0  0  0  0
   -2.1288   -1.4388   -0.4953 H   0  0  0  0  0  0  0  0  0  0  0  0
   -2.1118    1.2284   -0.9768 H   0  0  0  0  0  0  0  0  0  0  0  0
    0.1234    3.0918    0.8503 H   0  0  0  0  0  0  0  0  0  0  0  0
    2.8924    5.4684   -2.1969 H   0  0  0  0  0  0  0  0  0  0  0  0
    3.8019    4.0738   -4.3666 H   0  0  0  0  0  0  0  0  0  0  0  0
    3.6162    1.8768   -5.5310 H   0  0  0  0  0  0  0  0  0  0  0  0
    2.1334    0.1046   -4.6326 H   0  0  0  0  0  0  0  0  0  0  0  0
    0.8571    0.4596   -2.5394 H   0  0  0  0  0  0  0  0  0  0  0  0
  1  2  1  0  0  0  0
  1 18  1  0  0  0  0
  1 19  1  0  0  0  0
  1 20  1  0  0  0  0
  2  3  1  0  0  0  0
  2  6  1  0  0  0  0
  3  4  2  0  0  0  0
  3 21  1  0  0  0  0
  4  5  1  0  0  0  0
  4 22  1  0  0  0  0
  5  6  2  0  0  0  0
  5 23  1  0  0  0  0
  6  7  1  0  0  0  0
  7  8  2  0  0  0  0
  7 24  1  0  0  0  0
  8  9  1  0  0  0  0
  8 17  1  0  0  0  0
  9 10  2  0  0  0  0
  9 11  1  0  0  0  0
 11 12  1  0  0  0  0
 11 25  1  0  0  0  0
 12 13  1  0  0  0  0
 12 17  2  0  0  0  0
 13 14  2  0  0  0  0
 13 26  1  0  0  0  0
 14 15  1  0  0  0  0
 14 27  1  0  0  0  0
 15 16  2  0  0  0  0
 15 28  1  0  0  0  0
 16 17  1  0  0  0  0
 16 29  1  0  0  0  0
M  END
$$$$
