CHEMBL206185
 OpenBabel04072215363D

 44 47  0  0  0  0  0  0  0  0999 V2000
    1.8316    0.8079    0.3687 O   0  0  0  0  0  0  0  0  0  0  0  0
    2.0404   -0.2453   -0.2210 C   0  0  0  0  0  0  0  0  0  0  0  0
    1.4313   -0.6236   -1.4175 N   0  0  0  0  0  0  0  0  0  0  0  0
    0.4479    0.0998   -2.1381 C   0  0  0  0  0  0  0  0  0  0  0  0
    0.0200    1.3747   -1.7815 C   0  0  0  0  0  0  0  0  0  0  0  0
   -0.9230    2.0543   -2.5573 C   0  0  0  0  0  0  0  0  0  0  0  0
   -1.4761    1.4639   -3.6952 C   0  0  0  0  0  0  0  0  0  0  0  0
   -2.5925    2.4260   -4.5894 Cl  0  0  0  0  0  0  0  0  0  0  0  0
   -1.1048    0.1658   -4.0581 C   0  0  0  0  0  0  0  0  0  0  0  0
   -1.6823   -0.5793   -5.2336 C   0  0  0  0  0  0  0  0  0  0  0  0
   -2.6525    0.0513   -5.9432 F   0  0  0  0  0  0  0  0  0  0  0  0
   -0.7211   -0.9107   -6.1434 F   0  0  0  0  0  0  0  0  0  0  0  0
   -2.2356   -1.7674   -4.8487 F   0  0  0  0  0  0  0  0  0  0  0  0
   -0.1254   -0.4971   -3.2696 C   0  0  0  0  0  0  0  0  0  0  0  0
    3.0000   -1.2289    0.3865 C   0  0  0  0  0  0  0  0  0  0  0  0
    2.7551   -2.6029    0.1754 C   0  0  0  0  0  0  0  0  0  0  0  0
    3.5983   -3.5814    0.7027 C   0  0  0  0  0  0  0  0  0  0  0  0
    4.7064   -3.2073    1.4474 C   0  0  0  0  0  0  0  0  0  0  0  0
    4.9415   -1.8580    1.7069 C   0  0  0  0  0  0  0  0  0  0  0  0
    4.0812   -0.8448    1.2207 C   0  0  0  0  0  0  0  0  0  0  0  0
    4.3557    0.5691    1.7153 C   0  0  0  0  0  0  0  0  0  0  0  0
    5.3712    1.2921    0.9228 N   0  0  0  0  0  0  0  0  0  0  0  0
    4.9877    2.1871   -0.0842 C   0  0  0  0  0  0  0  0  0  0  0  0
    5.8254    2.9572   -0.7985 C   0  0  0  0  0  0  0  0  0  0  0  0
    7.2495    2.8308   -0.4682 C   0  0  0  0  0  0  0  0  0  0  0  0
    8.2978    3.4062   -0.9669 N   0  0  0  0  0  0  0  0  0  0  0  0
    9.3352    2.8742   -0.2076 C   0  0  0  0  0  0  0  0  0  0  0  0
    9.0205    2.0210    0.7289 N   0  0  0  0  0  0  0  0  0  0  0  0
    7.6654    1.9328    0.6105 C   0  0  0  0  0  0  0  0  0  0  0  0
    6.7328    1.2262    1.2512 C   0  0  0  0  0  0  0  0  0  0  0  0
    1.7264   -1.4953   -1.8366 H   0  0  0  0  0  0  0  0  0  0  0  0
    0.4074    1.8935   -0.9094 H   0  0  0  0  0  0  0  0  0  0  0  0
   -1.2157    3.0598   -2.2614 H   0  0  0  0  0  0  0  0  0  0  0  0
    0.1687   -1.5070   -3.5565 H   0  0  0  0  0  0  0  0  0  0  0  0
    1.8733   -2.9432   -0.3610 H   0  0  0  0  0  0  0  0  0  0  0  0
    3.3795   -4.6345    0.5424 H   0  0  0  0  0  0  0  0  0  0  0  0
    5.3703   -3.9647    1.8575 H   0  0  0  0  0  0  0  0  0  0  0  0
    5.7979   -1.5964    2.3283 H   0  0  0  0  0  0  0  0  0  0  0  0
    4.7089    0.4966    2.7556 H   0  0  0  0  0  0  0  0  0  0  0  0
    3.4471    1.1647    1.8247 H   0  0  0  0  0  0  0  0  0  0  0  0
    3.9149    2.2397   -0.2523 H   0  0  0  0  0  0  0  0  0  0  0  0
    5.5144    3.6512   -1.5639 H   0  0  0  0  0  0  0  0  0  0  0  0
   10.3766    3.1752   -0.4062 H   0  0  0  0  0  0  0  0  0  0  0  0
    6.9976    0.5672    2.0697 H   0  0  0  0  0  0  0  0  0  0  0  0
  1  2  2  0  0  0  0
  2  3  1  0  0  0  0
  2 15  1  0  0  0  0
  3  4  1  0  0  0  0
  3 31  1  0  0  0  0
  4  5  1  0  0  0  0
  4 14  2  0  0  0  0
  5  6  2  0  0  0  0
  5 32  1  0  0  0  0
  6  7  1  0  0  0  0
  6 33  1  0  0  0  0
  7  8  1  0  0  0  0
  7  9  2  0  0  0  0
  9 10  1  0  0  0  0
  9 14  1  0  0  0  0
 10 11  1  0  0  0  0
 10 12  1  0  0  0  0
 10 13  1  0  0  0  0
 14 34  1  0  0  0  0
 15 16  1  0  0  0  0
 15 20  2  0  0  0  0
 16 17  2  0  0  0  0
 16 35  1  0  0  0  0
 17 18  1  0  0  0  0
 17 36  1  0  0  0  0
 18 19  2  0  0  0  0
 18 37  1  0  0  0  0
 19 20  1  0  0  0  0
 19 38  1  0  0  0  0
 20 21  1  0  0  0  0
 21 22  1  0  0  0  0
 21 39  1  0  0  0  0
 21 40  1  0  0  0  0
 22 23  1  0  0  0  0
 22 30  1  0  0  0  0
 23 24  2  0  0  0  0
 23 41  1  0  0  0  0
 24 25  1  0  0  0  0
 24 42  1  0  0  0  0
 25 26  2  0  0  0  0
 25 29  1  0  0  0  0
 26 27  1  0  0  0  0
 27 28  2  0  0  0  0
 27 43  1  0  0  0  0
 28 29  1  0  0  0  0
 29 30  2  0  0  0  0
 30 44  1  0  0  0  0
M  END
$$$$
