CHEMBL3690519
 OpenBabel04072215373D

 41 44  0  0  0  0  0  0  0  0999 V2000
    1.8960   -0.7899    1.7705 N   0  0  0  0  0  0  0  0  0  0  0  0
    2.9695   -0.7502    0.9316 C   0  0  0  0  0  0  0  0  0  0  0  0
    3.2504   -1.7481    0.2835 O   0  0  0  0  0  0  0  0  0  0  0  0
    3.6164    0.4583    0.9625 N   0  0  0  0  0  0  0  0  0  0  0  0
    4.7529    0.8151    0.2089 C   0  0  0  0  0  0  0  0  0  0  0  0
    5.1853    0.0579   -0.8846 C   0  0  0  0  0  0  0  0  0  0  0  0
    6.3658    0.3801   -1.5425 C   0  0  0  0  0  0  0  0  0  0  0  0
    7.1131    1.4765   -1.1271 C   0  0  0  0  0  0  0  0  0  0  0  0
    6.6468    2.3307   -0.1199 C   0  0  0  0  0  0  0  0  0  0  0  0
    7.3693    3.5682    0.2094 C   0  0  0  0  0  0  0  0  0  0  0  0
    7.5362    4.2064    1.4321 C   0  0  0  0  0  0  0  0  0  0  0  0
    8.2814    5.3502    1.3247 N   0  0  0  0  0  0  0  0  0  0  0  0
    8.5791    5.4471    0.0486 C   0  0  0  0  0  0  0  0  0  0  0  0
    9.3315    6.4345   -0.6531 C   0  0  0  0  0  0  0  0  0  0  0  0
    9.5148    6.3607   -1.9955 C   0  0  0  0  0  0  0  0  0  0  0  0
   10.2946    7.4199   -2.6905 C   0  0  0  0  0  0  0  0  0  0  0  0
   10.4193    7.3129   -4.0309 N   0  0  0  0  0  0  0  0  0  0  0  0
   11.1311    8.2813   -4.6418 C   0  0  0  0  0  0  0  0  0  0  0  0
   11.7074    9.3273   -3.9681 C   0  0  0  0  0  0  0  0  0  0  0  0
   12.3970   10.2756   -4.6154 F   0  0  0  0  0  0  0  0  0  0  0  0
   11.5209    9.3594   -2.5991 C   0  0  0  0  0  0  0  0  0  0  0  0
   12.1316   10.3296   -1.8039 N   0  0  0  0  0  0  0  0  0  0  0  0
   10.8214    8.4166   -1.9493 N   0  0  0  0  0  0  0  0  0  0  0  0
    8.9129    5.2373   -2.7258 C   0  0  0  0  0  0  0  0  0  0  0  0
    8.1822    4.3208   -2.0752 C   0  0  0  0  0  0  0  0  0  0  0  0
    8.0306    4.4016   -0.6892 N   0  0  0  0  0  0  0  0  0  0  0  0
    5.4715    1.9680    0.5650 C   0  0  0  0  0  0  0  0  0  0  0  0
    1.3658   -1.6481    1.6629 H   0  0  0  0  0  0  0  0  0  0  0  0
    1.3328    0.0416    1.8584 H   0  0  0  0  0  0  0  0  0  0  0  0
    3.3671    1.0631    1.7342 H   0  0  0  0  0  0  0  0  0  0  0  0
    4.6293   -0.8026   -1.2409 H   0  0  0  0  0  0  0  0  0  0  0  0
    6.7064   -0.2295   -2.3748 H   0  0  0  0  0  0  0  0  0  0  0  0
    8.0671    1.6501   -1.6168 H   0  0  0  0  0  0  0  0  0  0  0  0
    7.1623    3.8901    2.3990 H   0  0  0  0  0  0  0  0  0  0  0  0
    9.7410    7.2451   -0.0591 H   0  0  0  0  0  0  0  0  0  0  0  0
   11.2314    8.1907   -5.7178 H   0  0  0  0  0  0  0  0  0  0  0  0
   12.0549   11.2649   -2.1860 H   0  0  0  0  0  0  0  0  0  0  0  0
   11.7865   10.2451   -0.8520 H   0  0  0  0  0  0  0  0  0  0  0  0
    9.0604    5.1685   -3.8000 H   0  0  0  0  0  0  0  0  0  0  0  0
    7.7040    3.5135   -2.6088 H   0  0  0  0  0  0  0  0  0  0  0  0
    5.1212    2.5844    1.3889 H   0  0  0  0  0  0  0  0  0  0  0  0
  1  2  1  0  0  0  0
  1 28  1  0  0  0  0
  1 29  1  0  0  0  0
  2  3  2  0  0  0  0
  2  4  1  0  0  0  0
  4  5  1  0  0  0  0
  4 30  1  0  0  0  0
  5  6  1  0  0  0  0
  5 27  2  0  0  0  0
  6  7  2  0  0  0  0
  6 31  1  0  0  0  0
  7  8  1  0  0  0  0
  7 32  1  0  0  0  0
  8  9  2  0  0  0  0
  8 33  1  0  0  0  0
  9 10  1  0  0  0  0
  9 27  1  0  0  0  0
 10 11  2  0  0  0  0
 10 26  1  0  0  0  0
 11 12  1  0  0  0  0
 11 34  1  0  0  0  0
 12 13  2  0  0  0  0
 13 14  1  0  0  0  0
 13 26  1  0  0  0  0
 14 15  2  0  0  0  0
 14 35  1  0  0  0  0
 15 16  1  0  0  0  0
 15 24  1  0  0  0  0
 16 17  1  0  0  0  0
 16 23  2  0  0  0  0
 17 18  2  0  0  0  0
 18 19  1  0  0  0  0
 18 36  1  0  0  0  0
 19 20  1  0  0  0  0
 19 21  2  0  0  0  0
 21 22  1  0  0  0  0
 21 23  1  0  0  0  0
 22 37  1  0  0  0  0
 22 38  1  0  0  0  0
 24 25  2  0  0  0  0
 24 39  1  0  0  0  0
 25 26  1  0  0  0  0
 25 40  1  0  0  0  0
 27 41  1  0  0  0  0
M  END
$$$$
