CHEMBL453354
 OpenBabel04072215383D

 56 59  0  0  0  0  0  0  0  0999 V2000
    1.0489   -1.4343   -2.3500 C   0  0  0  0  0  0  0  0  0  0  0  0
    2.5676   -1.4531   -2.3714 C   0  0  0  0  0  0  0  0  0  0  0  0
    3.1611   -0.3938   -1.4413 C   0  0  0  0  0  0  0  0  0  0  0  0
    4.6894   -0.4105   -1.4620 C   0  0  0  0  0  0  0  0  0  0  0  0
    5.1901   -0.1202   -2.8002 N   0  0  0  0  0  0  0  0  0  0  0  0
    6.5257   -0.1207   -2.9929 C   0  0  0  0  0  0  0  0  0  0  0  0
    7.3958   -0.8544   -2.2923 N   0  0  0  0  0  0  0  0  0  0  0  0
    8.5865   -0.5349   -2.8152 N   0  0  0  0  0  0  0  0  0  0  0  0
    9.7705   -1.2647   -2.4193 C   0  0  0  0  0  0  0  0  0  0  0  0
    8.5363    0.4528   -3.7579 C   0  0  0  0  0  0  0  0  0  0  0  0
    9.5446    1.1227   -4.4552 C   0  0  0  0  0  0  0  0  0  0  0  0
    9.1619    2.0034   -5.4817 C   0  0  0  0  0  0  0  0  0  0  0  0
   10.0856    2.6372   -6.3061 O   0  0  0  0  0  0  0  0  0  0  0  0
   11.2233    1.9385   -6.6603 C   0  0  0  0  0  0  0  0  0  0  0  0
   11.1958    0.5427   -6.7573 C   0  0  0  0  0  0  0  0  0  0  0  0
   12.3440   -0.1162   -7.0768 C   0  0  0  0  0  0  0  0  0  0  0  0
   13.4960    0.5054   -7.4019 N   0  0  0  0  0  0  0  0  0  0  0  0
   13.5131    1.8570   -7.3957 C   0  0  0  0  0  0  0  0  0  0  0  0
   14.6780    2.5110   -7.7915 C   0  0  0  0  0  0  0  0  0  0  0  0
   14.8438    3.9179   -7.8187 C   0  0  0  0  0  0  0  0  0  0  0  0
   16.0476    4.1974   -8.3881 O   0  0  0  0  0  0  0  0  0  0  0  0
   16.8551    5.2964   -8.0330 C   0  0  0  0  0  0  0  0  0  0  0  0
   13.7688    4.7045   -7.3887 C   0  0  0  0  0  0  0  0  0  0  0  0
   13.5215    6.0344   -7.2988 O   0  0  0  0  0  0  0  0  0  0  0  0
   14.4112    7.0676   -7.6399 C   0  0  0  0  0  0  0  0  0  0  0  0
   12.5873    4.0319   -6.9803 C   0  0  0  0  0  0  0  0  0  0  0  0
   12.4248    2.6223   -7.0094 C   0  0  0  0  0  0  0  0  0  0  0  0
    7.8112    2.2729   -5.7061 C   0  0  0  0  0  0  0  0  0  0  0  0
    6.8136    1.6435   -4.9391 C   0  0  0  0  0  0  0  0  0  0  0  0
    7.1857    0.7021   -3.9573 C   0  0  0  0  0  0  0  0  0  0  0  0
    0.6538   -2.1934   -3.0324 H   0  0  0  0  0  0  0  0  0  0  0  0
    0.6646   -0.4596   -2.6670 H   0  0  0  0  0  0  0  0  0  0  0  0
    0.6685   -1.6467   -1.3466 H   0  0  0  0  0  0  0  0  0  0  0  0
    2.9064   -1.2827   -3.3996 H   0  0  0  0  0  0  0  0  0  0  0  0
    2.9225   -2.4470   -2.0746 H   0  0  0  0  0  0  0  0  0  0  0  0
    2.8151   -0.5701   -0.4155 H   0  0  0  0  0  0  0  0  0  0  0  0
    2.7998    0.6007   -1.7323 H   0  0  0  0  0  0  0  0  0  0  0  0
    5.0493   -1.3837   -1.1066 H   0  0  0  0  0  0  0  0  0  0  0  0
    5.0609    0.3583   -0.7718 H   0  0  0  0  0  0  0  0  0  0  0  0
    4.6459    0.5815   -3.2977 H   0  0  0  0  0  0  0  0  0  0  0  0
    9.5250   -1.9579   -1.6128 H   0  0  0  0  0  0  0  0  0  0  0  0
   10.5229   -0.5477   -2.0826 H   0  0  0  0  0  0  0  0  0  0  0  0
   10.1336   -1.8166   -3.2895 H   0  0  0  0  0  0  0  0  0  0  0  0
   10.5845    0.8967   -4.2517 H   0  0  0  0  0  0  0  0  0  0  0  0
   10.3034   -0.0243   -6.5106 H   0  0  0  0  0  0  0  0  0  0  0  0
   12.3715   -1.2055   -7.1033 H   0  0  0  0  0  0  0  0  0  0  0  0
   15.5156    1.8865   -8.1158 H   0  0  0  0  0  0  0  0  0  0  0  0
   17.8634    5.1034   -8.4180 H   0  0  0  0  0  0  0  0  0  0  0  0
   16.9345    5.4449   -6.9530 H   0  0  0  0  0  0  0  0  0  0  0  0
   16.5350    6.1842   -8.5646 H   0  0  0  0  0  0  0  0  0  0  0  0
   13.8429    8.0054   -7.6364 H   0  0  0  0  0  0  0  0  0  0  0  0
   14.7886    6.9580   -8.6540 H   0  0  0  0  0  0  0  0  0  0  0  0
   15.1879    7.1713   -6.8769 H   0  0  0  0  0  0  0  0  0  0  0  0
   11.7490    4.6444   -6.6387 H   0  0  0  0  0  0  0  0  0  0  0  0
    7.5212    2.9704   -6.4860 H   0  0  0  0  0  0  0  0  0  0  0  0
    5.7683    1.8763   -5.1161 H   0  0  0  0  0  0  0  0  0  0  0  0
  1  2  1  0  0  0  0
  1 31  1  0  0  0  0
  1 32  1  0  0  0  0
  1 33  1  0  0  0  0
  2  3  1  0  0  0  0
  2 34  1  0  0  0  0
  2 35  1  0  0  0  0
  3  4  1  0  0  0  0
  3 36  1  0  0  0  0
  3 37  1  0  0  0  0
  4  5  1  0  0  0  0
  4 38  1  0  0  0  0
  4 39  1  0  0  0  0
  5  6  1  0  0  0  0
  5 40  1  0  0  0  0
  6  7  2  0  0  0  0
  6 30  1  0  0  0  0
  7  8  1  0  0  0  0
  8  9  1  0  0  0  0
  8 10  1  0  0  0  0
  9 41  1  0  0  0  0
  9 42  1  0  0  0  0
  9 43  1  0  0  0  0
 10 11  1  0  0  0  0
 10 30  2  0  0  0  0
 11 12  2  0  0  0  0
 11 44  1  0  0  0  0
 12 13  1  0  0  0  0
 12 28  1  0  0  0  0
 13 14  1  0  0  0  0
 14 15  1  0  0  0  0
 14 27  2  0  0  0  0
 15 16  2  0  0  0  0
 15 45  1  0  0  0  0
 16 17  1  0  0  0  0
 16 46  1  0  0  0  0
 17 18  2  0  0  0  0
 18 19  1  0  0  0  0
 18 27  1  0  0  0  0
 19 20  2  0  0  0  0
 19 47  1  0  0  0  0
 20 21  1  0  0  0  0
 20 23  1  0  0  0  0
 21 22  1  0  0  0  0
 22 48  1  0  0  0  0
 22 49  1  0  0  0  0
 22 50  1  0  0  0  0
 23 24  1  0  0  0  0
 23 26  2  0  0  0  0
 24 25  1  0  0  0  0
 25 51  1  0  0  0  0
 25 52  1  0  0  0  0
 25 53  1  0  0  0  0
 26 27  1  0  0  0  0
 26 54  1  0  0  0  0
 28 29  2  0  0  0  0
 28 55  1  0  0  0  0
 29 30  1  0  0  0  0
 29 56  1  0  0  0  0
M  END
$$$$
