CHEMBL398436
 OpenBabel04072215373D

 33 36  0  0  0  0  0  0  0  0999 V2000
   -4.3152   -1.2399   -0.0582 C   0  0  0  0  0  0  0  0  0  0  0  0
   -3.2909   -0.2183   -0.0169 N   0  0  0  0  0  0  0  0  0  0  0  0
   -3.5402    1.1272   -0.0533 C   0  0  0  0  0  0  0  0  0  0  0  0
   -2.3496    1.7970    0.1254 C   0  0  0  0  0  0  0  0  0  0  0  0
   -2.1807    3.2256    0.0912 C   0  0  0  0  0  0  0  0  0  0  0  0
   -3.0855    4.1696    0.3919 C   0  0  0  0  0  0  0  0  0  0  0  0
   -4.4733    4.0222    0.9144 C   0  0  0  0  0  0  0  0  0  0  0  0
   -4.9679    3.1067    1.5443 O   0  0  0  0  0  0  0  0  0  0  0  0
   -5.0581    5.2219    0.5976 N   0  0  0  0  0  0  0  0  0  0  0  0
   -4.1865    6.1957    0.1634 N   0  0  0  0  0  0  0  0  0  0  0  0
   -3.0072    5.6253    0.0861 C   0  0  0  0  0  0  0  0  0  0  0  0
   -1.8275    6.3815   -0.1886 C   0  0  0  0  0  0  0  0  0  0  0  0
   -0.5202    6.2454    0.2383 C   0  0  0  0  0  0  0  0  0  0  0  0
    0.3507    7.2406   -0.1770 N   0  0  0  0  0  0  0  0  0  0  0  0
   -0.2645    8.1473   -0.9163 N   0  0  0  0  0  0  0  0  0  0  0  0
   -1.8941    7.8270   -1.1158 S   0  0  0  0  0  0  0  0  0  0  0  0
   -1.3180    0.8012    0.1883 C   0  0  0  0  0  0  0  0  0  0  0  0
    0.0882    0.8372    0.3325 C   0  0  0  0  0  0  0  0  0  0  0  0
    0.8130   -0.3600    0.2761 C   0  0  0  0  0  0  0  0  0  0  0  0
    2.6978   -0.3110    0.4477 Br  0  0  0  0  0  0  0  0  0  0  0  0
    0.1787   -1.5827    0.0867 C   0  0  0  0  0  0  0  0  0  0  0  0
   -1.2104   -1.6498   -0.0195 C   0  0  0  0  0  0  0  0  0  0  0  0
   -1.9343   -0.4495    0.0433 C   0  0  0  0  0  0  0  0  0  0  0  0
   -5.3012   -0.7699   -0.0306 H   0  0  0  0  0  0  0  0  0  0  0  0
   -4.1944   -1.8824    0.8181 H   0  0  0  0  0  0  0  0  0  0  0  0
   -4.1997   -1.8130   -0.9808 H   0  0  0  0  0  0  0  0  0  0  0  0
   -4.5499    1.4792   -0.1977 H   0  0  0  0  0  0  0  0  0  0  0  0
   -1.2349    3.5416   -0.3252 H   0  0  0  0  0  0  0  0  0  0  0  0
   -6.0073    5.4656    0.8618 H   0  0  0  0  0  0  0  0  0  0  0  0
   -0.1394    5.4711    0.8895 H   0  0  0  0  0  0  0  0  0  0  0  0
    0.5996    1.7825    0.4770 H   0  0  0  0  0  0  0  0  0  0  0  0
    0.7570   -2.5016    0.0224 H   0  0  0  0  0  0  0  0  0  0  0  0
   -1.7077   -2.6043   -0.1605 H   0  0  0  0  0  0  0  0  0  0  0  0
  1  2  1  0  0  0  0
  1 24  1  0  0  0  0
  1 25  1  0  0  0  0
  1 26  1  0  0  0  0
  2  3  1  0  0  0  0
  2 23  1  0  0  0  0
  3  4  2  0  0  0  0
  3 27  1  0  0  0  0
  4  5  1  0  0  0  0
  4 17  1  0  0  0  0
  5  6  2  0  0  0  0
  5 28  1  0  0  0  0
  6  7  1  0  0  0  0
  6 11  1  0  0  0  0
  7  8  2  0  0  0  0
  7  9  1  0  0  0  0
  9 10  1  0  0  0  0
  9 29  1  0  0  0  0
 10 11  2  0  0  0  0
 11 12  1  0  0  0  0
 12 13  2  0  0  0  0
 12 16  1  0  0  0  0
 13 14  1  0  0  0  0
 13 30  1  0  0  0  0
 14 15  2  0  0  0  0
 15 16  1  0  0  0  0
 17 18  1  0  0  0  0
 17 23  2  0  0  0  0
 18 19  2  0  0  0  0
 18 31  1  0  0  0  0
 19 20  1  0  0  0  0
 19 21  1  0  0  0  0
 21 22  2  0  0  0  0
 21 32  1  0  0  0  0
 22 23  1  0  0  0  0
 22 33  1  0  0  0  0
M  END
$$$$
