CHEMBL382070
 OpenBabel04072215373D

 30 32  0  0  0  0  0  0  0  0999 V2000
    1.0570   -0.1667    0.0614 C   0  0  0  0  0  0  0  0  0  0  0  0
    2.5254    0.0225    0.0040 C   0  0  0  0  0  0  0  0  0  0  0  0
    3.3410   -1.0544    0.0854 N   0  0  0  0  0  0  0  0  0  0  0  0
    4.5953   -0.5327    0.0787 N   0  0  0  0  0  0  0  0  0  0  0  0
    4.5730    0.8122    0.0166 C   0  0  0  0  0  0  0  0  0  0  0  0
    5.6688    2.0476    0.0489 S   0  0  0  0  0  0  0  0  0  0  0  0
    4.3543    3.2064   -0.0382 C   0  0  0  0  0  0  0  0  0  0  0  0
    4.6256    4.6317   -0.1017 C   0  0  0  0  0  0  0  0  0  0  0  0
    5.9368    5.0052   -0.2269 N   0  0  0  0  0  0  0  0  0  0  0  0
    3.7498    5.4949   -0.0839 O   0  0  0  0  0  0  0  0  0  0  0  0
    3.0997    2.5767   -0.1045 C   0  0  0  0  0  0  0  0  0  0  0  0
    1.9020    3.2842   -0.1742 N   0  0  0  0  0  0  0  0  0  0  0  0
    0.9373    2.9906   -1.1239 C   0  0  0  0  0  0  0  0  0  0  0  0
    1.1372    2.2074   -2.0522 O   0  0  0  0  0  0  0  0  0  0  0  0
   -0.3314    3.6962   -0.9865 C   0  0  0  0  0  0  0  0  0  0  0  0
   -1.3956    3.6404   -1.8702 C   0  0  0  0  0  0  0  0  0  0  0  0
   -2.5387    4.3475   -1.4016 C   0  0  0  0  0  0  0  0  0  0  0  0
   -2.3067    4.9414   -0.1819 C   0  0  0  0  0  0  0  0  0  0  0  0
   -0.7142    4.6609    0.3764 S   0  0  0  0  0  0  0  0  0  0  0  0
    3.2946    1.1881   -0.0635 C   0  0  0  0  0  0  0  0  0  0  0  0
    0.7974   -1.2247    0.1697 H   0  0  0  0  0  0  0  0  0  0  0  0
    0.5709    0.1853   -0.8501 H   0  0  0  0  0  0  0  0  0  0  0  0
    0.6336    0.3700    0.9172 H   0  0  0  0  0  0  0  0  0  0  0  0
    5.3878   -1.1615    0.1432 H   0  0  0  0  0  0  0  0  0  0  0  0
    6.6695    4.3180   -0.3401 H   0  0  0  0  0  0  0  0  0  0  0  0
    6.1440    5.9817   -0.3814 H   0  0  0  0  0  0  0  0  0  0  0  0
    1.9205    4.2561    0.1282 H   0  0  0  0  0  0  0  0  0  0  0  0
   -1.3562    3.0836   -2.8007 H   0  0  0  0  0  0  0  0  0  0  0  0
   -3.4845    4.4049   -1.9267 H   0  0  0  0  0  0  0  0  0  0  0  0
   -2.9971    5.5266    0.4103 H   0  0  0  0  0  0  0  0  0  0  0  0
  1  2  1  0  0  0  0
  1 21  1  0  0  0  0
  1 22  1  0  0  0  0
  1 23  1  0  0  0  0
  2  3  2  0  0  0  0
  2 20  1  0  0  0  0
  3  4  1  0  0  0  0
  4  5  1  0  0  0  0
  4 24  1  0  0  0  0
  5  6  1  0  0  0  0
  5 20  2  0  0  0  0
  6  7  1  0  0  0  0
  7  8  1  0  0  0  0
  7 11  2  0  0  0  0
  8  9  1  0  0  0  0
  8 10  2  0  0  0  0
  9 25  1  0  0  0  0
  9 26  1  0  0  0  0
 11 12  1  0  0  0  0
 11 20  1  0  0  0  0
 12 13  1  0  0  0  0
 12 27  1  0  0  0  0
 13 14  2  0  0  0  0
 13 15  1  0  0  0  0
 15 16  2  0  0  0  0
 15 19  1  0  0  0  0
 16 17  1  0  0  0  0
 16 28  1  0  0  0  0
 17 18  2  0  0  0  0
 17 29  1  0  0  0  0
 18 19  1  0  0  0  0
 18 30  1  0  0  0  0
M  END
$$$$
