CHEMBL3125890
 OpenBabel04072215363D

 57 61  0  0  0  0  0  0  0  0999 V2000
    0.5909    0.7745   -0.4195 N   0  0  0  0  0  0  0  0  0  0  0  0
    1.7214    0.6265   -0.6169 C   0  0  0  0  0  0  0  0  0  0  0  0
    3.1163    0.4268   -0.8713 C   0  0  0  0  0  0  0  0  0  0  0  0
    4.0964    1.3335   -0.4424 C   0  0  0  0  0  0  0  0  0  0  0  0
    3.6688    2.4618    0.2340 O   0  0  0  0  0  0  0  0  0  0  0  0
    4.3630    3.6417    0.0719 C   0  0  0  0  0  0  0  0  0  0  0  0
    4.3767    4.5124    1.1658 C   0  0  0  0  0  0  0  0  0  0  0  0
    5.0902    5.7124    1.0945 C   0  0  0  0  0  0  0  0  0  0  0  0
    5.7661    6.0403   -0.0767 C   0  0  0  0  0  0  0  0  0  0  0  0
    6.4987    7.1637   -0.1228 F   0  0  0  0  0  0  0  0  0  0  0  0
    5.7479    5.1847   -1.1749 C   0  0  0  0  0  0  0  0  0  0  0  0
    6.4687    5.5248   -2.3344 N   0  0  0  0  0  0  0  0  0  0  0  0
    7.3997    4.6475   -2.8773 C   0  0  0  0  0  0  0  0  0  0  0  0
    7.6923    3.5514   -2.4003 O   0  0  0  0  0  0  0  0  0  0  0  0
    8.0207    5.1497   -4.1721 C   0  0  0  0  0  0  0  0  0  0  0  0
    7.2140    4.6629   -5.3503 C   0  0  0  0  0  0  0  0  0  0  0  0
    7.0975    3.2842   -5.5863 C   0  0  0  0  0  0  0  0  0  0  0  0
    6.2373    2.8051   -6.5666 C   0  0  0  0  0  0  0  0  0  0  0  0
    5.5093    3.6978   -7.3505 C   0  0  0  0  0  0  0  0  0  0  0  0
    5.6529    5.0826   -7.1724 C   0  0  0  0  0  0  0  0  0  0  0  0
    4.8976    6.0603   -8.0423 C   0  0  0  0  0  0  0  0  0  0  0  0
    4.0862    5.4656   -8.9614 F   0  0  0  0  0  0  0  0  0  0  0  0
    4.0970    6.8831   -7.3164 F   0  0  0  0  0  0  0  0  0  0  0  0
    5.7284    6.8711   -8.7493 F   0  0  0  0  0  0  0  0  0  0  0  0
    6.5055    5.5567   -6.1620 C   0  0  0  0  0  0  0  0  0  0  0  0
    5.0105    4.0023   -1.1150 C   0  0  0  0  0  0  0  0  0  0  0  0
    5.4480    1.0609   -0.6667 C   0  0  0  0  0  0  0  0  0  0  0  0
    5.8394   -0.0621   -1.3973 C   0  0  0  0  0  0  0  0  0  0  0  0
    4.8716   -0.9789   -1.8430 C   0  0  0  0  0  0  0  0  0  0  0  0
    5.1426   -2.1536   -2.5174 N   0  0  0  0  0  0  0  0  0  0  0  0
    4.0276   -2.7896   -2.7403 C   0  0  0  0  0  0  0  0  0  0  0  0
    3.8172   -4.0140   -3.2924 N   0  0  0  0  0  0  0  0  0  0  0  0
    4.8187   -4.8908   -3.6116 C   0  0  0  0  0  0  0  0  0  0  0  0
    6.0292   -4.7564   -3.5107 O   0  0  0  0  0  0  0  0  0  0  0  0
    4.2384   -6.1993   -4.0927 C   0  0  0  0  0  0  0  0  0  0  0  0
    3.8196   -5.7767   -5.5816 C   0  0  0  0  0  0  0  0  0  0  0  0
    4.0707   -7.1508   -5.2706 C   0  0  0  0  0  0  0  0  0  0  0  0
    2.5908   -2.0172   -2.2535 S   0  0  0  0  0  0  0  0  0  0  0  0
    3.5202   -0.7247   -1.5767 C   0  0  0  0  0  0  0  0  0  0  0  0
    3.8456    4.2516    2.0782 H   0  0  0  0  0  0  0  0  0  0  0  0
    5.1395    6.3793    1.9484 H   0  0  0  0  0  0  0  0  0  0  0  0
    6.6428    6.5094   -2.4822 H   0  0  0  0  0  0  0  0  0  0  0  0
    9.0537    4.7821   -4.2412 H   0  0  0  0  0  0  0  0  0  0  0  0
    8.0844    6.2434   -4.1572 H   0  0  0  0  0  0  0  0  0  0  0  0
    7.6511    2.5742   -4.9711 H   0  0  0  0  0  0  0  0  0  0  0  0
    6.1251    1.7326   -6.7075 H   0  0  0  0  0  0  0  0  0  0  0  0
    4.8251    3.3060   -8.1014 H   0  0  0  0  0  0  0  0  0  0  0  0
    6.5956    6.6308   -6.0022 H   0  0  0  0  0  0  0  0  0  0  0  0
    4.9560    3.3666   -1.9946 H   0  0  0  0  0  0  0  0  0  0  0  0
    6.2273    1.7320   -0.3105 H   0  0  0  0  0  0  0  0  0  0  0  0
    6.8896   -0.2356   -1.6155 H   0  0  0  0  0  0  0  0  0  0  0  0
    2.8561   -4.2997   -3.4074 H   0  0  0  0  0  0  0  0  0  0  0  0
    4.9040   -6.8763   -3.5665 H   0  0  0  0  0  0  0  0  0  0  0  0
    4.5532   -5.2622   -6.1964 H   0  0  0  0  0  0  0  0  0  0  0  0
    2.8022   -5.4330   -5.7269 H   0  0  0  0  0  0  0  0  0  0  0  0
    4.9513   -7.6189   -5.6951 H   0  0  0  0  0  0  0  0  0  0  0  0
    3.2232   -7.8309   -5.2167 H   0  0  0  0  0  0  0  0  0  0  0  0
  1  2  3  0  0  0  0
  2  3  1  0  0  0  0
  3  4  1  0  0  0  0
  3 39  2  0  0  0  0
  4  5  1  0  0  0  0
  4 27  2  0  0  0  0
  5  6  1  0  0  0  0
  6  7  1  0  0  0  0
  6 26  2  0  0  0  0
  7  8  2  0  0  0  0
  7 40  1  0  0  0  0
  8  9  1  0  0  0  0
  8 41  1  0  0  0  0
  9 10  1  0  0  0  0
  9 11  2  0  0  0  0
 11 12  1  0  0  0  0
 11 26  1  0  0  0  0
 12 13  1  0  0  0  0
 12 42  1  0  0  0  0
 13 14  2  0  0  0  0
 13 15  1  0  0  0  0
 15 16  1  0  0  0  0
 15 43  1  0  0  0  0
 15 44  1  0  0  0  0
 16 17  1  0  0  0  0
 16 25  2  0  0  0  0
 17 18  2  0  0  0  0
 17 45  1  0  0  0  0
 18 19  1  0  0  0  0
 18 46  1  0  0  0  0
 19 20  2  0  0  0  0
 19 47  1  0  0  0  0
 20 21  1  0  0  0  0
 20 25  1  0  0  0  0
 21 22  1  0  0  0  0
 21 23  1  0  0  0  0
 21 24  1  0  0  0  0
 25 48  1  0  0  0  0
 26 49  1  0  0  0  0
 27 28  1  0  0  0  0
 27 50  1  0  0  0  0
 28 29  2  0  0  0  0
 28 51  1  0  0  0  0
 29 30  1  0  0  0  0
 29 39  1  0  0  0  0
 30 31  2  0  0  0  0
 31 32  1  0  0  0  0
 31 38  1  0  0  0  0
 32 33  1  0  0  0  0
 32 52  1  0  0  0  0
 33 34  2  0  0  0  0
 33 35  1  0  0  0  0
 35 36  1  0  0  0  0
 35 37  1  0  0  0  0
 35 53  1  0  0  0  0
 36 37  1  0  0  0  0
 36 54  1  0  0  0  0
 36 55  1  0  0  0  0
 37 56  1  0  0  0  0
 37 57  1  0  0  0  0
 38 39  1  0  0  0  0
M  END
$$$$
