CHEMBL3690392
 OpenBabel04072215373D

 51 55  0  0  0  0  0  0  0  0999 V2000
    2.0161    2.0642    0.5157 C   0  0  0  0  0  0  0  0  0  0  0  0
    2.8996    0.8967    0.1785 C   0  0  0  0  0  0  0  0  0  0  0  0
    2.4285   -0.1801   -0.4693 C   0  0  0  0  0  0  0  0  0  0  0  0
    3.3418   -1.3072   -0.7803 C   0  0  0  0  0  0  0  0  0  0  0  0
    2.9057   -2.2968   -1.3603 O   0  0  0  0  0  0  0  0  0  0  0  0
    4.6345   -1.0983   -0.3533 N   0  0  0  0  0  0  0  0  0  0  0  0
    5.6302   -2.0383   -0.5255 N   0  0  0  0  0  0  0  0  0  0  0  0
    6.7267   -1.5939    0.0014 C   0  0  0  0  0  0  0  0  0  0  0  0
    8.0269   -2.3125    0.0706 C   0  0  0  0  0  0  0  0  0  0  0  0
    8.9364   -2.1522    1.2011 C   0  0  0  0  0  0  0  0  0  0  0  0
   10.1003   -2.8200    1.2152 C   0  0  0  0  0  0  0  0  0  0  0  0
   10.4499   -3.6321    0.1351 N   0  0  0  0  0  0  0  0  0  0  0  0
   11.5995   -4.3755   -0.1113 C   0  0  0  0  0  0  0  0  0  0  0  0
   12.7913   -4.4925    0.7450 C   0  0  0  0  0  0  0  0  0  0  0  0
   13.4730   -5.7163    0.7866 C   0  0  0  0  0  0  0  0  0  0  0  0
   14.6001   -5.8785    1.5872 C   0  0  0  0  0  0  0  0  0  0  0  0
   15.0531   -4.8264    2.3789 C   0  0  0  0  0  0  0  0  0  0  0  0
   14.4078   -3.5907    2.3623 C   0  0  0  0  0  0  0  0  0  0  0  0
   14.8217   -2.4904    3.1534 N   0  0  0  0  0  0  0  0  0  0  0  0
   15.8607   -2.4816    4.0614 C   0  0  0  0  0  0  0  0  0  0  0  0
   16.5685   -3.4248    4.3816 O   0  0  0  0  0  0  0  0  0  0  0  0
   16.0987   -1.2264    4.5790 N   0  0  0  0  0  0  0  0  0  0  0  0
   17.1851   -1.0746    5.5562 C   0  0  0  0  0  0  0  0  0  0  0  0
   16.9019   -1.5767    6.9817 C   0  0  0  0  0  0  0  0  0  0  0  0
   15.6041   -1.9140    7.1585 F   0  0  0  0  0  0  0  0  0  0  0  0
   17.6653   -2.6373    7.3161 F   0  0  0  0  0  0  0  0  0  0  0  0
   17.1731   -0.5909    7.8753 F   0  0  0  0  0  0  0  0  0  0  0  0
   13.2985   -3.4248    1.5124 C   0  0  0  0  0  0  0  0  0  0  0  0
   11.3168   -5.0215   -1.3089 C   0  0  0  0  0  0  0  0  0  0  0  0
   10.0946   -4.6764   -1.8162 N   0  0  0  0  0  0  0  0  0  0  0  0
    9.5879   -3.8358   -0.9455 C   0  0  0  0  0  0  0  0  0  0  0  0
    8.3408   -3.1468   -0.9481 C   0  0  0  0  0  0  0  0  0  0  0  0
    6.6587    0.0040    0.7226 S   0  0  0  0  0  0  0  0  0  0  0  0
    4.9849    0.0475    0.3019 C   0  0  0  0  0  0  0  0  0  0  0  0
    4.2064    1.0330    0.5872 N   0  0  0  0  0  0  0  0  0  0  0  0
    0.9869    1.9159    0.1763 H   0  0  0  0  0  0  0  0  0  0  0  0
    2.4013    2.9739    0.0439 H   0  0  0  0  0  0  0  0  0  0  0  0
    1.9959    2.2210    1.5998 H   0  0  0  0  0  0  0  0  0  0  0  0
    1.4000   -0.2858   -0.7891 H   0  0  0  0  0  0  0  0  0  0  0  0
    8.6601   -1.5257    2.0426 H   0  0  0  0  0  0  0  0  0  0  0  0
   10.7748   -2.7559    2.0546 H   0  0  0  0  0  0  0  0  0  0  0  0
   13.1350   -6.5670    0.1988 H   0  0  0  0  0  0  0  0  0  0  0  0
   15.1278   -6.8285    1.6037 H   0  0  0  0  0  0  0  0  0  0  0  0
   15.9288   -5.0108    2.9920 H   0  0  0  0  0  0  0  0  0  0  0  0
   14.3022   -1.6321    3.0503 H   0  0  0  0  0  0  0  0  0  0  0  0
   15.3294   -0.5744    4.6267 H   0  0  0  0  0  0  0  0  0  0  0  0
   17.4283   -0.0084    5.5810 H   0  0  0  0  0  0  0  0  0  0  0  0
   18.0677   -1.5971    5.1675 H   0  0  0  0  0  0  0  0  0  0  0  0
   12.8380   -2.4446    1.4416 H   0  0  0  0  0  0  0  0  0  0  0  0
   11.9486   -5.7251   -1.8387 H   0  0  0  0  0  0  0  0  0  0  0  0
    7.6755   -3.3136   -1.7903 H   0  0  0  0  0  0  0  0  0  0  0  0
  1  2  1  0  0  0  0
  1 36  1  0  0  0  0
  1 37  1  0  0  0  0
  1 38  1  0  0  0  0
  2  3  2  0  0  0  0
  2 35  1  0  0  0  0
  3  4  1  0  0  0  0
  3 39  1  0  0  0  0
  4  5  2  0  0  0  0
  4  6  1  0  0  0  0
  6  7  1  0  0  0  0
  6 34  1  0  0  0  0
  7  8  2  0  0  0  0
  8  9  1  0  0  0  0
  8 33  1  0  0  0  0
  9 10  1  0  0  0  0
  9 32  2  0  0  0  0
 10 11  2  0  0  0  0
 10 40  1  0  0  0  0
 11 12  1  0  0  0  0
 11 41  1  0  0  0  0
 12 13  1  0  0  0  0
 12 31  1  0  0  0  0
 13 14  1  0  0  0  0
 13 29  2  0  0  0  0
 14 15  1  0  0  0  0
 14 28  2  0  0  0  0
 15 16  2  0  0  0  0
 15 42  1  0  0  0  0
 16 17  1  0  0  0  0
 16 43  1  0  0  0  0
 17 18  2  0  0  0  0
 17 44  1  0  0  0  0
 18 19  1  0  0  0  0
 18 28  1  0  0  0  0
 19 20  1  0  0  0  0
 19 45  1  0  0  0  0
 20 21  2  0  0  0  0
 20 22  1  0  0  0  0
 22 23  1  0  0  0  0
 22 46  1  0  0  0  0
 23 24  1  0  0  0  0
 23 47  1  0  0  0  0
 23 48  1  0  0  0  0
 24 25  1  0  0  0  0
 24 26  1  0  0  0  0
 24 27  1  0  0  0  0
 28 49  1  0  0  0  0
 29 30  1  0  0  0  0
 29 50  1  0  0  0  0
 30 31  2  0  0  0  0
 31 32  1  0  0  0  0
 32 51  1  0  0  0  0
 33 34  1  0  0  0  0
 34 35  2  0  0  0  0
M  END
$$$$
