CHEMBL389333
 OpenBabel04072215373D

 69 73  0  0  0  0  0  0  0  0999 V2000
   -3.1741    3.0211   -2.1029 C   0  0  0  0  0  0  0  0  0  0  0  0
   -3.4244    2.7709   -0.6865 N   0  0  0  0  0  0  0  0  0  0  0  0
   -4.1614    1.5113   -0.4857 C   0  0  0  0  0  0  0  0  0  0  0  0
   -4.4261    1.2482    1.0173 C   0  0  0  0  0  0  0  0  0  0  0  0
   -3.2170    1.2083    1.8787 N   0  0  0  0  0  0  0  0  0  0  0  0
   -2.3805    0.0110    1.6466 C   0  0  0  0  0  0  0  0  0  0  0  0
   -3.0967   -1.3065    1.9648 C   0  0  0  0  0  0  0  0  0  0  0  0
   -3.4467   -2.0783    1.0707 O   0  0  0  0  0  0  0  0  0  0  0  0
   -3.2728   -1.5396    3.3137 N   0  0  0  0  0  0  0  0  0  0  0  0
   -3.9146   -2.6762    3.7380 C   0  0  0  0  0  0  0  0  0  0  0  0
   -4.7629   -2.7129    4.7367 N   0  0  0  0  0  0  0  0  0  0  0  0
   -5.2393   -3.9989    4.7569 C   0  0  0  0  0  0  0  0  0  0  0  0
   -6.2841   -4.5481    5.5116 C   0  0  0  0  0  0  0  0  0  0  0  0
   -6.5437   -5.9185    5.4017 C   0  0  0  0  0  0  0  0  0  0  0  0
   -5.7188   -6.7443    4.6260 C   0  0  0  0  0  0  0  0  0  0  0  0
   -5.8443   -8.1189    4.5959 O   0  0  0  0  0  0  0  0  0  0  0  0
   -6.2229   -8.7812    5.7459 C   0  0  0  0  0  0  0  0  0  0  0  0
   -6.9940   -9.9242    5.5632 C   0  0  0  0  0  0  0  0  0  0  0  0
   -7.4809  -10.6243    6.6779 C   0  0  0  0  0  0  0  0  0  0  0  0
   -7.2045  -10.1968    7.9766 C   0  0  0  0  0  0  0  0  0  0  0  0
   -7.7331  -10.8113    9.1345 N   0  0  0  0  0  0  0  0  0  0  0  0
   -8.4715  -11.9804    9.1615 C   0  0  0  0  0  0  0  0  0  0  0  0
   -8.6752  -12.7111    8.1984 O   0  0  0  0  0  0  0  0  0  0  0  0
   -9.0055  -12.2340   10.4202 N   0  0  0  0  0  0  0  0  0  0  0  0
   -9.7891  -13.4010   10.6148 C   0  0  0  0  0  0  0  0  0  0  0  0
   -9.3598  -14.6477   10.1425 C   0  0  0  0  0  0  0  0  0  0  0  0
  -10.1894  -15.7759   10.2328 C   0  0  0  0  0  0  0  0  0  0  0  0
   -9.7286  -17.1161    9.7115 C   0  0  0  0  0  0  0  0  0  0  0  0
   -8.4607  -17.1087    9.2145 F   0  0  0  0  0  0  0  0  0  0  0  0
   -9.7387  -18.0730   10.6821 F   0  0  0  0  0  0  0  0  0  0  0  0
  -10.5222  -17.5914    8.7130 F   0  0  0  0  0  0  0  0  0  0  0  0
  -11.4652  -15.6341   10.8040 C   0  0  0  0  0  0  0  0  0  0  0  0
  -11.8833  -14.3994   11.3089 C   0  0  0  0  0  0  0  0  0  0  0  0
  -11.0345  -13.2985   11.2327 C   0  0  0  0  0  0  0  0  0  0  0  0
  -11.4558  -12.1105   11.6927 F   0  0  0  0  0  0  0  0  0  0  0  0
   -6.3753   -9.0813    8.1530 C   0  0  0  0  0  0  0  0  0  0  0  0
   -5.8623   -8.3979    7.0373 C   0  0  0  0  0  0  0  0  0  0  0  0
   -4.7330   -6.1947    3.7893 C   0  0  0  0  0  0  0  0  0  0  0  0
   -4.5412   -4.8106    3.8690 C   0  0  0  0  0  0  0  0  0  0  0  0
   -3.7396   -3.9262    3.1887 N   0  0  0  0  0  0  0  0  0  0  0  0
   -2.4276    2.4393    1.5944 C   0  0  0  0  0  0  0  0  0  0  0  0
   -2.1767    2.7501    0.0938 C   0  0  0  0  0  0  0  0  0  0  0  0
   -4.1184    3.0668   -2.6575 H   0  0  0  0  0  0  0  0  0  0  0  0
   -2.5445    2.2495   -2.5597 H   0  0  0  0  0  0  0  0  0  0  0  0
   -2.6854    3.9922   -2.2412 H   0  0  0  0  0  0  0  0  0  0  0  0
   -3.6151    0.6654   -0.9216 H   0  0  0  0  0  0  0  0  0  0  0  0
   -5.1290    1.5707   -0.9988 H   0  0  0  0  0  0  0  0  0  0  0  0
   -5.0191    0.3348    1.1352 H   0  0  0  0  0  0  0  0  0  0  0  0
   -5.0716    2.0556    1.3929 H   0  0  0  0  0  0  0  0  0  0  0  0
   -1.5037    0.0531    2.3053 H   0  0  0  0  0  0  0  0  0  0  0  0
   -2.0073   -0.0533    0.6198 H   0  0  0  0  0  0  0  0  0  0  0  0
   -3.3769   -0.7293    3.9127 H   0  0  0  0  0  0  0  0  0  0  0  0
   -6.8784   -3.9153    6.1587 H   0  0  0  0  0  0  0  0  0  0  0  0
   -7.3759   -6.3348    5.9624 H   0  0  0  0  0  0  0  0  0  0  0  0
   -7.2432  -10.2683    4.5676 H   0  0  0  0  0  0  0  0  0  0  0  0
   -8.0910  -11.4998    6.4731 H   0  0  0  0  0  0  0  0  0  0  0  0
   -7.4677  -10.4286   10.0296 H   0  0  0  0  0  0  0  0  0  0  0  0
   -9.3427  -11.4086   10.9038 H   0  0  0  0  0  0  0  0  0  0  0  0
   -8.3779  -14.7403    9.6783 H   0  0  0  0  0  0  0  0  0  0  0  0
  -12.1385  -16.4895   10.8505 H   0  0  0  0  0  0  0  0  0  0  0  0
  -12.8742  -14.2855   11.7380 H   0  0  0  0  0  0  0  0  0  0  0  0
   -6.1210   -8.7219    9.1411 H   0  0  0  0  0  0  0  0  0  0  0  0
   -5.2124   -7.5418    7.2031 H   0  0  0  0  0  0  0  0  0  0  0  0
   -4.1457   -6.8227    3.1270 H   0  0  0  0  0  0  0  0  0  0  0  0
   -3.1245   -4.1373    2.4134 H   0  0  0  0  0  0  0  0  0  0  0  0
   -1.4655    2.3978    2.1204 H   0  0  0  0  0  0  0  0  0  0  0  0
   -2.9639    3.2910    2.0346 H   0  0  0  0  0  0  0  0  0  0  0  0
   -1.4747    2.0146   -0.3221 H   0  0  0  0  0  0  0  0  0  0  0  0
   -1.6885    3.7318    0.0233 H   0  0  0  0  0  0  0  0  0  0  0  0
  1  2  1  0  0  0  0
  1 43  1  0  0  0  0
  1 44  1  0  0  0  0
  1 45  1  0  0  0  0
  2  3  1  0  0  0  0
  2 42  1  0  0  0  0
  3  4  1  0  0  0  0
  3 46  1  0  0  0  0
  3 47  1  0  0  0  0
  4  5  1  0  0  0  0
  4 48  1  0  0  0  0
  4 49  1  0  0  0  0
  5  6  1  0  0  0  0
  5 41  1  0  0  0  0
  6  7  1  0  0  0  0
  6 50  1  0  0  0  0
  6 51  1  0  0  0  0
  7  8  2  0  0  0  0
  7  9  1  0  0  0  0
  9 10  1  0  0  0  0
  9 52  1  0  0  0  0
 10 11  2  0  0  0  0
 10 40  1  0  0  0  0
 11 12  1  0  0  0  0
 12 13  1  0  0  0  0
 12 39  2  0  0  0  0
 13 14  2  0  0  0  0
 13 53  1  0  0  0  0
 14 15  1  0  0  0  0
 14 54  1  0  0  0  0
 15 16  1  0  0  0  0
 15 38  2  0  0  0  0
 16 17  1  0  0  0  0
 17 18  1  0  0  0  0
 17 37  2  0  0  0  0
 18 19  2  0  0  0  0
 18 55  1  0  0  0  0
 19 20  1  0  0  0  0
 19 56  1  0  0  0  0
 20 21  1  0  0  0  0
 20 36  2  0  0  0  0
 21 22  1  0  0  0  0
 21 57  1  0  0  0  0
 22 23  2  0  0  0  0
 22 24  1  0  0  0  0
 24 25  1  0  0  0  0
 24 58  1  0  0  0  0
 25 26  1  0  0  0  0
 25 34  2  0  0  0  0
 26 27  2  0  0  0  0
 26 59  1  0  0  0  0
 27 28  1  0  0  0  0
 27 32  1  0  0  0  0
 28 29  1  0  0  0  0
 28 30  1  0  0  0  0
 28 31  1  0  0  0  0
 32 33  2  0  0  0  0
 32 60  1  0  0  0  0
 33 34  1  0  0  0  0
 33 61  1  0  0  0  0
 34 35  1  0  0  0  0
 36 37  1  0  0  0  0
 36 62  1  0  0  0  0
 37 63  1  0  0  0  0
 38 39  1  0  0  0  0
 38 64  1  0  0  0  0
 39 40  1  0  0  0  0
 40 65  1  0  0  0  0
 41 42  1  0  0  0  0
 41 66  1  0  0  0  0
 41 67  1  0  0  0  0
 42 68  1  0  0  0  0
 42 69  1  0  0  0  0
M  END
$$$$
