CHEMBL4459564
 OpenBabel04072215383D

 48 51  0  0  0  0  0  0  0  0999 V2000
    0.9719   -0.1895   -0.0223 O   0  0  0  0  0  0  0  0  0  0  0  0
    2.1853   -0.0374    0.0336 C   0  0  0  0  0  0  0  0  0  0  0  0
    2.8829    1.0926   -0.3481 N   0  0  0  0  0  0  0  0  0  0  0  0
    2.2999    2.2323   -0.8610 C   0  0  0  0  0  0  0  0  0  0  0  0
    0.9605    2.5845   -1.0992 C   0  0  0  0  0  0  0  0  0  0  0  0
    0.8442    3.7997   -1.6434 N   0  0  0  0  0  0  0  0  0  0  0  0
    2.1233    4.2334   -1.7938 N   0  0  0  0  0  0  0  0  0  0  0  0
    2.4153    5.4624   -2.4503 C   0  0  0  0  0  0  0  0  0  0  0  0
    1.3634    6.2529   -2.9360 C   0  0  0  0  0  0  0  0  0  0  0  0
    1.6346    7.4403   -3.6198 C   0  0  0  0  0  0  0  0  0  0  0  0
    2.9522    7.8462   -3.8221 C   0  0  0  0  0  0  0  0  0  0  0  0
    4.0023    7.0704   -3.3358 C   0  0  0  0  0  0  0  0  0  0  0  0
    3.7391    5.8822   -2.6491 C   0  0  0  0  0  0  0  0  0  0  0  0
    3.0217    3.3245   -1.2745 C   0  0  0  0  0  0  0  0  0  0  0  0
    3.0420   -1.1609    0.5097 C   0  0  0  0  0  0  0  0  0  0  0  0
    2.6494   -2.4780    0.2357 C   0  0  0  0  0  0  0  0  0  0  0  0
    3.4558   -3.5513    0.6370 C   0  0  0  0  0  0  0  0  0  0  0  0
    4.6407   -3.3027    1.3287 C   0  0  0  0  0  0  0  0  0  0  0  0
    5.4973   -4.3565    1.7441 N   0  0  0  0  0  0  0  0  0  0  0  0
    6.6465   -4.9504    0.6578 S   0  0  0  0  0  0  0  0  0  0  0  0
    7.3139   -6.0392    1.3370 O   0  0  0  0  0  0  0  0  0  0  0  0
    6.0160   -5.1518   -0.6297 O   0  0  0  0  0  0  0  0  0  0  0  0
    7.8202   -3.6190    0.5040 C   0  0  0  0  0  0  0  0  0  0  0  0
    8.9017   -3.5245    1.3849 C   0  0  0  0  0  0  0  0  0  0  0  0
    9.8495   -2.5097    1.2054 C   0  0  0  0  0  0  0  0  0  0  0  0
    9.7126   -1.6074    0.1494 C   0  0  0  0  0  0  0  0  0  0  0  0
   10.8866   -0.3706   -0.0787 Cl  0  0  0  0  0  0  0  0  0  0  0  0
    8.6383   -1.7075   -0.7336 C   0  0  0  0  0  0  0  0  0  0  0  0
    7.6887   -2.7162   -0.5598 C   0  0  0  0  0  0  0  0  0  0  0  0
    5.0228   -1.9947    1.6218 C   0  0  0  0  0  0  0  0  0  0  0  0
    4.2256   -0.9232    1.2197 C   0  0  0  0  0  0  0  0  0  0  0  0
    3.8942    1.0788   -0.3434 H   0  0  0  0  0  0  0  0  0  0  0  0
    0.0638    2.0086   -0.9082 H   0  0  0  0  0  0  0  0  0  0  0  0
    0.3263    5.9518   -2.7972 H   0  0  0  0  0  0  0  0  0  0  0  0
    0.8145    8.0442   -3.9997 H   0  0  0  0  0  0  0  0  0  0  0  0
    3.1605    8.7667   -4.3614 H   0  0  0  0  0  0  0  0  0  0  0  0
    5.0298    7.3877   -3.4968 H   0  0  0  0  0  0  0  0  0  0  0  0
    4.5897    5.3089   -2.2962 H   0  0  0  0  0  0  0  0  0  0  0  0
    4.0824    3.5125   -1.2675 H   0  0  0  0  0  0  0  0  0  0  0  0
    1.7213   -2.6691   -0.3019 H   0  0  0  0  0  0  0  0  0  0  0  0
    3.1495   -4.5664    0.3958 H   0  0  0  0  0  0  0  0  0  0  0  0
    5.0746   -5.1198    2.2731 H   0  0  0  0  0  0  0  0  0  0  0  0
    9.0246   -4.2371    2.1975 H   0  0  0  0  0  0  0  0  0  0  0  0
   10.6989   -2.4375    1.8806 H   0  0  0  0  0  0  0  0  0  0  0  0
    8.5384   -1.0099   -1.5622 H   0  0  0  0  0  0  0  0  0  0  0  0
    6.8617   -2.8043   -1.2643 H   0  0  0  0  0  0  0  0  0  0  0  0
    5.9360   -1.8033    2.1798 H   0  0  0  0  0  0  0  0  0  0  0  0
    4.5307    0.0827    1.4935 H   0  0  0  0  0  0  0  0  0  0  0  0
  1  2  2  0  0  0  0
  2  3  1  0  0  0  0
  2 15  1  0  0  0  0
  3  4  1  0  0  0  0
  3 32  1  0  0  0  0
  4  5  1  0  0  0  0
  4 14  2  0  0  0  0
  5  6  2  0  0  0  0
  5 33  1  0  0  0  0
  6  7  1  0  0  0  0
  7  8  1  0  0  0  0
  7 14  1  0  0  0  0
  8  9  1  0  0  0  0
  8 13  2  0  0  0  0
  9 10  2  0  0  0  0
  9 34  1  0  0  0  0
 10 11  1  0  0  0  0
 10 35  1  0  0  0  0
 11 12  2  0  0  0  0
 11 36  1  0  0  0  0
 12 13  1  0  0  0  0
 12 37  1  0  0  0  0
 13 38  1  0  0  0  0
 14 39  1  0  0  0  0
 15 16  1  0  0  0  0
 15 31  2  0  0  0  0
 16 17  2  0  0  0  0
 16 40  1  0  0  0  0
 17 18  1  0  0  0  0
 17 41  1  0  0  0  0
 18 19  1  0  0  0  0
 18 30  2  0  0  0  0
 19 20  1  0  0  0  0
 19 42  1  0  0  0  0
 20 21  2  0  0  0  0
 20 22  2  0  0  0  0
 20 23  1  0  0  0  0
 23 24  1  0  0  0  0
 23 29  2  0  0  0  0
 24 25  2  0  0  0  0
 24 43  1  0  0  0  0
 25 26  1  0  0  0  0
 25 44  1  0  0  0  0
 26 27  1  0  0  0  0
 26 28  2  0  0  0  0
 28 29  1  0  0  0  0
 28 45  1  0  0  0  0
 29 46  1  0  0  0  0
 30 31  1  0  0  0  0
 30 47  1  0  0  0  0
 31 48  1  0  0  0  0
M  END
$$$$
