CHEMBL1983963
 OpenBabel04072215363D

 44 47  0  0  0  0  0  0  0  0999 V2000
    2.3609   -0.4287    1.4982 C   0  0  0  0  0  0  0  0  0  0  0  0
    0.8659   -0.3101    1.4769 C   0  0  0  0  0  0  0  0  0  0  0  0
    0.2584    0.8767    1.9020 C   0  0  0  0  0  0  0  0  0  0  0  0
   -1.1245    0.9922    1.8917 C   0  0  0  0  0  0  0  0  0  0  0  0
   -1.9122   -0.0734    1.4534 C   0  0  0  0  0  0  0  0  0  0  0  0
   -1.3363   -1.2652    1.0062 C   0  0  0  0  0  0  0  0  0  0  0  0
   -2.1008   -2.3712    0.5508 N   0  0  0  0  0  0  0  0  0  0  0  0
   -3.4744   -2.3696    0.3470 C   0  0  0  0  0  0  0  0  0  0  0  0
   -4.2054   -1.3924    0.4599 O   0  0  0  0  0  0  0  0  0  0  0  0
   -3.9591   -3.6431    0.0412 N   0  0  0  0  0  0  0  0  0  0  0  0
   -5.3459   -3.8333   -0.1820 C   0  0  0  0  0  0  0  0  0  0  0  0
   -6.0924   -2.9319   -0.9460 C   0  0  0  0  0  0  0  0  0  0  0  0
   -7.4875   -3.0142   -0.9861 C   0  0  0  0  0  0  0  0  0  0  0  0
   -8.1595   -4.0134   -0.2726 C   0  0  0  0  0  0  0  0  0  0  0  0
   -9.6124   -3.9937   -0.1498 C   0  0  0  0  0  0  0  0  0  0  0  0
  -10.4547   -3.5732   -1.1633 C   0  0  0  0  0  0  0  0  0  0  0  0
  -11.7522   -3.6218   -0.7756 O   0  0  0  0  0  0  0  0  0  0  0  0
  -11.7731   -4.0661    0.5099 C   0  0  0  0  0  0  0  0  0  0  0  0
  -12.9140   -4.2202    1.1945 N   0  0  0  0  0  0  0  0  0  0  0  0
  -12.6822   -4.6507    2.4372 C   0  0  0  0  0  0  0  0  0  0  0  0
  -11.4938   -4.9053    3.0120 N   0  0  0  0  0  0  0  0  0  0  0  0
  -10.3706   -4.7238    2.2896 C   0  0  0  0  0  0  0  0  0  0  0  0
   -9.1760   -4.9592    2.9587 N   0  0  0  0  0  0  0  0  0  0  0  0
  -10.4776   -4.2991    0.9568 C   0  0  0  0  0  0  0  0  0  0  0  0
   -7.3938   -4.9909    0.3781 C   0  0  0  0  0  0  0  0  0  0  0  0
   -5.9957   -4.9024    0.4310 C   0  0  0  0  0  0  0  0  0  0  0  0
    0.0612   -1.3784    1.0287 C   0  0  0  0  0  0  0  0  0  0  0  0
    2.8268    0.4841    1.8880 H   0  0  0  0  0  0  0  0  0  0  0  0
    2.7447   -0.5907    0.4859 H   0  0  0  0  0  0  0  0  0  0  0  0
    2.6672   -1.2567    2.1443 H   0  0  0  0  0  0  0  0  0  0  0  0
    0.8553    1.7172    2.2471 H   0  0  0  0  0  0  0  0  0  0  0  0
   -1.6023    1.9114    2.2217 H   0  0  0  0  0  0  0  0  0  0  0  0
   -2.9855    0.0770    1.4803 H   0  0  0  0  0  0  0  0  0  0  0  0
   -1.5922   -3.1771    0.2116 H   0  0  0  0  0  0  0  0  0  0  0  0
   -3.4714   -4.3960    0.5043 H   0  0  0  0  0  0  0  0  0  0  0  0
   -5.6004   -2.1197   -1.4780 H   0  0  0  0  0  0  0  0  0  0  0  0
   -8.0287   -2.2490   -1.5378 H   0  0  0  0  0  0  0  0  0  0  0  0
  -10.2964   -3.2206   -2.1735 H   0  0  0  0  0  0  0  0  0  0  0  0
  -13.5555   -4.8080    3.0634 H   0  0  0  0  0  0  0  0  0  0  0  0
   -9.3524   -5.0333    3.9553 H   0  0  0  0  0  0  0  0  0  0  0  0
   -8.4379   -4.3132    2.7051 H   0  0  0  0  0  0  0  0  0  0  0  0
   -7.8783   -5.8151    0.8981 H   0  0  0  0  0  0  0  0  0  0  0  0
   -5.4478   -5.6260    1.0274 H   0  0  0  0  0  0  0  0  0  0  0  0
    0.5452   -2.2934    0.6963 H   0  0  0  0  0  0  0  0  0  0  0  0
  1  2  1  0  0  0  0
  1 28  1  0  0  0  0
  1 29  1  0  0  0  0
  1 30  1  0  0  0  0
  2  3  1  0  0  0  0
  2 27  2  0  0  0  0
  3  4  2  0  0  0  0
  3 31  1  0  0  0  0
  4  5  1  0  0  0  0
  4 32  1  0  0  0  0
  5  6  2  0  0  0  0
  5 33  1  0  0  0  0
  6  7  1  0  0  0  0
  6 27  1  0  0  0  0
  7  8  1  0  0  0  0
  7 34  1  0  0  0  0
  8  9  2  0  0  0  0
  8 10  1  0  0  0  0
 10 11  1  0  0  0  0
 10 35  1  0  0  0  0
 11 12  1  0  0  0  0
 11 26  2  0  0  0  0
 12 13  2  0  0  0  0
 12 36  1  0  0  0  0
 13 14  1  0  0  0  0
 13 37  1  0  0  0  0
 14 15  1  0  0  0  0
 14 25  2  0  0  0  0
 15 16  2  0  0  0  0
 15 24  1  0  0  0  0
 16 17  1  0  0  0  0
 16 38  1  0  0  0  0
 17 18  1  0  0  0  0
 18 19  1  0  0  0  0
 18 24  2  0  0  0  0
 19 20  2  0  0  0  0
 20 21  1  0  0  0  0
 20 39  1  0  0  0  0
 21 22  2  0  0  0  0
 22 23  1  0  0  0  0
 22 24  1  0  0  0  0
 23 40  1  0  0  0  0
 23 41  1  0  0  0  0
 25 26  1  0  0  0  0
 25 42  1  0  0  0  0
 26 43  1  0  0  0  0
 27 44  1  0  0  0  0
M  END
$$$$
