CHEMBL4513894
 OpenBabel04072215383D

 60 64  0  0  1  0  0  0  0  0999 V2000
    1.7842    7.0370   12.8814 C   0  0  0  0  0  0  0  0  0  0  0  0
    2.2543    5.7601   12.1931 C   0  0  3  0  0  0  0  0  0  0  0  0
    1.1841    4.8110   12.1549 O   0  0  0  0  0  0  0  0  0  0  0  0
    2.7833    6.0386   10.7817 C   0  0  0  0  0  0  0  0  0  0  0  0
    2.8721    7.1884   10.3622 O   0  0  0  0  0  0  0  0  0  0  0  0
    3.1143    4.8612   10.1301 N   0  0  0  0  0  0  0  0  0  0  0  0
    3.6734    4.8149    8.8517 C   0  0  0  0  0  0  0  0  0  0  0  0
    3.7063    3.5907    8.2093 C   0  0  0  0  0  0  0  0  0  0  0  0
    4.1160    3.5529    6.8759 C   0  0  0  0  0  0  0  0  0  0  0  0
    4.0876    2.4176    6.0978 O   0  0  0  0  0  0  0  0  0  0  0  0
    3.0694    1.5064    6.2724 C   0  0  0  0  0  0  0  0  0  0  0  0
    1.7625    1.8513    6.6178 C   0  0  0  0  0  0  0  0  0  0  0  0
    0.8032    0.8491    6.7729 C   0  0  0  0  0  0  0  0  0  0  0  0
    1.1067   -0.5015    6.5059 C   0  0  0  0  0  0  0  0  0  0  0  0
    0.0252   -1.4101    6.4549 N   0  0  0  0  0  0  0  0  0  0  0  0
    0.0390   -2.8241    6.4489 C   0  0  0  0  0  0  0  0  0  0  0  0
   -0.2026   -3.3217    7.7046 N   0  0  0  0  0  0  0  0  0  0  0  0
   -0.9371   -4.4436    7.8430 C   0  0  0  0  0  0  0  0  0  0  0  0
   -1.5792   -5.0145    6.7925 C   0  0  0  0  0  0  0  0  0  0  0  0
   -1.2935   -4.5278    5.5311 C   0  0  0  0  0  0  0  0  0  0  0  0
   -1.9706   -5.1202    4.4482 N   0  0  0  0  0  0  0  0  0  0  0  0
   -1.0868   -5.5152    3.4864 C   0  0  0  0  0  0  0  0  0  0  0  0
   -0.0797   -4.7476    3.0283 C   0  0  0  0  0  0  0  0  0  0  0  0
    0.1258   -5.1482    1.6101 C   0  0  0  0  0  0  0  0  0  0  0  0
   -0.8315   -4.6235    0.7132 C   0  0  0  0  0  0  0  0  0  0  0  0
   -1.3833   -5.4289   -0.2914 C   0  0  0  0  0  0  0  0  0  0  0  0
   -0.9323   -6.7317   -0.4618 C   0  0  0  0  0  0  0  0  0  0  0  0
   -1.5467   -7.5329   -1.3431 F   0  0  0  0  0  0  0  0  0  0  0  0
    0.1002   -7.2337    0.3211 C   0  0  0  0  0  0  0  0  0  0  0  0
    0.6470   -6.4410    1.3445 C   0  0  0  0  0  0  0  0  0  0  0  0
    0.1709   -3.4645    3.8662 C   0  0  0  0  0  0  0  0  0  0  0  0
    0.8032   -2.5128    3.3995 O   0  0  0  0  0  0  0  0  0  0  0  0
   -0.3310   -3.5404    5.3065 C   0  0  0  0  0  0  0  0  0  0  0  0
    2.4058   -0.8335    6.1346 C   0  0  0  0  0  0  0  0  0  0  0  0
    3.3723    0.1661    6.0210 C   0  0  0  0  0  0  0  0  0  0  0  0
    4.6125   -0.1782    5.6426 F   0  0  0  0  0  0  0  0  0  0  0  0
    4.6133    4.7006    6.2711 C   0  0  0  0  0  0  0  0  0  0  0  0
    4.6156    5.8604    7.0159 C   0  0  0  0  0  0  0  0  0  0  0  0
    4.1381    5.9363    8.2743 N   0  0  0  0  0  0  0  0  0  0  0  0
    1.4101    6.8341   13.8917 H   0  0  0  0  0  0  0  0  0  0  0  0
    0.9597    7.5061   12.3269 H   0  0  0  0  0  0  0  0  0  0  0  0
    2.5988    7.7687   12.9495 H   0  0  0  0  0  0  0  0  0  0  0  0
    3.0601    5.3144   12.7850 H   0  0  0  0  0  0  0  0  0  0  0  0
    0.4125    5.2820   11.7894 H   0  0  0  0  0  0  0  0  0  0  0  0
    2.7985    3.9950   10.5582 H   0  0  0  0  0  0  0  0  0  0  0  0
    3.3627    2.6929    8.7097 H   0  0  0  0  0  0  0  0  0  0  0  0
    1.4658    2.8885    6.7554 H   0  0  0  0  0  0  0  0  0  0  0  0
   -0.2059    1.1366    7.0653 H   0  0  0  0  0  0  0  0  0  0  0  0
   -0.5584   -1.1969    7.2697 H   0  0  0  0  0  0  0  0  0  0  0  0
   -1.0422   -4.8519    8.8445 H   0  0  0  0  0  0  0  0  0  0  0  0
   -2.2589   -5.8573    6.9014 H   0  0  0  0  0  0  0  0  0  0  0  0
   -2.4747   -4.3235    4.0192 H   0  0  0  0  0  0  0  0  0  0  0  0
   -1.4307   -6.4270    3.0156 H   0  0  0  0  0  0  0  0  0  0  0  0
   -1.3021   -3.6645    0.9238 H   0  0  0  0  0  0  0  0  0  0  0  0
   -2.2280   -5.0781   -0.8770 H   0  0  0  0  0  0  0  0  0  0  0  0
    0.3999   -8.2712    0.1955 H   0  0  0  0  0  0  0  0  0  0  0  0
    1.3288   -6.9185    2.0481 H   0  0  0  0  0  0  0  0  0  0  0  0
    2.6808   -1.8571    5.9085 H   0  0  0  0  0  0  0  0  0  0  0  0
    4.9784    4.6943    5.2520 H   0  0  0  0  0  0  0  0  0  0  0  0
    4.9963    6.7956    6.6150 H   0  0  0  0  0  0  0  0  0  0  0  0
  1  2  1  0  0  0  0
  1 40  1  0  0  0  0
  1 41  1  0  0  0  0
  1 42  1  0  0  0  0
  2  3  1  0  0  0  0
  2  4  1  0  0  0  0
  2 43  1  0  0  0  0
  3 44  1  0  0  0  0
  4  5  2  0  0  0  0
  4  6  1  0  0  0  0
  6  7  1  0  0  0  0
  6 45  1  0  0  0  0
  7  8  1  0  0  0  0
  7 39  2  0  0  0  0
  8  9  2  0  0  0  0
  8 46  1  0  0  0  0
  9 10  1  0  0  0  0
  9 37  1  0  0  0  0
 10 11  1  0  0  0  0
 11 12  1  0  0  0  0
 11 35  2  0  0  0  0
 12 13  2  0  0  0  0
 12 47  1  0  0  0  0
 13 14  1  0  0  0  0
 13 48  1  0  0  0  0
 14 15  1  0  0  0  0
 14 34  2  0  0  0  0
 15 16  1  0  0  0  0
 15 49  1  0  0  0  0
 16 17  1  0  0  0  0
 16 33  2  0  0  0  0
 17 18  2  0  0  0  0
 18 19  1  0  0  0  0
 18 50  1  0  0  0  0
 19 20  2  0  0  0  0
 19 51  1  0  0  0  0
 20 21  1  0  0  0  0
 20 33  1  0  0  0  0
 21 22  1  0  0  0  0
 21 52  1  0  0  0  0
 22 23  2  0  0  0  0
 22 53  1  0  0  0  0
 23 24  1  0  0  0  0
 23 31  1  0  0  0  0
 24 25  1  0  0  0  0
 24 30  2  0  0  0  0
 25 26  2  0  0  0  0
 25 54  1  0  0  0  0
 26 27  1  0  0  0  0
 26 55  1  0  0  0  0
 27 28  1  0  0  0  0
 27 29  2  0  0  0  0
 29 30  1  0  0  0  0
 29 56  1  0  0  0  0
 30 57  1  0  0  0  0
 31 32  2  0  0  0  0
 31 33  1  0  0  0  0
 34 35  1  0  0  0  0
 34 58  1  0  0  0  0
 35 36  1  0  0  0  0
 37 38  2  0  0  0  0
 37 59  1  0  0  0  0
 38 39  1  0  0  0  0
 38 60  1  0  0  0  0
M  END
$$$$
