CHEMBL178583
 OpenBabel04072215363D

 58 61  0  0  0  0  0  0  0  0999 V2000
   -1.2563   -1.2782   -2.7161 C   0  0  0  0  0  0  0  0  0  0  0  0
   -0.1164   -0.5637   -2.0517 C   0  0  0  0  0  0  0  0  0  0  0  0
   -0.0184    0.8325   -2.0976 C   0  0  0  0  0  0  0  0  0  0  0  0
    1.0447    1.4936   -1.4695 C   0  0  0  0  0  0  0  0  0  0  0  0
    2.0415    0.7718   -0.8026 C   0  0  0  0  0  0  0  0  0  0  0  0
    3.0993    1.4658   -0.1694 N   0  0  0  0  0  0  0  0  0  0  0  0
    4.3672    0.9408    0.0027 C   0  0  0  0  0  0  0  0  0  0  0  0
    4.8606    0.1494   -0.9105 N   0  0  0  0  0  0  0  0  0  0  0  0
    6.1120   -0.3771   -0.7721 C   0  0  0  0  0  0  0  0  0  0  0  0
    6.9236   -0.1828    0.2152 N   0  0  0  0  0  0  0  0  0  0  0  0
    6.4338    0.6314    1.1573 N   0  0  0  0  0  0  0  0  0  0  0  0
    7.1028    0.9801    2.2870 C   0  0  0  0  0  0  0  0  0  0  0  0
    6.3234    1.8478    3.0362 C   0  0  0  0  0  0  0  0  0  0  0  0
    6.7472    2.4309    4.3230 C   0  0  0  0  0  0  0  0  0  0  0  0
    5.9593    2.7936    5.1886 O   0  0  0  0  0  0  0  0  0  0  0  0
    8.1139    2.5354    4.4380 N   0  0  0  0  0  0  0  0  0  0  0  0
    8.8236    3.0189    5.6108 C   0  0  0  0  0  0  0  0  0  0  0  0
   10.3261    2.9871    5.3218 C   0  0  0  0  0  0  0  0  0  0  0  0
   11.2093    3.4136    6.5002 C   0  0  0  0  0  0  0  0  0  0  0  0
   12.6424    3.4350    6.1405 N   0  0  0  0  0  0  0  0  0  0  0  0
   13.1994    2.1197    5.7823 C   0  0  0  0  0  0  0  0  0  0  0  0
   13.7114    1.5431    7.0839 C   0  0  0  0  0  0  0  0  0  0  0  0
   14.3393    2.7556    7.7338 C   0  0  0  0  0  0  0  0  0  0  0  0
   13.4747    3.9240    7.2632 C   0  0  0  0  0  0  0  0  0  0  0  0
    5.0825    1.9903    2.3034 C   0  0  0  0  0  0  0  0  0  0  0  0
    3.9069    2.8113    2.7080 C   0  0  0  0  0  0  0  0  0  0  0  0
    5.2088    1.2288    1.1401 C   0  0  0  0  0  0  0  0  0  0  0  0
    1.9359   -0.6244   -0.7540 C   0  0  0  0  0  0  0  0  0  0  0  0
    0.8695   -1.2777   -1.3699 C   0  0  0  0  0  0  0  0  0  0  0  0
    0.7737   -2.6399   -1.3082 O   0  0  0  0  0  0  0  0  0  0  0  0
   -1.9303   -0.5790   -3.2214 H   0  0  0  0  0  0  0  0  0  0  0  0
   -1.8413   -1.8282   -1.9717 H   0  0  0  0  0  0  0  0  0  0  0  0
   -0.8786   -1.9788   -3.4682 H   0  0  0  0  0  0  0  0  0  0  0  0
   -0.7666    1.4168   -2.6289 H   0  0  0  0  0  0  0  0  0  0  0  0
    1.1042    2.5774   -1.5356 H   0  0  0  0  0  0  0  0  0  0  0  0
    2.7544    2.0819    0.5526 H   0  0  0  0  0  0  0  0  0  0  0  0
    6.4449   -1.0364   -1.5912 H   0  0  0  0  0  0  0  0  0  0  0  0
    8.0833    0.5603    2.4671 H   0  0  0  0  0  0  0  0  0  0  0  0
    8.6628    2.3456    3.6111 H   0  0  0  0  0  0  0  0  0  0  0  0
    8.5669    2.3677    6.4541 H   0  0  0  0  0  0  0  0  0  0  0  0
    8.4758    4.0308    5.8384 H   0  0  0  0  0  0  0  0  0  0  0  0
   10.5379    3.6304    4.4573 H   0  0  0  0  0  0  0  0  0  0  0  0
   10.5723    1.9652    5.0138 H   0  0  0  0  0  0  0  0  0  0  0  0
   11.0271    2.7661    7.3657 H   0  0  0  0  0  0  0  0  0  0  0  0
   10.9128    4.4318    6.7861 H   0  0  0  0  0  0  0  0  0  0  0  0
   14.0399    2.2799    5.0937 H   0  0  0  0  0  0  0  0  0  0  0  0
   12.5148    1.4386    5.2745 H   0  0  0  0  0  0  0  0  0  0  0  0
   14.4274    0.7308    6.9312 H   0  0  0  0  0  0  0  0  0  0  0  0
   12.8834    1.1648    7.6950 H   0  0  0  0  0  0  0  0  0  0  0  0
   15.3665    2.8782    7.3681 H   0  0  0  0  0  0  0  0  0  0  0  0
   14.3742    2.6659    8.8232 H   0  0  0  0  0  0  0  0  0  0  0  0
   14.1163    4.7429    6.9170 H   0  0  0  0  0  0  0  0  0  0  0  0
   12.8775    4.3149    8.0948 H   0  0  0  0  0  0  0  0  0  0  0  0
    4.0548    3.3227    3.6611 H   0  0  0  0  0  0  0  0  0  0  0  0
    3.0187    2.1780    2.8056 H   0  0  0  0  0  0  0  0  0  0  0  0
    3.7050    3.5789    1.9531 H   0  0  0  0  0  0  0  0  0  0  0  0
    2.6863   -1.2011   -0.2226 H   0  0  0  0  0  0  0  0  0  0  0  0
    1.5475   -2.9833   -0.8319 H   0  0  0  0  0  0  0  0  0  0  0  0
  1  2  1  0  0  0  0
  1 31  1  0  0  0  0
  1 32  1  0  0  0  0
  1 33  1  0  0  0  0
  2  3  1  0  0  0  0
  2 29  2  0  0  0  0
  3  4  2  0  0  0  0
  3 34  1  0  0  0  0
  4  5  1  0  0  0  0
  4 35  1  0  0  0  0
  5  6  1  0  0  0  0
  5 28  2  0  0  0  0
  6  7  1  0  0  0  0
  6 36  1  0  0  0  0
  7  8  2  0  0  0  0
  7 27  1  0  0  0  0
  8  9  1  0  0  0  0
  9 10  2  0  0  0  0
  9 37  1  0  0  0  0
 10 11  1  0  0  0  0
 11 12  1  0  0  0  0
 11 27  1  0  0  0  0
 12 13  2  0  0  0  0
 12 38  1  0  0  0  0
 13 14  1  0  0  0  0
 13 25  1  0  0  0  0
 14 15  2  0  0  0  0
 14 16  1  0  0  0  0
 16 17  1  0  0  0  0
 16 39  1  0  0  0  0
 17 18  1  0  0  0  0
 17 40  1  0  0  0  0
 17 41  1  0  0  0  0
 18 19  1  0  0  0  0
 18 42  1  0  0  0  0
 18 43  1  0  0  0  0
 19 20  1  0  0  0  0
 19 44  1  0  0  0  0
 19 45  1  0  0  0  0
 20 21  1  0  0  0  0
 20 24  1  0  0  0  0
 21 22  1  0  0  0  0
 21 46  1  0  0  0  0
 21 47  1  0  0  0  0
 22 23  1  0  0  0  0
 22 48  1  0  0  0  0
 22 49  1  0  0  0  0
 23 24  1  0  0  0  0
 23 50  1  0  0  0  0
 23 51  1  0  0  0  0
 24 52  1  0  0  0  0
 24 53  1  0  0  0  0
 25 26  1  0  0  0  0
 25 27  2  0  0  0  0
 26 54  1  0  0  0  0
 26 55  1  0  0  0  0
 26 56  1  0  0  0  0
 28 29  1  0  0  0  0
 28 57  1  0  0  0  0
 29 30  1  0  0  0  0
 30 58  1  0  0  0  0
M  END
$$$$
