CHEMBL3893373
 OpenBabel04072215373D

 61 64  0  0  0  0  0  0  0  0999 V2000
    2.5319   -1.2863    1.9811 C   0  0  0  0  0  0  0  0  0  0  0  0
    3.2722   -0.6974    0.8709 N   0  0  0  0  0  0  0  0  0  0  0  0
    3.7845   -1.7620   -0.0172 C   0  0  0  0  0  0  0  0  0  0  0  0
    4.6722   -1.1734   -1.1337 C   0  0  0  0  0  0  0  0  0  0  0  0
    5.3227   -2.2337   -2.0018 N   0  0  0  0  0  0  0  0  0  0  0  0
    4.3497   -2.8780   -2.8581 C   0  0  0  0  0  0  0  0  0  0  0  0
    3.0505   -2.3127   -3.0705 C   0  0  0  0  0  0  0  0  0  0  0  0
    2.0029   -2.9658   -3.7495 C   0  0  0  0  0  0  0  0  0  0  0  0
    0.7162   -2.5004   -3.8952 O   0  0  0  0  0  0  0  0  0  0  0  0
    0.3808   -1.2514   -3.2935 C   0  0  0  0  0  0  0  0  0  0  0  0
    2.2527   -4.1949   -4.3256 C   0  0  0  0  0  0  0  0  0  0  0  0
    3.5432   -4.7240   -4.2609 C   0  0  0  0  0  0  0  0  0  0  0  0
    3.9010   -5.9068   -4.8597 O   0  0  0  0  0  0  0  0  0  0  0  0
    3.1518   -6.2343   -6.0305 C   0  0  0  0  0  0  0  0  0  0  0  0
    4.5667   -4.0860   -3.5192 C   0  0  0  0  0  0  0  0  0  0  0  0
    6.7735   -2.2584   -1.9503 C   0  0  0  0  0  0  0  0  0  0  0  0
    7.4235   -1.0630   -1.6155 C   0  0  0  0  0  0  0  0  0  0  0  0
    8.7946   -0.8881   -1.6836 C   0  0  0  0  0  0  0  0  0  0  0  0
    9.6332   -1.8913   -2.0341 C   0  0  0  0  0  0  0  0  0  0  0  0
   10.8885   -1.4625   -2.1724 N   0  0  0  0  0  0  0  0  0  0  0  0
   11.8203   -2.4020   -2.2359 C   0  0  0  0  0  0  0  0  0  0  0  0
   11.5188   -3.7376   -2.0942 C   0  0  0  0  0  0  0  0  0  0  0  0
   12.6224   -4.5394   -1.5612 C   0  0  0  0  0  0  0  0  0  0  0  0
   13.5323   -5.4546   -2.1363 C   0  0  0  0  0  0  0  0  0  0  0  0
   14.5337   -5.7968   -1.3062 N   0  0  0  0  0  0  0  0  0  0  0  0
   14.2881   -5.0792   -0.1923 N   0  0  0  0  0  0  0  0  0  0  0  0
   14.9290   -5.3894    1.0763 C   0  0  0  0  0  0  0  0  0  0  0  0
   16.4357   -5.6276    1.0602 C   0  0  0  0  0  0  0  0  0  0  0  0
   17.1630   -4.4235    0.8358 O   0  0  0  0  0  0  0  0  0  0  0  0
   13.2325   -4.2214   -0.3532 C   0  0  0  0  0  0  0  0  0  0  0  0
   10.1991   -4.1826   -2.1190 N   0  0  0  0  0  0  0  0  0  0  0  0
    9.1768   -3.2235   -2.1339 C   0  0  0  0  0  0  0  0  0  0  0  0
    7.6888   -3.3423   -2.1883 C   0  0  0  0  0  0  0  0  0  0  0  0
    2.1412   -0.4932    2.6258 H   0  0  0  0  0  0  0  0  0  0  0  0
    3.1778   -1.9276    2.5896 H   0  0  0  0  0  0  0  0  0  0  0  0
    1.6810   -1.8711    1.6189 H   0  0  0  0  0  0  0  0  0  0  0  0
    4.0552   -0.1652    1.2541 H   0  0  0  0  0  0  0  0  0  0  0  0
    2.9360   -2.3112   -0.4329 H   0  0  0  0  0  0  0  0  0  0  0  0
    4.3934   -2.4651    0.5616 H   0  0  0  0  0  0  0  0  0  0  0  0
    5.3729   -0.5644   -0.5682 H   0  0  0  0  0  0  0  0  0  0  0  0
    4.1579   -0.4163   -1.7419 H   0  0  0  0  0  0  0  0  0  0  0  0
    2.8076   -1.3246   -2.7117 H   0  0  0  0  0  0  0  0  0  0  0  0
   -0.6892   -1.0715   -3.4517 H   0  0  0  0  0  0  0  0  0  0  0  0
    0.9256   -0.4315   -3.7721 H   0  0  0  0  0  0  0  0  0  0  0  0
    0.5526   -1.2626   -2.2116 H   0  0  0  0  0  0  0  0  0  0  0  0
    1.4353   -4.7150   -4.8119 H   0  0  0  0  0  0  0  0  0  0  0  0
    3.7089   -6.9979   -6.5803 H   0  0  0  0  0  0  0  0  0  0  0  0
    3.0336   -5.3682   -6.6930 H   0  0  0  0  0  0  0  0  0  0  0  0
    2.1767   -6.6561   -5.7647 H   0  0  0  0  0  0  0  0  0  0  0  0
    5.5254   -4.5822   -3.4712 H   0  0  0  0  0  0  0  0  0  0  0  0
    6.9170   -0.1496   -1.3425 H   0  0  0  0  0  0  0  0  0  0  0  0
    9.2091    0.0818   -1.4276 H   0  0  0  0  0  0  0  0  0  0  0  0
   12.8446   -2.0312   -2.2687 H   0  0  0  0  0  0  0  0  0  0  0  0
   13.5305   -5.8701   -3.1355 H   0  0  0  0  0  0  0  0  0  0  0  0
   14.4255   -6.2933    1.4365 H   0  0  0  0  0  0  0  0  0  0  0  0
   14.6974   -4.5680    1.7650 H   0  0  0  0  0  0  0  0  0  0  0  0
   16.7455   -6.3820    0.3311 H   0  0  0  0  0  0  0  0  0  0  0  0
   16.7387   -5.9892    2.0510 H   0  0  0  0  0  0  0  0  0  0  0  0
   17.2525   -4.3299   -0.1301 H   0  0  0  0  0  0  0  0  0  0  0  0
   12.9901   -3.4884    0.4060 H   0  0  0  0  0  0  0  0  0  0  0  0
    7.3070   -4.3453   -2.3734 H   0  0  0  0  0  0  0  0  0  0  0  0
  1  2  1  0  0  0  0
  1 34  1  0  0  0  0
  1 35  1  0  0  0  0
  1 36  1  0  0  0  0
  2  3  1  0  0  0  0
  2 37  1  0  0  0  0
  3  4  1  0  0  0  0
  3 38  1  0  0  0  0
  3 39  1  0  0  0  0
  4  5  1  0  0  0  0
  4 40  1  0  0  0  0
  4 41  1  0  0  0  0
  5  6  1  0  0  0  0
  5 16  1  0  0  0  0
  6  7  1  0  0  0  0
  6 15  2  0  0  0  0
  7  8  2  0  0  0  0
  7 42  1  0  0  0  0
  8  9  1  0  0  0  0
  8 11  1  0  0  0  0
  9 10  1  0  0  0  0
 10 43  1  0  0  0  0
 10 44  1  0  0  0  0
 10 45  1  0  0  0  0
 11 12  2  0  0  0  0
 11 46  1  0  0  0  0
 12 13  1  0  0  0  0
 12 15  1  0  0  0  0
 13 14  1  0  0  0  0
 14 47  1  0  0  0  0
 14 48  1  0  0  0  0
 14 49  1  0  0  0  0
 15 50  1  0  0  0  0
 16 17  1  0  0  0  0
 16 33  2  0  0  0  0
 17 18  2  0  0  0  0
 17 51  1  0  0  0  0
 18 19  1  0  0  0  0
 18 52  1  0  0  0  0
 19 20  1  0  0  0  0
 19 32  2  0  0  0  0
 20 21  2  0  0  0  0
 21 22  1  0  0  0  0
 21 53  1  0  0  0  0
 22 23  1  0  0  0  0
 22 31  2  0  0  0  0
 23 24  1  0  0  0  0
 23 30  2  0  0  0  0
 24 25  2  0  0  0  0
 24 54  1  0  0  0  0
 25 26  1  0  0  0  0
 26 27  1  0  0  0  0
 26 30  1  0  0  0  0
 27 28  1  0  0  0  0
 27 55  1  0  0  0  0
 27 56  1  0  0  0  0
 28 29  1  0  0  0  0
 28 57  1  0  0  0  0
 28 58  1  0  0  0  0
 29 59  1  0  0  0  0
 30 60  1  0  0  0  0
 31 32  1  0  0  0  0
 32 33  1  0  0  0  0
 33 61  1  0  0  0  0
M  END
$$$$
