CHEMBL3893914
 OpenBabel04072215373D

 48 50  0  0  0  0  0  0  0  0999 V2000
    1.6992   -2.8456   -2.2350 C   0  0  0  0  0  0  0  0  0  0  0  0
    0.2818   -2.8250   -1.7507 C   0  0  0  0  0  0  0  0  0  0  0  0
   -0.6390   -3.7681   -2.1961 C   0  0  0  0  0  0  0  0  0  0  0  0
   -1.9481   -3.7246   -1.7121 C   0  0  0  0  0  0  0  0  0  0  0  0
   -2.3068   -2.7422   -0.7957 C   0  0  0  0  0  0  0  0  0  0  0  0
   -3.5349   -2.5747   -0.2263 O   0  0  0  0  0  0  0  0  0  0  0  0
   -4.5519   -3.5013   -0.6090 C   0  0  0  0  0  0  0  0  0  0  0  0
   -5.8687   -3.1444    0.0952 C   0  0  0  0  0  0  0  0  0  0  0  0
   -6.3558   -1.8321   -0.3602 N   0  0  0  0  0  0  0  0  0  0  0  0
   -7.7488   -1.6761   -0.2863 C   0  0  0  0  0  0  0  0  0  0  0  0
   -8.4162   -2.4337    0.6087 N   0  0  0  0  0  0  0  0  0  0  0  0
   -9.7578   -2.3405    0.7200 C   0  0  0  0  0  0  0  0  0  0  0  0
  -10.4373   -3.1540    1.6456 N   0  0  0  0  0  0  0  0  0  0  0  0
   -9.9094   -3.6341    2.7917 C   0  0  0  0  0  0  0  0  0  0  0  0
   -8.9711   -2.9345    3.5843 C   0  0  0  0  0  0  0  0  0  0  0  0
   -8.6712   -3.7738    4.6294 C   0  0  0  0  0  0  0  0  0  0  0  0
   -7.7138   -3.6356    5.7443 C   0  0  0  0  0  0  0  0  0  0  0  0
   -9.4578   -4.8753    4.4392 N   0  0  0  0  0  0  0  0  0  0  0  0
  -10.2409   -4.8016    3.3469 N   0  0  0  0  0  0  0  0  0  0  0  0
  -10.4877   -1.4552   -0.0606 C   0  0  0  0  0  0  0  0  0  0  0  0
   -9.8184   -0.6150   -0.9553 C   0  0  0  0  0  0  0  0  0  0  0  0
  -10.5941    0.3732   -1.7803 C   0  0  0  0  0  0  0  0  0  0  0  0
   -8.4204   -0.7265   -1.0625 C   0  0  0  0  0  0  0  0  0  0  0  0
   -7.7025    0.0618   -2.0157 C   0  0  0  0  0  0  0  0  0  0  0  0
   -7.1286    0.6640   -2.8285 N   0  0  0  0  0  0  0  0  0  0  0  0
   -1.3238   -1.8383   -0.4172 C   0  0  0  0  0  0  0  0  0  0  0  0
   -0.0450   -1.8558   -0.8659 N   0  0  0  0  0  0  0  0  0  0  0  0
    1.8734   -3.6630   -2.9416 H   0  0  0  0  0  0  0  0  0  0  0  0
    2.3787   -2.9777   -1.3873 H   0  0  0  0  0  0  0  0  0  0  0  0
    1.9347   -1.9028   -2.7379 H   0  0  0  0  0  0  0  0  0  0  0  0
   -0.3497   -4.5339   -2.9088 H   0  0  0  0  0  0  0  0  0  0  0  0
   -2.6499   -4.4676   -2.0694 H   0  0  0  0  0  0  0  0  0  0  0  0
   -4.2600   -4.5166   -0.3162 H   0  0  0  0  0  0  0  0  0  0  0  0
   -4.7074   -3.4595   -1.6952 H   0  0  0  0  0  0  0  0  0  0  0  0
   -5.7245   -3.1231    1.1814 H   0  0  0  0  0  0  0  0  0  0  0  0
   -6.5836   -3.9395   -0.1542 H   0  0  0  0  0  0  0  0  0  0  0  0
   -5.9698   -1.5756   -1.2637 H   0  0  0  0  0  0  0  0  0  0  0  0
  -11.0665   -3.7913    1.1734 H   0  0  0  0  0  0  0  0  0  0  0  0
   -8.5469   -1.9589    3.3908 H   0  0  0  0  0  0  0  0  0  0  0  0
   -7.2511   -2.6425    5.7351 H   0  0  0  0  0  0  0  0  0  0  0  0
   -6.9147   -4.3779    5.6549 H   0  0  0  0  0  0  0  0  0  0  0  0
   -8.2117   -3.7676    6.7091 H   0  0  0  0  0  0  0  0  0  0  0  0
   -9.5081   -5.7127    5.0091 H   0  0  0  0  0  0  0  0  0  0  0  0
  -11.5651   -1.3940    0.0609 H   0  0  0  0  0  0  0  0  0  0  0  0
  -11.6665    0.3189   -1.5671 H   0  0  0  0  0  0  0  0  0  0  0  0
  -10.4576    0.1662   -2.8466 H   0  0  0  0  0  0  0  0  0  0  0  0
  -10.2639    1.3939   -1.5605 H   0  0  0  0  0  0  0  0  0  0  0  0
   -1.5489   -1.0436    0.2919 H   0  0  0  0  0  0  0  0  0  0  0  0
  1  2  1  0  0  0  0
  1 28  1  0  0  0  0
  1 29  1  0  0  0  0
  1 30  1  0  0  0  0
  2  3  1  0  0  0  0
  2 27  2  0  0  0  0
  3  4  2  0  0  0  0
  3 31  1  0  0  0  0
  4  5  1  0  0  0  0
  4 32  1  0  0  0  0
  5  6  1  0  0  0  0
  5 26  2  0  0  0  0
  6  7  1  0  0  0  0
  7  8  1  0  0  0  0
  7 33  1  0  0  0  0
  7 34  1  0  0  0  0
  8  9  1  0  0  0  0
  8 35  1  0  0  0  0
  8 36  1  0  0  0  0
  9 10  1  0  0  0  0
  9 37  1  0  0  0  0
 10 11  1  0  0  0  0
 10 23  2  0  0  0  0
 11 12  2  0  0  0  0
 12 13  1  0  0  0  0
 12 20  1  0  0  0  0
 13 14  1  0  0  0  0
 13 38  1  0  0  0  0
 14 15  1  0  0  0  0
 14 19  2  0  0  0  0
 15 16  2  0  0  0  0
 15 39  1  0  0  0  0
 16 17  1  0  0  0  0
 16 18  1  0  0  0  0
 17 40  1  0  0  0  0
 17 41  1  0  0  0  0
 17 42  1  0  0  0  0
 18 19  1  0  0  0  0
 18 43  1  0  0  0  0
 20 21  2  0  0  0  0
 20 44  1  0  0  0  0
 21 22  1  0  0  0  0
 21 23  1  0  0  0  0
 22 45  1  0  0  0  0
 22 46  1  0  0  0  0
 22 47  1  0  0  0  0
 23 24  1  0  0  0  0
 24 25  3  0  0  0  0
 26 27  1  0  0  0  0
 26 48  1  0  0  0  0
M  END
$$$$
