CHEMBL3797416
 OpenBabel04072215373D

 75 79  0  0  0  0  0  0  0  0999 V2000
    1.1341    0.0468    0.1045 C   0  0  0  0  0  0  0  0  0  0  0  0
    2.6541    0.0212    0.1013 C   0  0  0  0  0  0  0  0  0  0  0  0
    3.1847   -0.1632    1.4967 C   0  0  0  0  0  0  0  0  0  0  0  0
    3.3999    0.9365    2.2250 N   0  0  0  0  0  0  0  0  0  0  0  0
    3.7287    0.7898    3.5229 C   0  0  0  0  0  0  0  0  0  0  0  0
    3.9131    1.9506    4.3153 N   0  0  0  0  0  0  0  0  0  0  0  0
    3.6084    3.2212    3.9888 C   0  0  0  0  0  0  0  0  0  0  0  0
    2.6758    3.6194    3.0104 C   0  0  0  0  0  0  0  0  0  0  0  0
    2.8097    4.9850    2.9028 C   0  0  0  0  0  0  0  0  0  0  0  0
    2.2195    5.9287    1.9147 C   0  0  0  0  0  0  0  0  0  0  0  0
    3.1408    7.1125    1.6169 C   0  0  0  0  0  0  0  0  0  0  0  0
    2.5695    8.0482    0.5903 C   0  0  0  0  0  0  0  0  0  0  0  0
    1.6955    9.0685    0.9888 C   0  0  0  0  0  0  0  0  0  0  0  0
    1.2064    9.9803    0.0556 C   0  0  0  0  0  0  0  0  0  0  0  0
    0.3854   11.0398    0.3342 O   0  0  0  0  0  0  0  0  0  0  0  0
    0.0324   11.2329    1.6999 C   0  0  0  0  0  0  0  0  0  0  0  0
    1.5705    9.8547   -1.2899 C   0  0  0  0  0  0  0  0  0  0  0  0
    2.4267    8.8340   -1.7033 C   0  0  0  0  0  0  0  0  0  0  0  0
    2.8764    8.6259   -2.9789 O   0  0  0  0  0  0  0  0  0  0  0  0
    2.4476    9.5520   -3.9692 C   0  0  0  0  0  0  0  0  0  0  0  0
    2.9144    7.9278   -0.7604 C   0  0  0  0  0  0  0  0  0  0  0  0
    3.6657    5.3287    3.9123 N   0  0  0  0  0  0  0  0  0  0  0  0
    4.1835    4.2831    4.5708 N   0  0  0  0  0  0  0  0  0  0  0  0
    3.8272   -0.4782    4.1111 C   0  0  0  0  0  0  0  0  0  0  0  0
    4.0811   -0.7247    5.4774 C   0  0  0  0  0  0  0  0  0  0  0  0
    4.1465   -2.0313    5.9569 C   0  0  0  0  0  0  0  0  0  0  0  0
    3.9707   -3.1209    5.0995 C   0  0  0  0  0  0  0  0  0  0  0  0
    4.0621   -4.4125    5.5946 N   0  0  0  0  0  0  0  0  0  0  0  0
    4.5450   -5.5145    4.7469 C   0  0  0  0  0  0  0  0  0  0  0  0
    3.4208   -6.5129    4.4050 C   0  0  0  0  0  0  0  0  0  0  0  0
    2.6976   -7.0383    5.5889 N   0  0  0  0  0  0  0  0  0  0  0  0
    3.5505   -7.8289    6.4946 C   0  0  0  0  0  0  0  0  0  0  0  0
    4.1716   -9.0609    5.8461 C   0  0  0  0  0  0  0  0  0  0  0  0
    2.1369   -5.8642    6.3060 C   0  0  0  0  0  0  0  0  0  0  0  0
    3.1660   -4.7770    6.7117 C   0  0  0  0  0  0  0  0  0  0  0  0
    3.7130   -2.8444    3.7506 C   0  0  0  0  0  0  0  0  0  0  0  0
    3.6204   -1.5558    3.2488 C   0  0  0  0  0  0  0  0  0  0  0  0
    3.3055   -1.4128    1.9604 N   0  0  0  0  0  0  0  0  0  0  0  0
    0.7534    0.1582   -0.9152 H   0  0  0  0  0  0  0  0  0  0  0  0
    0.7535    0.8820    0.7025 H   0  0  0  0  0  0  0  0  0  0  0  0
    0.7208   -0.8775    0.5227 H   0  0  0  0  0  0  0  0  0  0  0  0
    3.0414    0.9561   -0.3169 H   0  0  0  0  0  0  0  0  0  0  0  0
    3.0138   -0.7949   -0.5365 H   0  0  0  0  0  0  0  0  0  0  0  0
    4.7287    1.8683    4.9070 H   0  0  0  0  0  0  0  0  0  0  0  0
    2.0536    2.9928    2.3907 H   0  0  0  0  0  0  0  0  0  0  0  0
    1.2430    6.2731    2.2797 H   0  0  0  0  0  0  0  0  0  0  0  0
    2.0270    5.3824    0.9823 H   0  0  0  0  0  0  0  0  0  0  0  0
    4.1246    6.7559    1.2846 H   0  0  0  0  0  0  0  0  0  0  0  0
    3.3310    7.6842    2.5351 H   0  0  0  0  0  0  0  0  0  0  0  0
    1.4279    9.1373    2.0371 H   0  0  0  0  0  0  0  0  0  0  0  0
   -0.5415   12.1610    1.7717 H   0  0  0  0  0  0  0  0  0  0  0  0
    0.9188   11.3446    2.3336 H   0  0  0  0  0  0  0  0  0  0  0  0
   -0.6042   10.4141    2.0534 H   0  0  0  0  0  0  0  0  0  0  0  0
    1.1705   10.5807   -1.9902 H   0  0  0  0  0  0  0  0  0  0  0  0
    3.0001    9.3373   -4.8889 H   0  0  0  0  0  0  0  0  0  0  0  0
    2.6758   10.5851   -3.6862 H   0  0  0  0  0  0  0  0  0  0  0  0
    1.3806    9.4247   -4.1774 H   0  0  0  0  0  0  0  0  0  0  0  0
    3.5838    7.1339   -1.0861 H   0  0  0  0  0  0  0  0  0  0  0  0
    3.9810    6.2564    4.1805 H   0  0  0  0  0  0  0  0  0  0  0  0
    4.2162    0.0925    6.1845 H   0  0  0  0  0  0  0  0  0  0  0  0
    4.3619   -2.1984    7.0096 H   0  0  0  0  0  0  0  0  0  0  0  0
    5.3468   -6.0298    5.2893 H   0  0  0  0  0  0  0  0  0  0  0  0
    5.0147   -5.1568    3.8225 H   0  0  0  0  0  0  0  0  0  0  0  0
    3.8200   -7.3336    3.8014 H   0  0  0  0  0  0  0  0  0  0  0  0
    2.6893   -6.0163    3.7550 H   0  0  0  0  0  0  0  0  0  0  0  0
    2.9336   -8.1773    7.3321 H   0  0  0  0  0  0  0  0  0  0  0  0
    4.3567   -7.2310    6.9336 H   0  0  0  0  0  0  0  0  0  0  0  0
    3.4040   -9.7179    5.4263 H   0  0  0  0  0  0  0  0  0  0  0  0
    4.7312   -9.6291    6.5968 H   0  0  0  0  0  0  0  0  0  0  0  0
    4.8790   -8.7956    5.0546 H   0  0  0  0  0  0  0  0  0  0  0  0
    1.5872   -6.1968    7.1945 H   0  0  0  0  0  0  0  0  0  0  0  0
    1.3819   -5.4019    5.6537 H   0  0  0  0  0  0  0  0  0  0  0  0
    3.7824   -5.1356    7.5437 H   0  0  0  0  0  0  0  0  0  0  0  0
    2.6062   -3.9130    7.0918 H   0  0  0  0  0  0  0  0  0  0  0  0
    3.5330   -3.6595    3.0530 H   0  0  0  0  0  0  0  0  0  0  0  0
  1  2  1  0  0  0  0
  1 39  1  0  0  0  0
  1 40  1  0  0  0  0
  1 41  1  0  0  0  0
  2  3  1  0  0  0  0
  2 42  1  0  0  0  0
  2 43  1  0  0  0  0
  3  4  1  0  0  0  0
  3 38  2  0  0  0  0
  4  5  2  0  0  0  0
  5  6  1  0  0  0  0
  5 24  1  0  0  0  0
  6  7  1  0  0  0  0
  6 44  1  0  0  0  0
  7  8  1  0  0  0  0
  7 23  2  0  0  0  0
  8  9  2  0  0  0  0
  8 45  1  0  0  0  0
  9 10  1  0  0  0  0
  9 22  1  0  0  0  0
 10 11  1  0  0  0  0
 10 46  1  0  0  0  0
 10 47  1  0  0  0  0
 11 12  1  0  0  0  0
 11 48  1  0  0  0  0
 11 49  1  0  0  0  0
 12 13  1  0  0  0  0
 12 21  2  0  0  0  0
 13 14  2  0  0  0  0
 13 50  1  0  0  0  0
 14 15  1  0  0  0  0
 14 17  1  0  0  0  0
 15 16  1  0  0  0  0
 16 51  1  0  0  0  0
 16 52  1  0  0  0  0
 16 53  1  0  0  0  0
 17 18  2  0  0  0  0
 17 54  1  0  0  0  0
 18 19  1  0  0  0  0
 18 21  1  0  0  0  0
 19 20  1  0  0  0  0
 20 55  1  0  0  0  0
 20 56  1  0  0  0  0
 20 57  1  0  0  0  0
 21 58  1  0  0  0  0
 22 23  1  0  0  0  0
 22 59  1  0  0  0  0
 24 25  1  0  0  0  0
 24 37  2  0  0  0  0
 25 26  2  0  0  0  0
 25 60  1  0  0  0  0
 26 27  1  0  0  0  0
 26 61  1  0  0  0  0
 27 28  1  0  0  0  0
 27 36  2  0  0  0  0
 28 29  1  0  0  0  0
 28 35  1  0  0  0  0
 29 30  1  0  0  0  0
 29 62  1  0  0  0  0
 29 63  1  0  0  0  0
 30 31  1  0  0  0  0
 30 64  1  0  0  0  0
 30 65  1  0  0  0  0
 31 32  1  0  0  0  0
 31 34  1  0  0  0  0
 32 33  1  0  0  0  0
 32 66  1  0  0  0  0
 32 67  1  0  0  0  0
 33 68  1  0  0  0  0
 33 69  1  0  0  0  0
 33 70  1  0  0  0  0
 34 35  1  0  0  0  0
 34 71  1  0  0  0  0
 34 72  1  0  0  0  0
 35 73  1  0  0  0  0
 35 74  1  0  0  0  0
 36 37  1  0  0  0  0
 36 75  1  0  0  0  0
 37 38  1  0  0  0  0
M  END
$$$$
