CHEMBL403747
 OpenBabel04072215373D

 53 57  0  0  0  0  0  0  0  0999 V2000
    5.0403   -1.6584    6.6776 O   0  0  0  0  0  0  0  0  0  0  0  0
    4.3898   -1.9419    5.6687 C   0  0  0  0  0  0  0  0  0  0  0  0
    3.1327   -2.7590    5.7406 C   0  0  0  0  0  0  0  0  0  0  0  0
    1.8707   -1.9330    5.8125 C   0  0  0  0  0  0  0  0  0  0  0  0
    0.6939   -2.4416    5.2458 C   0  0  0  0  0  0  0  0  0  0  0  0
   -0.4941   -1.7140    5.3027 C   0  0  0  0  0  0  0  0  0  0  0  0
   -0.5253   -0.4764    5.9406 C   0  0  0  0  0  0  0  0  0  0  0  0
    0.6323    0.0345    6.5232 C   0  0  0  0  0  0  0  0  0  0  0  0
    1.8227   -0.6917    6.4667 C   0  0  0  0  0  0  0  0  0  0  0  0
    4.8426   -1.4472    4.4563 N   0  0  0  0  0  0  0  0  0  0  0  0
    4.4305   -1.3962    3.1190 C   0  0  0  0  0  0  0  0  0  0  0  0
    3.0478   -1.9868    2.4137 S   0  0  0  0  0  0  0  0  0  0  0  0
    5.2934   -0.6690    2.3266 N   0  0  0  0  0  0  0  0  0  0  0  0
    6.6921   -0.6212    2.4437 C   0  0  0  0  0  0  0  0  0  0  0  0
    7.3544    0.4943    1.9397 C   0  0  0  0  0  0  0  0  0  0  0  0
    8.7392    0.5903    2.0703 C   0  0  0  0  0  0  0  0  0  0  0  0
    9.4711   -0.4746    2.6118 C   0  0  0  0  0  0  0  0  0  0  0  0
   10.8407   -0.5097    2.7037 O   0  0  0  0  0  0  0  0  0  0  0  0
   11.5833    0.1578    1.7607 C   0  0  0  0  0  0  0  0  0  0  0  0
   11.2592    0.1926    0.4052 C   0  0  0  0  0  0  0  0  0  0  0  0
   12.0337    0.9603   -0.4413 C   0  0  0  0  0  0  0  0  0  0  0  0
   13.1147    1.6703   -0.0731 N   0  0  0  0  0  0  0  0  0  0  0  0
   13.4695    1.5742    1.2351 C   0  0  0  0  0  0  0  0  0  0  0  0
   14.5684    2.2527    1.8441 C   0  0  0  0  0  0  0  0  0  0  0  0
   14.6765    1.9810    3.1900 C   0  0  0  0  0  0  0  0  0  0  0  0
   15.6752    2.5814    4.1190 C   0  0  0  0  0  0  0  0  0  0  0  0
   15.8989    2.2525    5.4807 C   0  0  0  0  0  0  0  0  0  0  0  0
   16.8592    3.1270    5.9323 C   0  0  0  0  0  0  0  0  0  0  0  0
   17.2600    3.9508    4.9302 O   0  0  0  0  0  0  0  0  0  0  0  0
   16.5451    3.6073    3.8255 C   0  0  0  0  0  0  0  0  0  0  0  0
   13.4918    0.8685    3.7074 S   0  0  0  0  0  0  0  0  0  0  0  0
   12.7519    0.8193    2.1609 C   0  0  0  0  0  0  0  0  0  0  0  0
    8.7974   -1.5799    3.1179 C   0  0  0  0  0  0  0  0  0  0  0  0
    9.4745   -2.5896    3.6827 F   0  0  0  0  0  0  0  0  0  0  0  0
    7.4167   -1.6638    3.0332 C   0  0  0  0  0  0  0  0  0  0  0  0
    3.1953   -3.3833    6.6402 H   0  0  0  0  0  0  0  0  0  0  0  0
    3.1172   -3.4585    4.8988 H   0  0  0  0  0  0  0  0  0  0  0  0
    0.7014   -3.4027    4.7366 H   0  0  0  0  0  0  0  0  0  0  0  0
   -1.3950   -2.1155    4.8460 H   0  0  0  0  0  0  0  0  0  0  0  0
   -1.4523    0.0875    5.9871 H   0  0  0  0  0  0  0  0  0  0  0  0
    0.6081    0.9980    7.0260 H   0  0  0  0  0  0  0  0  0  0  0  0
    2.7082   -0.2716    6.9405 H   0  0  0  0  0  0  0  0  0  0  0  0
    5.6412   -0.8611    4.6463 H   0  0  0  0  0  0  0  0  0  0  0  0
    4.8682   -0.1996    1.5316 H   0  0  0  0  0  0  0  0  0  0  0  0
    6.8029    1.3158    1.4888 H   0  0  0  0  0  0  0  0  0  0  0  0
    9.2320    1.4974    1.7314 H   0  0  0  0  0  0  0  0  0  0  0  0
   10.3992   -0.3398    0.0136 H   0  0  0  0  0  0  0  0  0  0  0  0
   11.7738    1.0372   -1.4942 H   0  0  0  0  0  0  0  0  0  0  0  0
   15.2237    2.9144    1.2928 H   0  0  0  0  0  0  0  0  0  0  0  0
   15.4131    1.4877    6.0700 H   0  0  0  0  0  0  0  0  0  0  0  0
   17.3350    3.2847    6.8897 H   0  0  0  0  0  0  0  0  0  0  0  0
   16.7463    4.1988    2.9444 H   0  0  0  0  0  0  0  0  0  0  0  0
    6.9421   -2.5693    3.3967 H   0  0  0  0  0  0  0  0  0  0  0  0
  1  2  2  0  0  0  0
  2  3  1  0  0  0  0
  2 10  1  0  0  0  0
  3  4  1  0  0  0  0
  3 36  1  0  0  0  0
  3 37  1  0  0  0  0
  4  5  1  0  0  0  0
  4  9  2  0  0  0  0
  5  6  2  0  0  0  0
  5 38  1  0  0  0  0
  6  7  1  0  0  0  0
  6 39  1  0  0  0  0
  7  8  2  0  0  0  0
  7 40  1  0  0  0  0
  8  9  1  0  0  0  0
  8 41  1  0  0  0  0
  9 42  1  0  0  0  0
 10 11  1  0  0  0  0
 10 43  1  0  0  0  0
 11 12  2  0  0  0  0
 11 13  1  0  0  0  0
 13 14  1  0  0  0  0
 13 44  1  0  0  0  0
 14 15  1  0  0  0  0
 14 35  2  0  0  0  0
 15 16  2  0  0  0  0
 15 45  1  0  0  0  0
 16 17  1  0  0  0  0
 16 46  1  0  0  0  0
 17 18  1  0  0  0  0
 17 33  2  0  0  0  0
 18 19  1  0  0  0  0
 19 20  1  0  0  0  0
 19 32  2  0  0  0  0
 20 21  2  0  0  0  0
 20 47  1  0  0  0  0
 21 22  1  0  0  0  0
 21 48  1  0  0  0  0
 22 23  2  0  0  0  0
 23 24  1  0  0  0  0
 23 32  1  0  0  0  0
 24 25  2  0  0  0  0
 24 49  1  0  0  0  0
 25 26  1  0  0  0  0
 25 31  1  0  0  0  0
 26 27  1  0  0  0  0
 26 30  2  0  0  0  0
 27 28  2  0  0  0  0
 27 50  1  0  0  0  0
 28 29  1  0  0  0  0
 28 51  1  0  0  0  0
 29 30  1  0  0  0  0
 30 52  1  0  0  0  0
 31 32  1  0  0  0  0
 33 34  1  0  0  0  0
 33 35  1  0  0  0  0
 35 53  1  0  0  0  0
M  END
$$$$
