CHEMBL602471
 OpenBabel04072215383D

 42 44  0  0  1  0  0  0  0  0999 V2000
    4.0076   -0.0726    1.1749 C   0  0  0  0  0  0  0  0  0  0  0  0
    3.9795   -0.6531   -0.2479 C   0  0  1  0  0  0  0  0  0  0  0  0
    2.7937   -1.4351   -0.4715 O   0  0  0  0  0  0  0  0  0  0  0  0
    2.6307   -2.5608    0.2919 C   0  0  0  0  0  0  0  0  0  0  0  0
    1.3193   -2.8881    0.6297 C   0  0  0  0  0  0  0  0  0  0  0  0
    1.0603   -3.9991    1.4417 C   0  0  0  0  0  0  0  0  0  0  0  0
    2.0801   -4.8209    1.8996 C   0  0  0  0  0  0  0  0  0  0  0  0
    1.7854   -5.8645    2.6895 N   0  0  0  0  0  0  0  0  0  0  0  0
    2.8030   -6.6694    3.0813 C   0  0  0  0  0  0  0  0  0  0  0  0
    4.1317   -6.5115    2.7077 C   0  0  0  0  0  0  0  0  0  0  0  0
    5.2001   -7.4347    3.1199 C   0  0  0  0  0  0  0  0  0  0  0  0
    4.9935   -8.7465    3.3313 C   0  0  0  0  0  0  0  0  0  0  0  0
    6.1074   -9.6336    3.7317 C   0  0  0  0  0  0  0  0  0  0  0  0
    5.7306  -10.9292    3.9126 N   0  0  0  0  0  0  0  0  0  0  0  0
    7.2584   -9.2592    3.8945 O   0  0  0  0  0  0  0  0  0  0  0  0
    4.4275   -5.3937    1.9267 C   0  0  0  0  0  0  0  0  0  0  0  0
    3.4022   -4.5248    1.5103 C   0  0  0  0  0  0  0  0  0  0  0  0
    3.6668   -3.3975    0.7122 C   0  0  0  0  0  0  0  0  0  0  0  0
    4.1296    0.5069   -1.2407 C   0  0  0  0  0  0  0  0  0  0  0  0
    5.4325    0.9172   -1.6286 C   0  0  0  0  0  0  0  0  0  0  0  0
    6.8589    0.0239   -1.2084 Cl  0  0  0  0  0  0  0  0  0  0  0  0
    5.6497    2.0908   -2.3634 C   0  0  0  0  0  0  0  0  0  0  0  0
    4.5747    2.8735   -2.7581 C   0  0  0  0  0  0  0  0  0  0  0  0
    3.2874    2.4623   -2.4417 C   0  0  0  0  0  0  0  0  0  0  0  0
    2.2659    3.2275   -2.8573 F   0  0  0  0  0  0  0  0  0  0  0  0
    3.0510    1.3004   -1.6886 C   0  0  0  0  0  0  0  0  0  0  0  0
    1.3969    0.9428   -1.3257 Cl  0  0  0  0  0  0  0  0  0  0  0  0
    4.2185   -0.8546    1.9115 H   0  0  0  0  0  0  0  0  0  0  0  0
    3.0395    0.3623    1.4461 H   0  0  0  0  0  0  0  0  0  0  0  0
    4.7780    0.6976    1.2931 H   0  0  0  0  0  0  0  0  0  0  0  0
    4.8298   -1.3181   -0.3996 H   0  0  0  0  0  0  0  0  0  0  0  0
    0.4935   -2.2746    0.2800 H   0  0  0  0  0  0  0  0  0  0  0  0
    0.0343   -4.2338    1.7170 H   0  0  0  0  0  0  0  0  0  0  0  0
    2.4893   -7.4801    3.7340 H   0  0  0  0  0  0  0  0  0  0  0  0
    6.1995   -7.0158    3.2245 H   0  0  0  0  0  0  0  0  0  0  0  0
    4.0233   -9.2059    3.2019 H   0  0  0  0  0  0  0  0  0  0  0  0
    4.7945  -11.2742    3.7831 H   0  0  0  0  0  0  0  0  0  0  0  0
    6.4481  -11.5878    4.1870 H   0  0  0  0  0  0  0  0  0  0  0  0
    5.4541   -5.1986    1.6254 H   0  0  0  0  0  0  0  0  0  0  0  0
    4.6951   -3.1964    0.4267 H   0  0  0  0  0  0  0  0  0  0  0  0
    6.6610    2.4044   -2.6162 H   0  0  0  0  0  0  0  0  0  0  0  0
    4.7284    3.7967   -3.3087 H   0  0  0  0  0  0  0  0  0  0  0  0
  1  2  1  0  0  0  0
  1 28  1  0  0  0  0
  1 29  1  0  0  0  0
  1 30  1  0  0  0  0
  2  3  1  0  0  0  0
  2 19  1  0  0  0  0
  2 31  1  6  0  0  0
  3  4  1  0  0  0  0
  4  5  1  0  0  0  0
  4 18  2  0  0  0  0
  5  6  2  0  0  0  0
  5 32  1  0  0  0  0
  6  7  1  0  0  0  0
  6 33  1  0  0  0  0
  7  8  1  0  0  0  0
  7 17  2  0  0  0  0
  8  9  2  0  0  0  0
  9 10  1  0  0  0  0
  9 34  1  0  0  0  0
 10 11  1  0  0  0  0
 10 16  2  0  0  0  0
 11 12  2  0  0  0  0
 11 35  1  0  0  0  0
 12 13  1  0  0  0  0
 12 36  1  0  0  0  0
 13 14  1  0  0  0  0
 13 15  2  0  0  0  0
 14 37  1  0  0  0  0
 14 38  1  0  0  0  0
 16 17  1  0  0  0  0
 16 39  1  0  0  0  0
 17 18  1  0  0  0  0
 18 40  1  0  0  0  0
 19 20  1  0  0  0  0
 19 26  2  0  0  0  0
 20 21  1  0  0  0  0
 20 22  2  0  0  0  0
 22 23  1  0  0  0  0
 22 41  1  0  0  0  0
 23 24  2  0  0  0  0
 23 42  1  0  0  0  0
 24 25  1  0  0  0  0
 24 26  1  0  0  0  0
 26 27  1  0  0  0  0
M  END
$$$$
