CHEMBL4583526
 OpenBabel04072215383D

 51 54  0  0  0  0  0  0  0  0999 V2000
    0.4552    0.2758    1.7061 C   0  0  0  0  0  0  0  0  0  0  0  0
    1.8360    0.5213    1.9521 O   0  0  0  0  0  0  0  0  0  0  0  0
    2.5855   -0.5651    2.2958 C   0  0  0  0  0  0  0  0  0  0  0  0
    2.1217   -1.8734    2.4142 C   0  0  0  0  0  0  0  0  0  0  0  0
    2.9815   -2.9113    2.7525 C   0  0  0  0  0  0  0  0  0  0  0  0
    4.3510   -2.6839    2.9759 C   0  0  0  0  0  0  0  0  0  0  0  0
    5.2531   -3.7114    3.3209 N   0  0  0  0  0  0  0  0  0  0  0  0
    4.9685   -5.0661    3.3220 C   0  0  0  0  0  0  0  0  0  0  0  0
    3.9188   -5.5669    2.9339 O   0  0  0  0  0  0  0  0  0  0  0  0
    6.0072   -5.8143    3.8751 N   0  0  0  0  0  0  0  0  0  0  0  0
    5.8484   -7.2162    3.9962 C   0  0  0  0  0  0  0  0  0  0  0  0
    5.3596   -7.9790    2.9255 C   0  0  0  0  0  0  0  0  0  0  0  0
    5.0389   -9.3237    3.1001 C   0  0  0  0  0  0  0  0  0  0  0  0
    5.1963   -9.9002    4.3569 C   0  0  0  0  0  0  0  0  0  0  0  0
    4.7821  -11.3074    4.5592 C   0  0  0  0  0  0  0  0  0  0  0  0
    5.1774  -12.1757    3.7928 O   0  0  0  0  0  0  0  0  0  0  0  0
    3.9860  -11.4999    5.6761 N   0  0  0  0  0  0  0  0  0  0  0  0
    4.2200  -12.6129    6.4327 N   0  0  0  0  0  0  0  0  0  0  0  0
    3.7160  -12.5959    7.6242 C   0  0  0  0  0  0  0  0  0  0  0  0
    2.7215  -11.6077    8.2392 C   0  0  0  0  0  0  0  0  0  0  0  0
    1.9693  -10.8836    7.6269 O   0  0  0  0  0  0  0  0  0  0  0  0
    2.9440  -11.6833    9.5927 N   0  0  0  0  0  0  0  0  0  0  0  0
    4.0495  -12.4892    9.8451 C   0  0  0  0  0  0  0  0  0  0  0  0
    4.9707  -12.3231   10.8565 C   0  0  0  0  0  0  0  0  0  0  0  0
    6.1773  -13.0330   10.7455 C   0  0  0  0  0  0  0  0  0  0  0  0
    6.3855  -13.9604    9.7020 C   0  0  0  0  0  0  0  0  0  0  0  0
    8.0249  -14.8957    9.5938 Br  0  0  0  0  0  0  0  0  0  0  0  0
    5.4605  -14.1031    8.6756 C   0  0  0  0  0  0  0  0  0  0  0  0
    4.3546  -13.2830    8.7423 C   0  0  0  0  0  0  0  0  0  0  0  0
    5.7560   -9.1642    5.4160 C   0  0  0  0  0  0  0  0  0  0  0  0
    6.1025   -7.8231    5.2273 C   0  0  0  0  0  0  0  0  0  0  0  0
    4.8210   -1.3714    2.8633 C   0  0  0  0  0  0  0  0  0  0  0  0
    3.9446   -0.3252    2.5287 C   0  0  0  0  0  0  0  0  0  0  0  0
   -0.0058    1.2181    1.3989 H   0  0  0  0  0  0  0  0  0  0  0  0
   -0.0491   -0.0622    2.6183 H   0  0  0  0  0  0  0  0  0  0  0  0
    0.3135   -0.4415    0.8894 H   0  0  0  0  0  0  0  0  0  0  0  0
    1.0755   -2.1271    2.2445 H   0  0  0  0  0  0  0  0  0  0  0  0
    2.5467   -3.8992    2.8492 H   0  0  0  0  0  0  0  0  0  0  0  0
    6.2237   -3.4527    3.4218 H   0  0  0  0  0  0  0  0  0  0  0  0
    6.4902   -5.3507    4.6317 H   0  0  0  0  0  0  0  0  0  0  0  0
    5.1921   -7.5204    1.9527 H   0  0  0  0  0  0  0  0  0  0  0  0
    4.6454   -9.9040    2.2693 H   0  0  0  0  0  0  0  0  0  0  0  0
    3.6231  -10.6766    6.1545 H   0  0  0  0  0  0  0  0  0  0  0  0
    2.3037  -11.3138   10.2800 H   0  0  0  0  0  0  0  0  0  0  0  0
    4.8668  -11.5323   11.5936 H   0  0  0  0  0  0  0  0  0  0  0  0
    6.9926  -12.8056   11.4304 H   0  0  0  0  0  0  0  0  0  0  0  0
    5.6516  -14.7067    7.7946 H   0  0  0  0  0  0  0  0  0  0  0  0
    5.9224   -9.6292    6.3842 H   0  0  0  0  0  0  0  0  0  0  0  0
    6.4938   -7.2531    6.0651 H   0  0  0  0  0  0  0  0  0  0  0  0
    5.8656   -1.1345    3.0419 H   0  0  0  0  0  0  0  0  0  0  0  0
    4.3259    0.6913    2.4515 H   0  0  0  0  0  0  0  0  0  0  0  0
  1  2  1  0  0  0  0
  1 34  1  0  0  0  0
  1 35  1  0  0  0  0
  1 36  1  0  0  0  0
  2  3  1  0  0  0  0
  3  4  1  0  0  0  0
  3 33  2  0  0  0  0
  4  5  2  0  0  0  0
  4 37  1  0  0  0  0
  5  6  1  0  0  0  0
  5 38  1  0  0  0  0
  6  7  1  0  0  0  0
  6 32  2  0  0  0  0
  7  8  1  0  0  0  0
  7 39  1  0  0  0  0
  8  9  2  0  0  0  0
  8 10  1  0  0  0  0
 10 11  1  0  0  0  0
 10 40  1  0  0  0  0
 11 12  1  0  0  0  0
 11 31  2  0  0  0  0
 12 13  2  0  0  0  0
 12 41  1  0  0  0  0
 13 14  1  0  0  0  0
 13 42  1  0  0  0  0
 14 15  1  0  0  0  0
 14 30  2  0  0  0  0
 15 16  2  0  0  0  0
 15 17  1  0  0  0  0
 17 18  1  0  0  0  0
 17 43  1  0  0  0  0
 18 19  2  0  0  0  0
 19 20  1  0  0  0  0
 19 29  1  0  0  0  0
 20 21  2  0  0  0  0
 20 22  1  0  0  0  0
 22 23  1  0  0  0  0
 22 44  1  0  0  0  0
 23 24  1  0  0  0  0
 23 29  2  0  0  0  0
 24 25  2  0  0  0  0
 24 45  1  0  0  0  0
 25 26  1  0  0  0  0
 25 46  1  0  0  0  0
 26 27  1  0  0  0  0
 26 28  2  0  0  0  0
 28 29  1  0  0  0  0
 28 47  1  0  0  0  0
 30 31  1  0  0  0  0
 30 48  1  0  0  0  0
 31 49  1  0  0  0  0
 32 33  1  0  0  0  0
 32 50  1  0  0  0  0
 33 51  1  0  0  0  0
M  END
$$$$
