CHEMBL495763
 OpenBabel04072215383D

 53 57  0  0  0  0  0  0  0  0999 V2000
    1.5213    0.0666   -2.1076 C   0  0  0  0  0  0  0  0  0  0  0  0
    2.7690   -0.1183   -1.2854 C   0  0  0  0  0  0  0  0  0  0  0  0
    3.4737    1.0819   -0.9924 C   0  0  0  0  0  0  0  0  0  0  0  0
    4.5940    1.0973   -0.1694 C   0  0  0  0  0  0  0  0  0  0  0  0
    5.0197   -0.0890    0.3865 C   0  0  0  0  0  0  0  0  0  0  0  0
    4.3546   -1.2823    0.0834 C   0  0  0  0  0  0  0  0  0  0  0  0
    4.8501   -2.4145    0.7021 N   0  0  0  0  0  0  0  0  0  0  0  0
    4.3672   -3.6563    0.5120 C   0  0  0  0  0  0  0  0  0  0  0  0
    4.8805   -4.5773    1.1502 O   0  0  0  0  0  0  0  0  0  0  0  0
    3.2350   -3.8525   -0.4650 C   0  0  0  0  0  0  0  0  0  0  0  0
    2.7572   -5.2062   -0.6738 C   0  0  0  0  0  0  0  0  0  0  0  0
    1.7926   -5.7661   -1.4033 N   0  0  0  0  0  0  0  0  0  0  0  0
    1.7650   -7.1209   -1.0410 C   0  0  0  0  0  0  0  0  0  0  0  0
    0.9700   -8.2135   -1.4561 C   0  0  0  0  0  0  0  0  0  0  0  0
    1.1432   -9.4919   -0.8552 C   0  0  0  0  0  0  0  0  0  0  0  0
    0.4260  -10.5992   -1.3376 N   0  0  0  0  0  0  0  0  0  0  0  0
    1.0128  -11.9415   -1.1195 C   0  0  0  0  0  0  0  0  0  0  0  0
    0.3057  -12.9686   -2.0262 C   0  0  0  0  0  0  0  0  0  0  0  0
   -1.1529  -13.0262   -1.7866 N   0  0  0  0  0  0  0  0  0  0  0  0
   -1.7769  -13.9421   -2.7450 C   0  0  0  0  0  0  0  0  0  0  0  0
   -1.7336  -11.6642   -1.9042 C   0  0  0  0  0  0  0  0  0  0  0  0
   -1.0193  -10.5984   -1.0276 C   0  0  0  0  0  0  0  0  0  0  0  0
    2.0842   -9.6274    0.1776 C   0  0  0  0  0  0  0  0  0  0  0  0
    2.9096   -8.5808    0.5755 C   0  0  0  0  0  0  0  0  0  0  0  0
    2.7225   -7.3715   -0.0768 C   0  0  0  0  0  0  0  0  0  0  0  0
    3.3905   -6.1965    0.0453 N   0  0  0  0  0  0  0  0  0  0  0  0
    2.6870   -2.7603   -1.0705 C   0  0  0  0  0  0  0  0  0  0  0  0
    1.6613   -2.8568   -2.0113 N   0  0  0  0  0  0  0  0  0  0  0  0
    3.2348   -1.3639   -0.7774 C   0  0  0  0  0  0  0  0  0  0  0  0
    1.3501    1.1253   -2.3414 H   0  0  0  0  0  0  0  0  0  0  0  0
    0.6450   -0.2549   -1.5367 H   0  0  0  0  0  0  0  0  0  0  0  0
    1.5897   -0.4576   -3.0630 H   0  0  0  0  0  0  0  0  0  0  0  0
    3.1404    2.0318   -1.4096 H   0  0  0  0  0  0  0  0  0  0  0  0
    5.1170    2.0260    0.0393 H   0  0  0  0  0  0  0  0  0  0  0  0
    5.8801   -0.0811    1.0514 H   0  0  0  0  0  0  0  0  0  0  0  0
    5.6180   -2.3488    1.3567 H   0  0  0  0  0  0  0  0  0  0  0  0
    0.2574   -8.0802   -2.2624 H   0  0  0  0  0  0  0  0  0  0  0  0
    0.9003  -12.2496   -0.0705 H   0  0  0  0  0  0  0  0  0  0  0  0
    2.0814  -11.9439   -1.3665 H   0  0  0  0  0  0  0  0  0  0  0  0
    0.7447  -13.9558   -1.8361 H   0  0  0  0  0  0  0  0  0  0  0  0
    0.5116  -12.7108   -3.0736 H   0  0  0  0  0  0  0  0  0  0  0  0
   -1.3661  -14.9480   -2.6428 H   0  0  0  0  0  0  0  0  0  0  0  0
   -1.6302  -13.6101   -3.7837 H   0  0  0  0  0  0  0  0  0  0  0  0
   -2.8532  -14.0131   -2.5613 H   0  0  0  0  0  0  0  0  0  0  0  0
   -2.7896  -11.6992   -1.6114 H   0  0  0  0  0  0  0  0  0  0  0  0
   -1.6903  -11.3300   -2.9493 H   0  0  0  0  0  0  0  0  0  0  0  0
   -1.1737  -10.8327    0.0353 H   0  0  0  0  0  0  0  0  0  0  0  0
   -1.4741   -9.6210   -1.2225 H   0  0  0  0  0  0  0  0  0  0  0  0
    2.2042  -10.5715    0.7004 H   0  0  0  0  0  0  0  0  0  0  0  0
    3.6572   -8.7092    1.3495 H   0  0  0  0  0  0  0  0  0  0  0  0
    4.1891   -6.0469    0.6477 H   0  0  0  0  0  0  0  0  0  0  0  0
    1.3600   -3.8334   -2.1296 H   0  0  0  0  0  0  0  0  0  0  0  0
    0.8498   -2.3121   -1.7382 H   0  0  0  0  0  0  0  0  0  0  0  0
  1  2  1  0  0  0  0
  1 30  1  0  0  0  0
  1 31  1  0  0  0  0
  1 32  1  0  0  0  0
  2  3  1  0  0  0  0
  2 29  2  0  0  0  0
  3  4  2  0  0  0  0
  3 33  1  0  0  0  0
  4  5  1  0  0  0  0
  4 34  1  0  0  0  0
  5  6  2  0  0  0  0
  5 35  1  0  0  0  0
  6  7  1  0  0  0  0
  6 29  1  0  0  0  0
  7  8  1  0  0  0  0
  7 36  1  0  0  0  0
  8  9  2  0  0  0  0
  8 10  1  0  0  0  0
 10 11  1  0  0  0  0
 10 27  2  0  0  0  0
 11 12  2  0  0  0  0
 11 26  1  0  0  0  0
 12 13  1  0  0  0  0
 13 14  1  0  0  0  0
 13 25  2  0  0  0  0
 14 15  2  0  0  0  0
 14 37  1  0  0  0  0
 15 16  1  0  0  0  0
 15 23  1  0  0  0  0
 16 17  1  0  0  0  0
 16 22  1  0  0  0  0
 17 18  1  0  0  0  0
 17 38  1  0  0  0  0
 17 39  1  0  0  0  0
 18 19  1  0  0  0  0
 18 40  1  0  0  0  0
 18 41  1  0  0  0  0
 19 20  1  0  0  0  0
 19 21  1  0  0  0  0
 20 42  1  0  0  0  0
 20 43  1  0  0  0  0
 20 44  1  0  0  0  0
 21 22  1  0  0  0  0
 21 45  1  0  0  0  0
 21 46  1  0  0  0  0
 22 47  1  0  0  0  0
 22 48  1  0  0  0  0
 23 24  2  0  0  0  0
 23 49  1  0  0  0  0
 24 25  1  0  0  0  0
 24 50  1  0  0  0  0
 25 26  1  0  0  0  0
 26 51  1  0  0  0  0
 27 28  1  0  0  0  0
 27 29  1  0  0  0  0
 28 52  1  0  0  0  0
 28 53  1  0  0  0  0
M  END
$$$$
