CHEMBL3702611
 OpenBabel04072215373D

 64 68  0  0  0  0  0  0  0  0999 V2000
    1.7492    0.3717    2.7498 C   0  0  0  0  0  0  0  0  0  0  0  0
    2.2868    1.0122    1.5463 N   0  0  0  0  0  0  0  0  0  0  0  0
    3.2001    0.0884    0.8574 C   0  0  0  0  0  0  0  0  0  0  0  0
    3.7640    0.7211   -0.4139 C   0  0  0  0  0  0  0  0  0  0  0  0
    2.6353    1.1078   -1.3749 C   0  0  0  0  0  0  0  0  0  0  0  0
    1.8531   -0.0268   -1.7847 O   0  0  0  0  0  0  0  0  0  0  0  0
    2.4536   -0.9909   -2.5400 C   0  0  0  0  0  0  0  0  0  0  0  0
    1.9448   -2.2755   -2.3750 C   0  0  0  0  0  0  0  0  0  0  0  0
    2.4936   -3.3566   -3.0707 C   0  0  0  0  0  0  0  0  0  0  0  0
    3.5525   -3.1688   -3.9564 C   0  0  0  0  0  0  0  0  0  0  0  0
    4.1829   -4.2194   -4.6589 N   0  0  0  0  0  0  0  0  0  0  0  0
    3.8669   -5.5716   -4.5729 C   0  0  0  0  0  0  0  0  0  0  0  0
    2.9659   -6.0754   -3.9190 O   0  0  0  0  0  0  0  0  0  0  0  0
    4.7688   -6.4935   -5.3116 C   0  0  0  0  0  0  0  0  0  0  0  0
    5.2925   -6.1796   -6.5656 C   0  0  0  0  0  0  0  0  0  0  0  0
    6.1699   -7.0722   -7.1751 C   0  0  0  0  0  0  0  0  0  0  0  0
    6.5425   -8.2498   -6.5162 C   0  0  0  0  0  0  0  0  0  0  0  0
    6.0394   -8.5824   -5.2498 C   0  0  0  0  0  0  0  0  0  0  0  0
    6.5076   -9.6707   -4.5399 N   0  0  0  0  0  0  0  0  0  0  0  0
    7.9215  -10.0380   -4.5956 C   0  0  0  0  0  0  0  0  0  0  0  0
    8.4459  -10.1725   -3.1676 C   0  0  0  0  0  0  0  0  0  0  0  0
    7.5461  -11.0335   -2.3240 C   0  0  0  0  0  0  0  0  0  0  0  0
    8.0987  -11.5678   -1.2107 N   0  0  0  0  0  0  0  0  0  0  0  0
    7.3103  -12.3244   -0.4441 C   0  0  0  0  0  0  0  0  0  0  0  0
    7.8649  -12.8614    0.6997 N   0  0  0  0  0  0  0  0  0  0  0  0
    6.0178  -12.5633   -0.6821 N   0  0  0  0  0  0  0  0  0  0  0  0
    5.5003  -12.0065   -1.7957 C   0  0  0  0  0  0  0  0  0  0  0  0
    6.2164  -11.2137   -2.6658 C   0  0  0  0  0  0  0  0  0  0  0  0
    5.6074  -10.6441   -3.9149 C   0  0  0  0  0  0  0  0  0  0  0  0
    5.1089   -7.7044   -4.6840 C   0  0  0  0  0  0  0  0  0  0  0  0
    4.0408   -1.8682   -4.1464 C   0  0  0  0  0  0  0  0  0  0  0  0
    3.4899   -0.7828   -3.4470 C   0  0  0  0  0  0  0  0  0  0  0  0
    1.6917    2.0612   -0.6334 C   0  0  0  0  0  0  0  0  0  0  0  0
    1.1835    1.4382    0.6702 C   0  0  0  0  0  0  0  0  0  0  0  0
    2.5596    0.0626    3.4190 H   0  0  0  0  0  0  0  0  0  0  0  0
    1.1461   -0.5134    2.5121 H   0  0  0  0  0  0  0  0  0  0  0  0
    1.1243    1.0739    3.3120 H   0  0  0  0  0  0  0  0  0  0  0  0
    2.6977   -0.8574    0.6165 H   0  0  0  0  0  0  0  0  0  0  0  0
    4.0415   -0.1540    1.5181 H   0  0  0  0  0  0  0  0  0  0  0  0
    4.4609    0.0178   -0.8808 H   0  0  0  0  0  0  0  0  0  0  0  0
    4.3447    1.6163   -0.1546 H   0  0  0  0  0  0  0  0  0  0  0  0
    3.0226    1.6341   -2.2535 H   0  0  0  0  0  0  0  0  0  0  0  0
    1.1255   -2.4514   -1.6831 H   0  0  0  0  0  0  0  0  0  0  0  0
    2.0696   -4.3357   -2.8814 H   0  0  0  0  0  0  0  0  0  0  0  0
    4.9930   -3.9675   -5.2051 H   0  0  0  0  0  0  0  0  0  0  0  0
    5.0141   -5.2673   -7.0845 H   0  0  0  0  0  0  0  0  0  0  0  0
    6.5794   -6.8547   -8.1587 H   0  0  0  0  0  0  0  0  0  0  0  0
    7.2371   -8.9212   -7.0161 H   0  0  0  0  0  0  0  0  0  0  0  0
    8.5329   -9.2845   -5.1049 H   0  0  0  0  0  0  0  0  0  0  0  0
    8.0332  -10.9801   -5.1458 H   0  0  0  0  0  0  0  0  0  0  0  0
    8.5000   -9.1823   -2.6977 H   0  0  0  0  0  0  0  0  0  0  0  0
    9.4580  -10.5900   -3.1864 H   0  0  0  0  0  0  0  0  0  0  0  0
    8.6428  -12.2889    0.9930 H   0  0  0  0  0  0  0  0  0  0  0  0
    7.1354  -13.0350    1.3757 H   0  0  0  0  0  0  0  0  0  0  0  0
    4.4513  -12.2346   -1.9658 H   0  0  0  0  0  0  0  0  0  0  0  0
    4.6303  -10.2097   -3.6760 H   0  0  0  0  0  0  0  0  0  0  0  0
    5.4400  -11.4657   -4.6235 H   0  0  0  0  0  0  0  0  0  0  0  0
    4.6960   -7.9130   -3.6987 H   0  0  0  0  0  0  0  0  0  0  0  0
    4.8547   -1.6727   -4.8391 H   0  0  0  0  0  0  0  0  0  0  0  0
    3.8857    0.2097   -3.6336 H   0  0  0  0  0  0  0  0  0  0  0  0
    0.8305    2.3047   -1.2670 H   0  0  0  0  0  0  0  0  0  0  0  0
    2.2152    3.0001   -0.4139 H   0  0  0  0  0  0  0  0  0  0  0  0
    0.5182    0.5958    0.4403 H   0  0  0  0  0  0  0  0  0  0  0  0
    0.5798    2.1912    1.1918 H   0  0  0  0  0  0  0  0  0  0  0  0
  1  2  1  0  0  0  0
  1 35  1  0  0  0  0
  1 36  1  0  0  0  0
  1 37  1  0  0  0  0
  2  3  1  0  0  0  0
  2 34  1  0  0  0  0
  3  4  1  0  0  0  0
  3 38  1  0  0  0  0
  3 39  1  0  0  0  0
  4  5  1  0  0  0  0
  4 40  1  0  0  0  0
  4 41  1  0  0  0  0
  5  6  1  0  0  0  0
  5 33  1  0  0  0  0
  5 42  1  0  0  0  0
  6  7  1  0  0  0  0
  7  8  1  0  0  0  0
  7 32  2  0  0  0  0
  8  9  2  0  0  0  0
  8 43  1  0  0  0  0
  9 10  1  0  0  0  0
  9 44  1  0  0  0  0
 10 11  1  0  0  0  0
 10 31  2  0  0  0  0
 11 12  1  0  0  0  0
 11 45  1  0  0  0  0
 12 13  2  0  0  0  0
 12 14  1  0  0  0  0
 14 15  1  0  0  0  0
 14 30  2  0  0  0  0
 15 16  2  0  0  0  0
 15 46  1  0  0  0  0
 16 17  1  0  0  0  0
 16 47  1  0  0  0  0
 17 18  2  0  0  0  0
 17 48  1  0  0  0  0
 18 19  1  0  0  0  0
 18 30  1  0  0  0  0
 19 20  1  0  0  0  0
 19 29  1  0  0  0  0
 20 21  1  0  0  0  0
 20 49  1  0  0  0  0
 20 50  1  0  0  0  0
 21 22  1  0  0  0  0
 21 51  1  0  0  0  0
 21 52  1  0  0  0  0
 22 23  1  0  0  0  0
 22 28  2  0  0  0  0
 23 24  2  0  0  0  0
 24 25  1  0  0  0  0
 24 26  1  0  0  0  0
 25 53  1  0  0  0  0
 25 54  1  0  0  0  0
 26 27  2  0  0  0  0
 27 28  1  0  0  0  0
 27 55  1  0  0  0  0
 28 29  1  0  0  0  0
 29 56  1  0  0  0  0
 29 57  1  0  0  0  0
 30 58  1  0  0  0  0
 31 32  1  0  0  0  0
 31 59  1  0  0  0  0
 32 60  1  0  0  0  0
 33 34  1  0  0  0  0
 33 61  1  0  0  0  0
 33 62  1  0  0  0  0
 34 63  1  0  0  0  0
 34 64  1  0  0  0  0
M  END
$$$$
