CHEMBL4204192
 OpenBabel04072215383D

 51 54  0  0  0  0  0  0  0  0999 V2000
    3.3237   -0.3927   -6.4214 C   0  0  0  0  0  0  0  0  0  0  0  0
    4.0122   -0.1903   -5.0972 C   0  0  0  0  0  0  0  0  0  0  0  0
    3.4130    0.3432   -4.1688 O   0  0  0  0  0  0  0  0  0  0  0  0
    5.3146   -0.6561   -5.1044 N   0  0  0  0  0  0  0  0  0  0  0  0
    6.1135   -0.6883   -3.9861 C   0  0  0  0  0  0  0  0  0  0  0  0
    7.4677   -0.9477   -3.9774 C   0  0  0  0  0  0  0  0  0  0  0  0
    7.8442   -0.8553   -2.6564 N   0  0  0  0  0  0  0  0  0  0  0  0
    9.1032   -0.9728   -2.0731 C   0  0  0  0  0  0  0  0  0  0  0  0
    9.2286   -0.8586   -0.7323 C   0  0  0  0  0  0  0  0  0  0  0  0
   10.5572   -1.0227   -0.1124 C   0  0  0  0  0  0  0  0  0  0  0  0
   10.9291   -2.3198    0.2777 C   0  0  0  0  0  0  0  0  0  0  0  0
   12.1631   -2.5822    0.8772 C   0  0  0  0  0  0  0  0  0  0  0  0
   12.5737   -3.8812    1.2491 N   0  0  0  0  0  0  0  0  0  0  0  0
   11.9504   -5.0683    0.8930 C   0  0  0  0  0  0  0  0  0  0  0  0
   10.9512   -5.1835    0.1897 O   0  0  0  0  0  0  0  0  0  0  0  0
   12.6079   -6.3154    1.3921 C   0  0  0  0  0  0  0  0  0  0  0  0
   12.0709   -7.5451    1.0223 C   0  0  0  0  0  0  0  0  0  0  0  0
   12.7009   -8.7159    1.4458 C   0  0  0  0  0  0  0  0  0  0  0  0
   12.1805  -10.0695    1.0442 C   0  0  0  0  0  0  0  0  0  0  0  0
   11.0519  -10.0177    0.2853 F   0  0  0  0  0  0  0  0  0  0  0  0
   13.0890  -10.7735    0.3149 F   0  0  0  0  0  0  0  0  0  0  0  0
   11.8761  -10.8488    2.1170 F   0  0  0  0  0  0  0  0  0  0  0  0
   13.8456   -8.5950    2.2436 C   0  0  0  0  0  0  0  0  0  0  0  0
   14.3031   -7.3240    2.5726 C   0  0  0  0  0  0  0  0  0  0  0  0
   13.7185   -6.1767    2.1634 N   0  0  0  0  0  0  0  0  0  0  0  0
   13.0266   -1.5111    1.1148 C   0  0  0  0  0  0  0  0  0  0  0  0
   12.6676   -0.2085    0.7350 C   0  0  0  0  0  0  0  0  0  0  0  0
   11.4317    0.0518    0.1218 C   0  0  0  0  0  0  0  0  0  0  0  0
   11.0655    1.4605   -0.2560 C   0  0  0  0  0  0  0  0  0  0  0  0
    8.0101   -0.6465    0.0558 C   0  0  0  0  0  0  0  0  0  0  0  0
    6.7999   -0.5277   -0.5210 C   0  0  0  0  0  0  0  0  0  0  0  0
    6.6838   -0.6094   -1.9337 C   0  0  0  0  0  0  0  0  0  0  0  0
    5.6432   -0.4927   -2.7240 N   0  0  0  0  0  0  0  0  0  0  0  0
    2.3994    0.1936   -6.4400 H   0  0  0  0  0  0  0  0  0  0  0  0
    3.0746   -1.4497   -6.5450 H   0  0  0  0  0  0  0  0  0  0  0  0
    3.9594   -0.0568   -7.2442 H   0  0  0  0  0  0  0  0  0  0  0  0
    5.7352   -0.9393   -5.9770 H   0  0  0  0  0  0  0  0  0  0  0  0
    8.1818   -1.1555   -4.7596 H   0  0  0  0  0  0  0  0  0  0  0  0
    9.9395   -1.1593   -2.7361 H   0  0  0  0  0  0  0  0  0  0  0  0
   10.2088   -3.1162    0.1132 H   0  0  0  0  0  0  0  0  0  0  0  0
   13.4393   -3.9879    1.7728 H   0  0  0  0  0  0  0  0  0  0  0  0
   11.1775   -7.5869    0.3996 H   0  0  0  0  0  0  0  0  0  0  0  0
   14.3731   -9.4779    2.5961 H   0  0  0  0  0  0  0  0  0  0  0  0
   15.1887   -7.2041    3.1939 H   0  0  0  0  0  0  0  0  0  0  0  0
   13.9956   -1.6710    1.5810 H   0  0  0  0  0  0  0  0  0  0  0  0
   13.3675    0.6038    0.9205 H   0  0  0  0  0  0  0  0  0  0  0  0
   11.8567    2.1675    0.0151 H   0  0  0  0  0  0  0  0  0  0  0  0
   10.1557    1.7718    0.2676 H   0  0  0  0  0  0  0  0  0  0  0  0
   10.9094    1.5393   -1.3367 H   0  0  0  0  0  0  0  0  0  0  0  0
    8.1074   -0.6024    1.1372 H   0  0  0  0  0  0  0  0  0  0  0  0
    5.8979   -0.3811    0.0624 H   0  0  0  0  0  0  0  0  0  0  0  0
  1  2  1  0  0  0  0
  1 34  1  0  0  0  0
  1 35  1  0  0  0  0
  1 36  1  0  0  0  0
  2  3  2  0  0  0  0
  2  4  1  0  0  0  0
  4  5  1  0  0  0  0
  4 37  1  0  0  0  0
  5  6  2  0  0  0  0
  5 33  1  0  0  0  0
  6  7  1  0  0  0  0
  6 38  1  0  0  0  0
  7  8  1  0  0  0  0
  7 32  1  0  0  0  0
  8  9  2  0  0  0  0
  8 39  1  0  0  0  0
  9 10  1  0  0  0  0
  9 30  1  0  0  0  0
 10 11  1  0  0  0  0
 10 28  2  0  0  0  0
 11 12  2  0  0  0  0
 11 40  1  0  0  0  0
 12 13  1  0  0  0  0
 12 26  1  0  0  0  0
 13 14  1  0  0  0  0
 13 41  1  0  0  0  0
 14 15  2  0  0  0  0
 14 16  1  0  0  0  0
 16 17  1  0  0  0  0
 16 25  2  0  0  0  0
 17 18  2  0  0  0  0
 17 42  1  0  0  0  0
 18 19  1  0  0  0  0
 18 23  1  0  0  0  0
 19 20  1  0  0  0  0
 19 21  1  0  0  0  0
 19 22  1  0  0  0  0
 23 24  2  0  0  0  0
 23 43  1  0  0  0  0
 24 25  1  0  0  0  0
 24 44  1  0  0  0  0
 26 27  2  0  0  0  0
 26 45  1  0  0  0  0
 27 28  1  0  0  0  0
 27 46  1  0  0  0  0
 28 29  1  0  0  0  0
 29 47  1  0  0  0  0
 29 48  1  0  0  0  0
 29 49  1  0  0  0  0
 30 31  2  0  0  0  0
 30 50  1  0  0  0  0
 31 32  1  0  0  0  0
 31 51  1  0  0  0  0
 32 33  2  0  0  0  0
M  END
$$$$
