CHEMBL198267
 OpenBabel04072215363D

 47 50  0  0  0  0  0  0  0  0999 V2000
    2.0353   -0.3188    2.4352 C   0  0  0  0  0  0  0  0  0  0  0  0
    0.6262   -0.1726    1.9459 C   0  0  0  0  0  0  0  0  0  0  0  0
    0.0228    1.0797    1.9293 C   0  0  0  0  0  0  0  0  0  0  0  0
   -1.2870    1.2263    1.4735 C   0  0  0  0  0  0  0  0  0  0  0  0
   -2.0256    0.1315    1.0118 C   0  0  0  0  0  0  0  0  0  0  0  0
   -3.3598    0.2356    0.5405 N   0  0  0  0  0  0  0  0  0  0  0  0
   -4.0349    1.4259    0.3408 C   0  0  0  0  0  0  0  0  0  0  0  0
   -3.5291    2.5355    0.4668 O   0  0  0  0  0  0  0  0  0  0  0  0
   -5.3701    1.2492   -0.0007 N   0  0  0  0  0  0  0  0  0  0  0  0
   -6.1861    2.3854   -0.2435 C   0  0  0  0  0  0  0  0  0  0  0  0
   -5.6846    3.5000   -0.9186 C   0  0  0  0  0  0  0  0  0  0  0  0
   -6.3985    4.6986   -0.9496 C   0  0  0  0  0  0  0  0  0  0  0  0
   -7.6835    4.7876   -0.4044 C   0  0  0  0  0  0  0  0  0  0  0  0
   -8.4081    6.0747   -0.3875 C   0  0  0  0  0  0  0  0  0  0  0  0
   -8.4098    6.9299   -1.4944 C   0  0  0  0  0  0  0  0  0  0  0  0
   -7.7972    6.8216   -2.8594 C   0  0  0  0  0  0  0  0  0  0  0  0
   -9.2850    8.3721   -1.1942 S   0  0  0  0  0  0  0  0  0  0  0  0
   -9.7044    7.8830    0.3682 C   0  0  0  0  0  0  0  0  0  0  0  0
  -10.4743    8.6952    1.1151 N   0  0  0  0  0  0  0  0  0  0  0  0
  -10.7231    8.1934    2.3197 C   0  0  0  0  0  0  0  0  0  0  0  0
  -10.2831    7.0330    2.8163 N   0  0  0  0  0  0  0  0  0  0  0  0
   -9.5049    6.2493    2.0453 C   0  0  0  0  0  0  0  0  0  0  0  0
   -9.0698    5.0891    2.6729 N   0  0  0  0  0  0  0  0  0  0  0  0
   -9.1837    6.6479    0.7244 C   0  0  0  0  0  0  0  0  0  0  0  0
   -8.2316    3.6227    0.1562 C   0  0  0  0  0  0  0  0  0  0  0  0
   -7.4827    2.4359    0.2617 C   0  0  0  0  0  0  0  0  0  0  0  0
   -1.4215   -1.1287    1.0329 C   0  0  0  0  0  0  0  0  0  0  0  0
   -0.1036   -1.2792    1.4955 C   0  0  0  0  0  0  0  0  0  0  0  0
    2.4457    0.6464    2.7532 H   0  0  0  0  0  0  0  0  0  0  0  0
    2.6757   -0.7047    1.6375 H   0  0  0  0  0  0  0  0  0  0  0  0
    2.0697   -0.9934    3.2957 H   0  0  0  0  0  0  0  0  0  0  0  0
    0.5583    1.9643    2.2662 H   0  0  0  0  0  0  0  0  0  0  0  0
   -1.6913    2.2311    1.5011 H   0  0  0  0  0  0  0  0  0  0  0  0
   -3.7924   -0.6106    0.2012 H   0  0  0  0  0  0  0  0  0  0  0  0
   -5.8169    0.4470    0.4167 H   0  0  0  0  0  0  0  0  0  0  0  0
   -4.7001    3.4729   -1.3815 H   0  0  0  0  0  0  0  0  0  0  0  0
   -5.9060    5.5618   -1.3896 H   0  0  0  0  0  0  0  0  0  0  0  0
   -7.4052    5.8282   -3.0822 H   0  0  0  0  0  0  0  0  0  0  0  0
   -6.9762    7.5423   -2.9596 H   0  0  0  0  0  0  0  0  0  0  0  0
   -8.5387    7.0416   -3.6352 H   0  0  0  0  0  0  0  0  0  0  0  0
  -11.3492    8.7935    2.9731 H   0  0  0  0  0  0  0  0  0  0  0  0
   -9.2788    5.1502    3.6649 H   0  0  0  0  0  0  0  0  0  0  0  0
   -8.1120    4.8428    2.4542 H   0  0  0  0  0  0  0  0  0  0  0  0
   -9.2360    3.6342    0.5761 H   0  0  0  0  0  0  0  0  0  0  0  0
   -7.9053    1.5966    0.8068 H   0  0  0  0  0  0  0  0  0  0  0  0
   -1.9572   -2.0100    0.6906 H   0  0  0  0  0  0  0  0  0  0  0  0
    0.3464   -2.2688    1.5039 H   0  0  0  0  0  0  0  0  0  0  0  0
  1  2  1  0  0  0  0
  1 29  1  0  0  0  0
  1 30  1  0  0  0  0
  1 31  1  0  0  0  0
  2  3  1  0  0  0  0
  2 28  2  0  0  0  0
  3  4  2  0  0  0  0
  3 32  1  0  0  0  0
  4  5  1  0  0  0  0
  4 33  1  0  0  0  0
  5  6  1  0  0  0  0
  5 27  2  0  0  0  0
  6  7  1  0  0  0  0
  6 34  1  0  0  0  0
  7  8  2  0  0  0  0
  7  9  1  0  0  0  0
  9 10  1  0  0  0  0
  9 35  1  0  0  0  0
 10 11  1  0  0  0  0
 10 26  2  0  0  0  0
 11 12  2  0  0  0  0
 11 36  1  0  0  0  0
 12 13  1  0  0  0  0
 12 37  1  0  0  0  0
 13 14  1  0  0  0  0
 13 25  2  0  0  0  0
 14 15  2  0  0  0  0
 14 24  1  0  0  0  0
 15 16  1  0  0  0  0
 15 17  1  0  0  0  0
 16 38  1  0  0  0  0
 16 39  1  0  0  0  0
 16 40  1  0  0  0  0
 17 18  1  0  0  0  0
 18 19  1  0  0  0  0
 18 24  2  0  0  0  0
 19 20  2  0  0  0  0
 20 21  1  0  0  0  0
 20 41  1  0  0  0  0
 21 22  2  0  0  0  0
 22 23  1  0  0  0  0
 22 24  1  0  0  0  0
 23 42  1  0  0  0  0
 23 43  1  0  0  0  0
 25 26  1  0  0  0  0
 25 44  1  0  0  0  0
 26 45  1  0  0  0  0
 27 28  1  0  0  0  0
 27 46  1  0  0  0  0
 28 47  1  0  0  0  0
M  END
$$$$
