CHEMBL3221544
 OpenBabel04072215363D

 66 67  0  0  0  0  0  0  0  0999 V2000
   12.9582    3.7705   -6.1629 C   0  0  0  0  0  0  0  0  0  0  0  0
   13.6982    2.4772   -6.4457 C   0  0  0  0  0  0  0  0  0  0  0  0
   12.8016    1.4347   -6.5973 O   0  0  0  0  0  0  0  0  0  0  0  0
   12.6301    0.7594   -7.7665 C   0  0  0  0  0  0  0  0  0  0  0  0
   12.9498    1.2678   -8.8318 O   0  0  0  0  0  0  0  0  0  0  0  0
   12.1340   -0.4991   -7.7543 N   0  0  0  0  0  0  0  0  0  0  0  0
   11.7708   -1.1104   -6.5268 C   0  0  0  0  0  0  0  0  0  0  0  0
   12.7382   -1.7877   -5.7685 C   0  0  0  0  0  0  0  0  0  0  0  0
   12.3982   -2.3340   -4.5273 C   0  0  0  0  0  0  0  0  0  0  0  0
   11.0946   -2.2082   -4.0312 C   0  0  0  0  0  0  0  0  0  0  0  0
   10.7263   -2.7829   -2.7808 N   0  0  0  0  0  0  0  0  0  0  0  0
   11.6142   -2.8686   -1.6597 C   0  0  0  0  0  0  0  0  0  0  0  0
   12.6675   -2.0149   -1.5696 N   0  0  0  0  0  0  0  0  0  0  0  0
   13.4867   -2.0104   -0.4935 C   0  0  0  0  0  0  0  0  0  0  0  0
   13.3081   -2.9140    0.5237 N   0  0  0  0  0  0  0  0  0  0  0  0
   12.2815   -3.8107    0.4701 C   0  0  0  0  0  0  0  0  0  0  0  0
   12.1291   -4.7536    1.4983 C   0  0  0  0  0  0  0  0  0  0  0  0
   11.0757   -5.7249    1.4905 C   0  0  0  0  0  0  0  0  0  0  0  0
   11.0347   -6.6442    2.5191 O   0  0  0  0  0  0  0  0  0  0  0  0
   11.9754   -6.6263    3.5728 C   0  0  0  0  0  0  0  0  0  0  0  0
   11.8972   -7.6619    4.7247 C   0  0  0  0  0  0  0  0  0  0  0  0
   10.6744   -7.5758    5.5607 N   0  0  0  0  0  0  0  0  0  0  0  0
    9.4155   -7.7539    4.8056 C   0  0  0  0  0  0  0  0  0  0  0  0
    9.2001   -9.1507    4.2178 C   0  0  0  0  0  0  0  0  0  0  0  0
   10.8074   -8.4622    6.7412 C   0  0  0  0  0  0  0  0  0  0  0  0
    9.6011   -8.4384    7.6876 C   0  0  0  0  0  0  0  0  0  0  0  0
   10.1737   -5.6591    0.3618 C   0  0  0  0  0  0  0  0  0  0  0  0
    9.0701   -6.3950    0.0482 O   0  0  0  0  0  0  0  0  0  0  0  0
    8.3350   -7.3600    0.6332 C   0  0  0  0  0  0  0  0  0  0  0  0
   10.3736   -4.7138   -0.6437 C   0  0  0  0  0  0  0  0  0  0  0  0
   11.4127   -3.8157   -0.6226 C   0  0  0  0  0  0  0  0  0  0  0  0
   10.1217   -1.5558   -4.8072 C   0  0  0  0  0  0  0  0  0  0  0  0
   10.4564   -1.0053   -6.0472 C   0  0  0  0  0  0  0  0  0  0  0  0
    9.1999   -0.2023   -6.9770 Cl  0  0  0  0  0  0  0  0  0  0  0  0
   -0.9948    1.4604   -0.7658 Cl  0  0  0  0  0  0  0  0  0  0  0  0
   13.6911    4.6046   -6.1252 H   0  0  0  0  0  0  0  0  0  0  0  0
   12.4234    3.7041   -5.1932 H   0  0  0  0  0  0  0  0  0  0  0  0
   12.2297    3.9582   -6.9786 H   0  0  0  0  0  0  0  0  0  0  0  0
   14.3823    2.2418   -5.6022 H   0  0  0  0  0  0  0  0  0  0  0  0
   14.3141    2.6108   -7.3563 H   0  0  0  0  0  0  0  0  0  0  0  0
   12.0577   -1.0327   -8.6331 H   0  0  0  0  0  0  0  0  0  0  0  0
   13.7541   -1.8943   -6.1351 H   0  0  0  0  0  0  0  0  0  0  0  0
   13.1436   -2.8770   -3.9633 H   0  0  0  0  0  0  0  0  0  0  0  0
    9.7472   -3.0777   -2.6897 H   0  0  0  0  0  0  0  0  0  0  0  0
   14.2956   -1.3033   -0.4198 H   0  0  0  0  0  0  0  0  0  0  0  0
   12.8601   -4.7051    2.2896 H   0  0  0  0  0  0  0  0  0  0  0  0
   11.9189   -5.6398    4.0800 H   0  0  0  0  0  0  0  0  0  0  0  0
   12.9874   -6.7910    3.1294 H   0  0  0  0  0  0  0  0  0  0  0  0
   12.7729   -7.4070    5.3730 H   0  0  0  0  0  0  0  0  0  0  0  0
   12.0875   -8.6959    4.3761 H   0  0  0  0  0  0  0  0  0  0  0  0
    9.3719   -7.0491    3.9687 H   0  0  0  0  0  0  0  0  0  0  0  0
    8.5521   -7.4646    5.4330 H   0  0  0  0  0  0  0  0  0  0  0  0
   10.0502   -9.4465    3.5756 H   0  0  0  0  0  0  0  0  0  0  0  0
    8.2921   -9.1140    3.5762 H   0  0  0  0  0  0  0  0  0  0  0  0
    9.0101   -9.9153    5.0045 H   0  0  0  0  0  0  0  0  0  0  0  0
   11.6938   -8.1481    7.3462 H   0  0  0  0  0  0  0  0  0  0  0  0
   10.9844   -9.5084    6.4096 H   0  0  0  0  0  0  0  0  0  0  0  0
    9.4167   -7.4140    8.0753 H   0  0  0  0  0  0  0  0  0  0  0  0
    9.7966   -9.1163    8.5462 H   0  0  0  0  0  0  0  0  0  0  0  0
    8.6809   -8.8156    7.1966 H   0  0  0  0  0  0  0  0  0  0  0  0
    7.5330   -7.6256   -0.0986 H   0  0  0  0  0  0  0  0  0  0  0  0
    7.8334   -6.9789    1.5440 H   0  0  0  0  0  0  0  0  0  0  0  0
    8.9773   -8.2418    0.7737 H   0  0  0  0  0  0  0  0  0  0  0  0
    9.7026   -4.7520   -1.4729 H   0  0  0  0  0  0  0  0  0  0  0  0
    9.1077   -1.4422   -4.4427 H   0  0  0  0  0  0  0  0  0  0  0  0
    0.3291    1.8264   -0.8410 H   0  0  0  0  0  0  0  0  0  0  0  0
  1  2  1  0  0  0  0
  1 36  1  0  0  0  0
  1 37  1  0  0  0  0
  1 38  1  0  0  0  0
  2  3  1  0  0  0  0
  2 39  1  0  0  0  0
  2 40  1  0  0  0  0
  3  4  1  0  0  0  0
  4  5  2  0  0  0  0
  4  6  1  0  0  0  0
  6  7  1  0  0  0  0
  6 41  1  0  0  0  0
  7  8  1  0  0  0  0
  7 33  2  0  0  0  0
  8  9  2  0  0  0  0
  8 42  1  0  0  0  0
  9 10  1  0  0  0  0
  9 43  1  0  0  0  0
 10 11  1  0  0  0  0
 10 32  2  0  0  0  0
 11 12  1  0  0  0  0
 11 44  1  0  0  0  0
 12 13  1  0  0  0  0
 12 31  2  0  0  0  0
 13 14  2  0  0  0  0
 14 15  1  0  0  0  0
 14 45  1  0  0  0  0
 15 16  2  0  0  0  0
 16 17  1  0  0  0  0
 16 31  1  0  0  0  0
 17 18  2  0  0  0  0
 17 46  1  0  0  0  0
 18 19  1  0  0  0  0
 18 27  1  0  0  0  0
 19 20  1  0  0  0  0
 20 21  1  0  0  0  0
 20 47  1  0  0  0  0
 20 48  1  0  0  0  0
 21 22  1  0  0  0  0
 21 49  1  0  0  0  0
 21 50  1  0  0  0  0
 22 23  1  0  0  0  0
 22 25  1  0  0  0  0
 23 24  1  0  0  0  0
 23 51  1  0  0  0  0
 23 52  1  0  0  0  0
 24 53  1  0  0  0  0
 24 54  1  0  0  0  0
 24 55  1  0  0  0  0
 25 26  1  0  0  0  0
 25 56  1  0  0  0  0
 25 57  1  0  0  0  0
 26 58  1  0  0  0  0
 26 59  1  0  0  0  0
 26 60  1  0  0  0  0
 27 28  1  0  0  0  0
 27 30  2  0  0  0  0
 28 29  1  0  0  0  0
 29 61  1  0  0  0  0
 29 62  1  0  0  0  0
 29 63  1  0  0  0  0
 30 31  1  0  0  0  0
 30 64  1  0  0  0  0
 32 33  1  0  0  0  0
 32 65  1  0  0  0  0
 33 34  1  0  0  0  0
 35 66  1  0  0  0  0
M  END
$$$$
