CHEMBL255394
 OpenBabel04072215363D

 59 63  0  0  0  0  0  0  0  0999 V2000
    1.0158   -0.3077   -0.1813 C   0  0  0  0  0  0  0  0  0  0  0  0
    2.5338   -0.1429   -0.0864 C   0  0  0  0  0  0  0  0  0  0  0  0
    3.2932   -0.3258   -1.4025 C   0  0  0  0  0  0  0  0  0  0  0  0
    2.9496    1.1130    0.6516 C   0  0  0  0  0  0  0  0  0  0  0  0
    3.7501    1.1319    1.8512 C   0  0  0  0  0  0  0  0  0  0  0  0
    4.4009   -0.0131    2.5651 C   0  0  0  0  0  0  0  0  0  0  0  0
    4.4061   -1.2546    2.1209 N   0  0  0  0  0  0  0  0  0  0  0  0
    5.1249   -2.0029    3.0188 N   0  0  0  0  0  0  0  0  0  0  0  0
    5.5149   -1.1829    3.9709 C   0  0  0  0  0  0  0  0  0  0  0  0
    6.2877   -1.4291    5.0532 N   0  0  0  0  0  0  0  0  0  0  0  0
    6.7123   -2.7968    5.3004 C   0  0  0  0  0  0  0  0  0  0  0  0
    6.3034   -0.5234    6.1848 C   0  0  0  0  0  0  0  0  0  0  0  0
    5.0900    0.1011    3.7492 O   0  0  0  0  0  0  0  0  0  0  0  0
    3.8410    2.4334    2.2753 C   0  0  0  0  0  0  0  0  0  0  0  0
    3.1883    3.2216    1.3744 N   0  0  0  0  0  0  0  0  0  0  0  0
    3.0823    4.5520    1.4804 N   0  0  0  0  0  0  0  0  0  0  0  0
    2.4248    5.1004    0.5129 C   0  0  0  0  0  0  0  0  0  0  0  0
    1.8705    4.4599   -0.5571 N   0  0  0  0  0  0  0  0  0  0  0  0
    1.9454    3.1656   -0.6731 C   0  0  0  0  0  0  0  0  0  0  0  0
    1.3771    2.5399   -1.7649 N   0  0  0  0  0  0  0  0  0  0  0  0
    0.1866    2.8756   -2.4465 C   0  0  0  0  0  0  0  0  0  0  0  0
   -0.5670    4.0201   -2.1789 C   0  0  0  0  0  0  0  0  0  0  0  0
   -1.7230    4.3352   -2.9142 C   0  0  0  0  0  0  0  0  0  0  0  0
   -2.4209    5.5990   -2.5617 C   0  0  0  0  0  0  0  0  0  0  0  0
   -2.0002    6.2789   -1.6281 O   0  0  0  0  0  0  0  0  0  0  0  0
   -3.5118    5.9735   -3.3174 N   0  0  0  0  0  0  0  0  0  0  0  0
   -4.1758    7.2130   -3.0670 C   0  0  0  0  0  0  0  0  0  0  0  0
   -5.2966    7.2717   -2.0664 C   0  0  0  0  0  0  0  0  0  0  0  0
   -5.5799    7.4725   -3.5266 C   0  0  0  0  0  0  0  0  0  0  0  0
   -2.1354    3.4713   -3.9276 C   0  0  0  0  0  0  0  0  0  0  0  0
   -3.2349    3.7289   -4.6521 F   0  0  0  0  0  0  0  0  0  0  0  0
   -1.4135    2.3175   -4.2147 C   0  0  0  0  0  0  0  0  0  0  0  0
   -0.2624    2.0393   -3.4829 C   0  0  0  0  0  0  0  0  0  0  0  0
    0.4260    0.9211   -3.7628 F   0  0  0  0  0  0  0  0  0  0  0  0
    2.6634    2.4547    0.3662 C   0  0  0  0  0  0  0  0  0  0  0  0
    0.7529   -1.1803   -0.7866 H   0  0  0  0  0  0  0  0  0  0  0  0
    0.4936    0.5540   -0.5899 H   0  0  0  0  0  0  0  0  0  0  0  0
    0.5996   -0.4615    0.8219 H   0  0  0  0  0  0  0  0  0  0  0  0
    2.8266   -1.0108    0.5087 H   0  0  0  0  0  0  0  0  0  0  0  0
    3.2770    0.5533   -2.0497 H   0  0  0  0  0  0  0  0  0  0  0  0
    2.9045   -1.1777   -1.9681 H   0  0  0  0  0  0  0  0  0  0  0  0
    4.3532   -0.5255   -1.1947 H   0  0  0  0  0  0  0  0  0  0  0  0
    6.6284   -3.4413    4.4178 H   0  0  0  0  0  0  0  0  0  0  0  0
    6.1192   -3.2482    6.1035 H   0  0  0  0  0  0  0  0  0  0  0  0
    7.7645   -2.8075    5.6043 H   0  0  0  0  0  0  0  0  0  0  0  0
    5.8897    0.4654    5.9623 H   0  0  0  0  0  0  0  0  0  0  0  0
    7.3341   -0.3755    6.5241 H   0  0  0  0  0  0  0  0  0  0  0  0
    5.7290   -0.9432    7.0186 H   0  0  0  0  0  0  0  0  0  0  0  0
    4.3224    2.8782    3.1369 H   0  0  0  0  0  0  0  0  0  0  0  0
    2.2865    6.1950    0.5342 H   0  0  0  0  0  0  0  0  0  0  0  0
    1.6454    1.5830   -1.9386 H   0  0  0  0  0  0  0  0  0  0  0  0
   -0.2734    4.6972   -1.3816 H   0  0  0  0  0  0  0  0  0  0  0  0
   -3.8248    5.3921   -4.0879 H   0  0  0  0  0  0  0  0  0  0  0  0
   -3.4939    8.0619   -3.0804 H   0  0  0  0  0  0  0  0  0  0  0  0
   -5.3201    8.1292   -1.4042 H   0  0  0  0  0  0  0  0  0  0  0  0
   -5.6162    6.3462   -1.6022 H   0  0  0  0  0  0  0  0  0  0  0  0
   -5.8196    8.4764   -3.8580 H   0  0  0  0  0  0  0  0  0  0  0  0
   -6.1116    6.6893   -4.0511 H   0  0  0  0  0  0  0  0  0  0  0  0
   -1.7390    1.6443   -5.0003 H   0  0  0  0  0  0  0  0  0  0  0  0
  1  2  1  0  0  0  0
  1 36  1  0  0  0  0
  1 37  1  0  0  0  0
  1 38  1  0  0  0  0
  2  3  1  0  0  0  0
  2  4  1  0  0  0  0
  2 39  1  0  0  0  0
  3 40  1  0  0  0  0
  3 41  1  0  0  0  0
  3 42  1  0  0  0  0
  4  5  1  0  0  0  0
  4 35  2  0  0  0  0
  5  6  1  0  0  0  0
  5 14  2  0  0  0  0
  6  7  2  0  0  0  0
  6 13  1  0  0  0  0
  7  8  1  0  0  0  0
  8  9  2  0  0  0  0
  9 10  1  0  0  0  0
  9 13  1  0  0  0  0
 10 11  1  0  0  0  0
 10 12  1  0  0  0  0
 11 43  1  0  0  0  0
 11 44  1  0  0  0  0
 11 45  1  0  0  0  0
 12 46  1  0  0  0  0
 12 47  1  0  0  0  0
 12 48  1  0  0  0  0
 14 15  1  0  0  0  0
 14 49  1  0  0  0  0
 15 16  1  0  0  0  0
 15 35  1  0  0  0  0
 16 17  2  0  0  0  0
 17 18  1  0  0  0  0
 17 50  1  0  0  0  0
 18 19  2  0  0  0  0
 19 20  1  0  0  0  0
 19 35  1  0  0  0  0
 20 21  1  0  0  0  0
 20 51  1  0  0  0  0
 21 22  1  0  0  0  0
 21 33  2  0  0  0  0
 22 23  2  0  0  0  0
 22 52  1  0  0  0  0
 23 24  1  0  0  0  0
 23 30  1  0  0  0  0
 24 25  2  0  0  0  0
 24 26  1  0  0  0  0
 26 27  1  0  0  0  0
 26 53  1  0  0  0  0
 27 28  1  0  0  0  0
 27 29  1  0  0  0  0
 27 54  1  0  0  0  0
 28 29  1  0  0  0  0
 28 55  1  0  0  0  0
 28 56  1  0  0  0  0
 29 57  1  0  0  0  0
 29 58  1  0  0  0  0
 30 31  1  0  0  0  0
 30 32  2  0  0  0  0
 32 33  1  0  0  0  0
 32 59  1  0  0  0  0
 33 34  1  0  0  0  0
M  END
$$$$
