CHEMBL3963620
 OpenBabel04072215373D

 52 56  0  0  0  0  0  0  0  0999 V2000
    1.1337    0.2611   -0.4426 C   0  0  0  0  0  0  0  0  0  0  0  0
    2.5287    0.1064   -0.2211 O   0  0  0  0  0  0  0  0  0  0  0  0
    3.1122   -1.0820   -0.5559 C   0  0  0  0  0  0  0  0  0  0  0  0
    4.1747   -1.4300    0.2879 C   0  0  0  0  0  0  0  0  0  0  0  0
    4.9144   -2.6244    0.0942 C   0  0  0  0  0  0  0  0  0  0  0  0
    5.9673   -3.0834    0.8999 C   0  0  0  0  0  0  0  0  0  0  0  0
    6.3479   -2.3461    2.0524 N   0  0  0  0  0  0  0  0  0  0  0  0
    7.5820   -2.5256    2.7143 C   0  0  0  0  0  0  0  0  0  0  0  0
    8.7775   -2.5685    1.9823 C   0  0  0  0  0  0  0  0  0  0  0  0
    9.9977   -2.8112    2.6102 C   0  0  0  0  0  0  0  0  0  0  0  0
   10.0400   -3.0084    3.9895 C   0  0  0  0  0  0  0  0  0  0  0  0
   11.5759   -3.3463    4.7032 Cl  0  0  0  0  0  0  0  0  0  0  0  0
    8.8586   -2.9379    4.7371 C   0  0  0  0  0  0  0  0  0  0  0  0
    8.8374   -3.1695    6.4503 Cl  0  0  0  0  0  0  0  0  0  0  0  0
    7.6355   -2.6874    4.1016 C   0  0  0  0  0  0  0  0  0  0  0  0
    6.6378   -4.2193    0.6218 N   0  0  0  0  0  0  0  0  0  0  0  0
    6.2571   -4.9050   -0.4561 C   0  0  0  0  0  0  0  0  0  0  0  0
    5.2732   -4.5613   -1.2862 N   0  0  0  0  0  0  0  0  0  0  0  0
    4.6224   -3.4328   -1.0020 C   0  0  0  0  0  0  0  0  0  0  0  0
    3.6022   -3.0557   -1.8516 C   0  0  0  0  0  0  0  0  0  0  0  0
    2.8078   -1.9170   -1.6324 C   0  0  0  0  0  0  0  0  0  0  0  0
    1.7637   -1.5982   -2.4704 O   0  0  0  0  0  0  0  0  0  0  0  0
    1.2263   -2.7261   -3.1817 C   0  0  0  0  0  0  0  0  0  0  0  0
   -0.1753   -2.5361   -3.6461 C   0  0  0  0  0  0  0  0  0  0  0  0
   -0.8977   -1.3624   -3.7211 C   0  0  0  0  0  0  0  0  0  0  0  0
   -2.4712   -1.6857   -4.3090 S   0  0  0  0  0  0  0  0  0  0  0  0
   -2.0752   -3.3572   -4.4579 C   0  0  0  0  0  0  0  0  0  0  0  0
   -3.0484   -4.3424   -4.9540 C   0  0  0  0  0  0  0  0  0  0  0  0
   -4.0246   -4.0129   -5.9059 C   0  0  0  0  0  0  0  0  0  0  0  0
   -4.9384   -4.9709   -6.3524 C   0  0  0  0  0  0  0  0  0  0  0  0
   -4.8806   -6.2713   -5.8597 C   0  0  0  0  0  0  0  0  0  0  0  0
   -6.0217   -7.4382   -6.4007 Cl  0  0  0  0  0  0  0  0  0  0  0  0
   -3.9049   -6.6280   -4.9339 C   0  0  0  0  0  0  0  0  0  0  0  0
   -2.9893   -5.6682   -4.4879 C   0  0  0  0  0  0  0  0  0  0  0  0
   -0.8624   -3.6660   -4.0562 N   0  0  0  0  0  0  0  0  0  0  0  0
    0.7080    0.7055    0.4634 H   0  0  0  0  0  0  0  0  0  0  0  0
    0.5939   -0.6725   -0.6181 H   0  0  0  0  0  0  0  0  0  0  0  0
    0.9739    0.9642   -1.2655 H   0  0  0  0  0  0  0  0  0  0  0  0
    4.4275   -0.7587    1.1070 H   0  0  0  0  0  0  0  0  0  0  0  0
    5.5564   -2.2725    2.6834 H   0  0  0  0  0  0  0  0  0  0  0  0
    8.7560   -2.4304    0.9027 H   0  0  0  0  0  0  0  0  0  0  0  0
   10.9033   -2.8593    2.0110 H   0  0  0  0  0  0  0  0  0  0  0  0
    6.7235   -2.6550    4.6913 H   0  0  0  0  0  0  0  0  0  0  0  0
    6.7916   -5.8219   -0.6770 H   0  0  0  0  0  0  0  0  0  0  0  0
    3.4448   -3.7016   -2.7110 H   0  0  0  0  0  0  0  0  0  0  0  0
    1.2058   -3.6126   -2.5321 H   0  0  0  0  0  0  0  0  0  0  0  0
    1.8539   -2.9259   -4.0591 H   0  0  0  0  0  0  0  0  0  0  0  0
   -0.5833   -0.3629   -3.4570 H   0  0  0  0  0  0  0  0  0  0  0  0
   -4.0777   -3.0103   -6.3241 H   0  0  0  0  0  0  0  0  0  0  0  0
   -5.6908   -4.6943   -7.0863 H   0  0  0  0  0  0  0  0  0  0  0  0
   -3.8510   -7.6446   -4.5538 H   0  0  0  0  0  0  0  0  0  0  0  0
   -2.2281   -5.9593   -3.7653 H   0  0  0  0  0  0  0  0  0  0  0  0
  1  2  1  0  0  0  0
  1 36  1  0  0  0  0
  1 37  1  0  0  0  0
  1 38  1  0  0  0  0
  2  3  1  0  0  0  0
  3  4  1  0  0  0  0
  3 21  2  0  0  0  0
  4  5  2  0  0  0  0
  4 39  1  0  0  0  0
  5  6  1  0  0  0  0
  5 19  1  0  0  0  0
  6  7  1  0  0  0  0
  6 16  2  0  0  0  0
  7  8  1  0  0  0  0
  7 40  1  0  0  0  0
  8  9  1  0  0  0  0
  8 15  2  0  0  0  0
  9 10  2  0  0  0  0
  9 41  1  0  0  0  0
 10 11  1  0  0  0  0
 10 42  1  0  0  0  0
 11 12  1  0  0  0  0
 11 13  2  0  0  0  0
 13 14  1  0  0  0  0
 13 15  1  0  0  0  0
 15 43  1  0  0  0  0
 16 17  1  0  0  0  0
 17 18  2  0  0  0  0
 17 44  1  0  0  0  0
 18 19  1  0  0  0  0
 19 20  2  0  0  0  0
 20 21  1  0  0  0  0
 20 45  1  0  0  0  0
 21 22  1  0  0  0  0
 22 23  1  0  0  0  0
 23 24  1  0  0  0  0
 23 46  1  0  0  0  0
 23 47  1  0  0  0  0
 24 25  2  0  0  0  0
 24 35  1  0  0  0  0
 25 26  1  0  0  0  0
 25 48  1  0  0  0  0
 26 27  1  0  0  0  0
 27 28  1  0  0  0  0
 27 35  2  0  0  0  0
 28 29  1  0  0  0  0
 28 34  2  0  0  0  0
 29 30  2  0  0  0  0
 29 49  1  0  0  0  0
 30 31  1  0  0  0  0
 30 50  1  0  0  0  0
 31 32  1  0  0  0  0
 31 33  2  0  0  0  0
 33 34  1  0  0  0  0
 33 51  1  0  0  0  0
 34 52  1  0  0  0  0
M  END
$$$$
