CHEMBL149201
 OpenBabel04072215363D

 51 54  0  0  0  0  0  0  0  0999 V2000
   -1.1127    2.3841    0.5293 C   0  0  0  0  0  0  0  0  0  0  0  0
   -0.6476    1.0336    0.1161 C   0  0  0  0  0  0  0  0  0  0  0  0
   -1.3986   -0.0806    0.3953 N   0  0  0  0  0  0  0  0  0  0  0  0
   -0.7751   -1.2051   -0.0769 C   0  0  0  0  0  0  0  0  0  0  0  0
   -1.4346   -2.4474    0.0881 C   0  0  0  0  0  0  0  0  0  0  0  0
   -1.2597   -3.2290    1.1626 C   0  0  0  0  0  0  0  0  0  0  0  0
   -0.3736   -2.9668    2.3593 C   0  0  0  0  0  0  0  0  0  0  0  0
    0.3826   -2.0410    2.5712 O   0  0  0  0  0  0  0  0  0  0  0  0
   -0.6022   -4.0352    3.2117 N   0  0  0  0  0  0  0  0  0  0  0  0
   -1.5042   -4.9408    2.6678 C   0  0  0  0  0  0  0  0  0  0  0  0
   -1.9231   -6.1220    3.2500 C   0  0  0  0  0  0  0  0  0  0  0  0
   -2.7946   -6.9630    2.5351 C   0  0  0  0  0  0  0  0  0  0  0  0
   -3.1933   -8.2830    3.0849 C   0  0  0  0  0  0  0  0  0  0  0  0
   -4.4680   -8.8335    2.8623 C   0  0  0  0  0  0  0  0  0  0  0  0
   -4.8085  -10.1030    3.3471 C   0  0  0  0  0  0  0  0  0  0  0  0
   -3.8863  -10.8455    4.0788 C   0  0  0  0  0  0  0  0  0  0  0  0
   -2.6270  -10.3168    4.3341 C   0  0  0  0  0  0  0  0  0  0  0  0
   -2.2867   -9.0543    3.8397 C   0  0  0  0  0  0  0  0  0  0  0  0
   -3.2311   -6.5243    1.2558 C   0  0  0  0  0  0  0  0  0  0  0  0
   -2.8110   -5.3043    0.6906 C   0  0  0  0  0  0  0  0  0  0  0  0
   -1.9340   -4.5171    1.4108 C   0  0  0  0  0  0  0  0  0  0  0  0
    0.4318   -0.8186   -0.6333 C   0  0  0  0  0  0  0  0  0  0  0  0
    1.4609   -1.7292   -1.2113 C   0  0  0  0  0  0  0  0  0  0  0  0
    0.5123    0.6170   -0.5232 C   0  0  0  0  0  0  0  0  0  0  0  0
    1.6516    1.4951   -0.9707 C   0  0  0  0  0  0  0  0  0  0  0  0
    1.8445    1.4787   -2.4845 C   0  0  0  0  0  0  0  0  0  0  0  0
    2.9881    2.3544   -2.9254 C   0  0  0  0  0  0  0  0  0  0  0  0
    3.6746    3.0533   -2.1992 O   0  0  0  0  0  0  0  0  0  0  0  0
    3.1930    2.2823   -4.2643 O   0  0  0  0  0  0  0  0  0  0  0  0
   -2.0797    2.3360    1.0432 H   0  0  0  0  0  0  0  0  0  0  0  0
   -1.2310    3.0303   -0.3454 H   0  0  0  0  0  0  0  0  0  0  0  0
   -0.3950    2.8479    1.2128 H   0  0  0  0  0  0  0  0  0  0  0  0
   -2.2737   -0.0759    0.9010 H   0  0  0  0  0  0  0  0  0  0  0  0
   -2.1050   -2.7510   -0.7109 H   0  0  0  0  0  0  0  0  0  0  0  0
   -0.1256   -4.1285    4.0953 H   0  0  0  0  0  0  0  0  0  0  0  0
   -1.5688   -6.3884    4.2408 H   0  0  0  0  0  0  0  0  0  0  0  0
   -5.2217   -8.2784    2.3084 H   0  0  0  0  0  0  0  0  0  0  0  0
   -5.7960  -10.5126    3.1496 H   0  0  0  0  0  0  0  0  0  0  0  0
   -4.1469  -11.8339    4.4479 H   0  0  0  0  0  0  0  0  0  0  0  0
   -1.9009  -10.8870    4.9079 H   0  0  0  0  0  0  0  0  0  0  0  0
   -1.2816   -8.6881    4.0383 H   0  0  0  0  0  0  0  0  0  0  0  0
   -3.8922   -7.1568    0.6646 H   0  0  0  0  0  0  0  0  0  0  0  0
   -3.1571   -5.0148   -0.2960 H   0  0  0  0  0  0  0  0  0  0  0  0
    1.1868   -2.7816   -1.0921 H   0  0  0  0  0  0  0  0  0  0  0  0
    2.4277   -1.5754   -0.7216 H   0  0  0  0  0  0  0  0  0  0  0  0
    1.5777   -1.5489   -2.2838 H   0  0  0  0  0  0  0  0  0  0  0  0
    2.5706    1.1708   -0.4662 H   0  0  0  0  0  0  0  0  0  0  0  0
    1.4764    2.5275   -0.6414 H   0  0  0  0  0  0  0  0  0  0  0  0
    0.9321    1.8205   -2.9852 H   0  0  0  0  0  0  0  0  0  0  0  0
    2.0731    0.4666   -2.8272 H   0  0  0  0  0  0  0  0  0  0  0  0
    2.5765    1.6790   -4.7211 H   0  0  0  0  0  0  0  0  0  0  0  0
  1  2  1  0  0  0  0
  1 30  1  0  0  0  0
  1 31  1  0  0  0  0
  1 32  1  0  0  0  0
  2  3  1  0  0  0  0
  2 24  2  0  0  0  0
  3  4  1  0  0  0  0
  3 33  1  0  0  0  0
  4  5  1  0  0  0  0
  4 22  2  0  0  0  0
  5  6  2  0  0  0  0
  5 34  1  0  0  0  0
  6  7  1  0  0  0  0
  6 21  1  0  0  0  0
  7  8  2  0  0  0  0
  7  9  1  0  0  0  0
  9 10  1  0  0  0  0
  9 35  1  0  0  0  0
 10 11  1  0  0  0  0
 10 21  2  0  0  0  0
 11 12  2  0  0  0  0
 11 36  1  0  0  0  0
 12 13  1  0  0  0  0
 12 19  1  0  0  0  0
 13 14  1  0  0  0  0
 13 18  2  0  0  0  0
 14 15  2  0  0  0  0
 14 37  1  0  0  0  0
 15 16  1  0  0  0  0
 15 38  1  0  0  0  0
 16 17  2  0  0  0  0
 16 39  1  0  0  0  0
 17 18  1  0  0  0  0
 17 40  1  0  0  0  0
 18 41  1  0  0  0  0
 19 20  2  0  0  0  0
 19 42  1  0  0  0  0
 20 21  1  0  0  0  0
 20 43  1  0  0  0  0
 22 23  1  0  0  0  0
 22 24  1  0  0  0  0
 23 44  1  0  0  0  0
 23 45  1  0  0  0  0
 23 46  1  0  0  0  0
 24 25  1  0  0  0  0
 25 26  1  0  0  0  0
 25 47  1  0  0  0  0
 25 48  1  0  0  0  0
 26 27  1  0  0  0  0
 26 49  1  0  0  0  0
 26 50  1  0  0  0  0
 27 28  2  0  0  0  0
 27 29  1  0  0  0  0
 29 51  1  0  0  0  0
M  END
$$$$
