CHEMBL1253916
 OpenBabel04072215363D

 51 54  0  0  0  0  0  0  0  0999 V2000
    2.4735    1.1880    0.6992 O   0  0  0  0  0  0  0  0  0  0  0  0
    2.1216    0.0192    0.6119 C   0  0  0  0  0  0  0  0  0  0  0  0
    0.7946   -0.3868    0.5332 N   0  0  0  0  0  0  0  0  0  0  0  0
   -0.3392    0.4659    0.5680 C   0  0  0  0  0  0  0  0  0  0  0  0
   -0.2666    1.8558    0.4318 C   0  0  0  0  0  0  0  0  0  0  0  0
   -1.4091    2.6501    0.5381 C   0  0  0  0  0  0  0  0  0  0  0  0
   -2.6489    2.0615    0.7647 C   0  0  0  0  0  0  0  0  0  0  0  0
   -2.7571    0.6689    0.8678 C   0  0  0  0  0  0  0  0  0  0  0  0
   -4.0968    0.0173    1.0996 C   0  0  0  0  0  0  0  0  0  0  0  0
   -5.1288    0.9013    1.1960 F   0  0  0  0  0  0  0  0  0  0  0  0
   -4.4341   -0.8421    0.0986 F   0  0  0  0  0  0  0  0  0  0  0  0
   -4.1261   -0.7167    2.2464 F   0  0  0  0  0  0  0  0  0  0  0  0
   -1.5969   -0.1216    0.7584 C   0  0  0  0  0  0  0  0  0  0  0  0
    2.9933   -1.0599    0.6178 N   0  0  0  0  0  0  0  0  0  0  0  0
    4.3993   -1.0112    0.8431 C   0  0  0  0  0  0  0  0  0  0  0  0
    5.0689    0.1668    1.1842 C   0  0  0  0  0  0  0  0  0  0  0  0
    6.4478    0.1749    1.4182 C   0  0  0  0  0  0  0  0  0  0  0  0
    7.2034   -0.9896    1.2725 C   0  0  0  0  0  0  0  0  0  0  0  0
    8.5734   -1.0121    1.4802 O   0  0  0  0  0  0  0  0  0  0  0  0
    9.2977    0.0359    0.9117 C   0  0  0  0  0  0  0  0  0  0  0  0
    8.7973    0.6492   -0.1886 N   0  0  0  0  0  0  0  0  0  0  0  0
    9.4410    1.7132   -0.6847 C   0  0  0  0  0  0  0  0  0  0  0  0
   10.5816    2.2435   -0.2458 N   0  0  0  0  0  0  0  0  0  0  0  0
   11.1103    1.5914    0.8089 C   0  0  0  0  0  0  0  0  0  0  0  0
   12.3063    1.8927    1.4926 C   0  0  0  0  0  0  0  0  0  0  0  0
   12.4388    0.9679    2.4994 C   0  0  0  0  0  0  0  0  0  0  0  0
   11.3534    0.1162    2.4520 N   0  0  0  0  0  0  0  0  0  0  0  0
   11.1689   -0.9485    3.4273 C   0  0  0  0  0  0  0  0  0  0  0  0
   11.8256   -2.2686    3.0276 C   0  0  0  0  0  0  0  0  0  0  0  0
   13.2391   -2.1512    2.8853 O   0  0  0  0  0  0  0  0  0  0  0  0
   10.5167    0.4827    1.4173 C   0  0  0  0  0  0  0  0  0  0  0  0
    6.5515   -2.1851    0.9766 C   0  0  0  0  0  0  0  0  0  0  0  0
    5.1614   -2.1926    0.7537 C   0  0  0  0  0  0  0  0  0  0  0  0
    4.4063   -3.7043    0.3703 Cl  0  0  0  0  0  0  0  0  0  0  0  0
    0.6176   -1.3756    0.6288 H   0  0  0  0  0  0  0  0  0  0  0  0
    0.6733    2.3644    0.2449 H   0  0  0  0  0  0  0  0  0  0  0  0
   -1.3204    3.7291    0.4493 H   0  0  0  0  0  0  0  0  0  0  0  0
   -3.5265    2.6983    0.8602 H   0  0  0  0  0  0  0  0  0  0  0  0
   -1.6883   -1.2023    0.8544 H   0  0  0  0  0  0  0  0  0  0  0  0
    2.6268   -1.9683    0.3685 H   0  0  0  0  0  0  0  0  0  0  0  0
    4.5581    1.1191    1.2762 H   0  0  0  0  0  0  0  0  0  0  0  0
    6.9194    1.1200    1.6759 H   0  0  0  0  0  0  0  0  0  0  0  0
    8.9733    2.2047   -1.5317 H   0  0  0  0  0  0  0  0  0  0  0  0
   12.9864    2.7036    1.2701 H   0  0  0  0  0  0  0  0  0  0  0  0
   13.2115    0.8464    3.2495 H   0  0  0  0  0  0  0  0  0  0  0  0
   10.0966   -1.0791    3.5944 H   0  0  0  0  0  0  0  0  0  0  0  0
   11.6058   -0.5869    4.3669 H   0  0  0  0  0  0  0  0  0  0  0  0
   11.4108   -2.6683    2.0984 H   0  0  0  0  0  0  0  0  0  0  0  0
   11.6549   -3.0034    3.8220 H   0  0  0  0  0  0  0  0  0  0  0  0
   13.4190   -1.8481    1.9762 H   0  0  0  0  0  0  0  0  0  0  0  0
    7.1227   -3.1053    0.8909 H   0  0  0  0  0  0  0  0  0  0  0  0
  1  2  2  0  0  0  0
  2  3  1  0  0  0  0
  2 14  1  0  0  0  0
  3  4  1  0  0  0  0
  3 35  1  0  0  0  0
  4  5  1  0  0  0  0
  4 13  2  0  0  0  0
  5  6  2  0  0  0  0
  5 36  1  0  0  0  0
  6  7  1  0  0  0  0
  6 37  1  0  0  0  0
  7  8  2  0  0  0  0
  7 38  1  0  0  0  0
  8  9  1  0  0  0  0
  8 13  1  0  0  0  0
  9 10  1  0  0  0  0
  9 11  1  0  0  0  0
  9 12  1  0  0  0  0
 13 39  1  0  0  0  0
 14 15  1  0  0  0  0
 14 40  1  0  0  0  0
 15 16  1  0  0  0  0
 15 33  2  0  0  0  0
 16 17  2  0  0  0  0
 16 41  1  0  0  0  0
 17 18  1  0  0  0  0
 17 42  1  0  0  0  0
 18 19  1  0  0  0  0
 18 32  2  0  0  0  0
 19 20  1  0  0  0  0
 20 21  1  0  0  0  0
 20 31  2  0  0  0  0
 21 22  2  0  0  0  0
 22 23  1  0  0  0  0
 22 43  1  0  0  0  0
 23 24  2  0  0  0  0
 24 25  1  0  0  0  0
 24 31  1  0  0  0  0
 25 26  2  0  0  0  0
 25 44  1  0  0  0  0
 26 27  1  0  0  0  0
 26 45  1  0  0  0  0
 27 28  1  0  0  0  0
 27 31  1  0  0  0  0
 28 29  1  0  0  0  0
 28 46  1  0  0  0  0
 28 47  1  0  0  0  0
 29 30  1  0  0  0  0
 29 48  1  0  0  0  0
 29 49  1  0  0  0  0
 30 50  1  0  0  0  0
 32 33  1  0  0  0  0
 32 51  1  0  0  0  0
 33 34  1  0  0  0  0
M  END
$$$$
