CHEMBL503016
 OpenBabel04072215383D

 83 89  0  0  0  0  0  0  0  0999 V2000
   11.9580    1.5455    7.1715 C   0  0  0  0  0  0  0  0  0  0  0  0
   11.4149    1.5109    5.8361 N   0  0  0  0  0  0  0  0  0  0  0  0
   10.0673    1.3349    5.6537 C   0  0  0  0  0  0  0  0  0  0  0  0
    9.2995    1.1613    6.5937 O   0  0  0  0  0  0  0  0  0  0  0  0
    9.6431    1.4117    4.3442 N   0  0  0  0  0  0  0  0  0  0  0  0
   10.5045    1.3632    3.1640 C   0  0  0  0  0  0  0  0  0  0  0  0
   10.0465    2.4092    2.1336 C   0  0  0  0  0  0  0  0  0  0  0  0
    8.6329    2.2585    1.7179 N   0  0  0  0  0  0  0  0  0  0  0  0
    8.3608    1.0139    0.9734 C   0  0  0  0  0  0  0  0  0  0  0  0
    9.1687    0.8488   -0.2926 C   0  0  0  0  0  0  0  0  0  0  0  0
   10.4237    0.2232   -0.2652 C   0  0  0  0  0  0  0  0  0  0  0  0
   11.1973    0.1210   -1.4183 C   0  0  0  0  0  0  0  0  0  0  0  0
   10.7147    0.6005   -2.6391 C   0  0  0  0  0  0  0  0  0  0  0  0
   11.5532    0.5030   -3.8377 C   0  0  0  0  0  0  0  0  0  0  0  0
   12.5220   -0.4312   -4.1552 C   0  0  0  0  0  0  0  0  0  0  0  0
   13.1492   -0.1786   -5.4072 C   0  0  0  0  0  0  0  0  0  0  0  0
   14.1240   -0.9444   -5.9667 N   0  0  0  0  0  0  0  0  0  0  0  0
   14.6050   -0.4997   -7.1424 C   0  0  0  0  0  0  0  0  0  0  0  0
   14.1811    0.6411   -7.7992 C   0  0  0  0  0  0  0  0  0  0  0  0
   13.1355    1.3848   -7.2524 C   0  0  0  0  0  0  0  0  0  0  0  0
   12.6020    2.5244   -7.8078 O   0  0  0  0  0  0  0  0  0  0  0  0
   12.4704    2.6115   -9.1682 C   0  0  0  0  0  0  0  0  0  0  0  0
   12.2623    1.5130   -9.9964 C   0  0  0  0  0  0  0  0  0  0  0  0
   12.3057    1.6734  -11.3771 C   0  0  0  0  0  0  0  0  0  0  0  0
   12.4937    2.9357  -11.9446 C   0  0  0  0  0  0  0  0  0  0  0  0
   12.6460    3.1350  -13.3259 N   0  0  0  0  0  0  0  0  0  0  0  0
   12.6529    2.1688  -14.3069 C   0  0  0  0  0  0  0  0  0  0  0  0
   12.5265    0.9588  -14.1290 O   0  0  0  0  0  0  0  0  0  0  0  0
   12.8105    2.6660  -15.5852 N   0  0  0  0  0  0  0  0  0  0  0  0
   12.7090    1.7806  -16.7187 C   0  0  0  0  0  0  0  0  0  0  0  0
   12.8020    2.7195  -17.8980 C   0  0  0  0  0  0  0  0  0  0  0  0
   13.6137    3.7964  -17.3814 N   0  0  0  0  0  0  0  0  0  0  0  0
   14.3412    4.6812  -18.2014 C   0  0  0  0  0  0  0  0  0  0  0  0
   15.4204    5.4106  -17.6914 C   0  0  0  0  0  0  0  0  0  0  0  0
   16.1958    6.2173  -18.5282 C   0  0  0  0  0  0  0  0  0  0  0  0
   15.8848    6.3244  -19.8808 C   0  0  0  0  0  0  0  0  0  0  0  0
   14.8015    5.6217  -20.3995 C   0  0  0  0  0  0  0  0  0  0  0  0
   14.0405    4.7973  -19.5667 C   0  0  0  0  0  0  0  0  0  0  0  0
   13.5135    3.8320  -15.9718 C   0  0  0  0  0  0  0  0  0  0  0  0
   13.8860    4.7066  -15.2029 O   0  0  0  0  0  0  0  0  0  0  0  0
   12.5541    4.0550  -11.1109 C   0  0  0  0  0  0  0  0  0  0  0  0
   12.5392    3.8843   -9.7301 C   0  0  0  0  0  0  0  0  0  0  0  0
   12.6235    4.9663   -8.9416 F   0  0  0  0  0  0  0  0  0  0  0  0
   12.6458    0.9666   -6.0123 C   0  0  0  0  0  0  0  0  0  0  0  0
   11.4353    1.6988   -5.0548 S   0  0  0  0  0  0  0  0  0  0  0  0
    9.4359    1.1802   -2.6732 C   0  0  0  0  0  0  0  0  0  0  0  0
    8.6808    1.3232   -1.5111 C   0  0  0  0  0  0  0  0  0  0  0  0
    7.7919    2.3067    2.9434 C   0  0  0  0  0  0  0  0  0  0  0  0
    8.2094    1.3119    4.0519 C   0  0  0  0  0  0  0  0  0  0  0  0
   13.0219    1.7861    7.1020 H   0  0  0  0  0  0  0  0  0  0  0  0
   11.8244    0.5689    7.6431 H   0  0  0  0  0  0  0  0  0  0  0  0
   11.4420    2.3125    7.7550 H   0  0  0  0  0  0  0  0  0  0  0  0
   11.8557    2.1329    5.1828 H   0  0  0  0  0  0  0  0  0  0  0  0
   10.4339    0.3448    2.7684 H   0  0  0  0  0  0  0  0  0  0  0  0
   11.5594    1.5187    3.3971 H   0  0  0  0  0  0  0  0  0  0  0  0
   10.7192    2.4234    1.2707 H   0  0  0  0  0  0  0  0  0  0  0  0
   10.1600    3.4053    2.5852 H   0  0  0  0  0  0  0  0  0  0  0  0
    7.2999    1.0095    0.6884 H   0  0  0  0  0  0  0  0  0  0  0  0
    8.4990    0.1150    1.5840 H   0  0  0  0  0  0  0  0  0  0  0  0
   10.8286   -0.1708    0.6612 H   0  0  0  0  0  0  0  0  0  0  0  0
   12.1882   -0.3201   -1.3427 H   0  0  0  0  0  0  0  0  0  0  0  0
   12.7813   -1.2732   -3.5271 H   0  0  0  0  0  0  0  0  0  0  0  0
   15.3869   -1.1199   -7.5751 H   0  0  0  0  0  0  0  0  0  0  0  0
   14.6517    0.9234   -8.7345 H   0  0  0  0  0  0  0  0  0  0  0  0
   12.1133    0.5148   -9.5950 H   0  0  0  0  0  0  0  0  0  0  0  0
   12.2184    0.7745  -11.9772 H   0  0  0  0  0  0  0  0  0  0  0  0
   12.8656    4.0784  -13.6409 H   0  0  0  0  0  0  0  0  0  0  0  0
   11.7880    1.1914  -16.6907 H   0  0  0  0  0  0  0  0  0  0  0  0
   13.5668    1.0974  -16.6894 H   0  0  0  0  0  0  0  0  0  0  0  0
   11.8140    3.1215  -18.1544 H   0  0  0  0  0  0  0  0  0  0  0  0
   13.2509    2.2307  -18.7679 H   0  0  0  0  0  0  0  0  0  0  0  0
   15.7087    5.3309  -16.6472 H   0  0  0  0  0  0  0  0  0  0  0  0
   17.0488    6.7521  -18.1191 H   0  0  0  0  0  0  0  0  0  0  0  0
   16.4874    6.9548  -20.5288 H   0  0  0  0  0  0  0  0  0  0  0  0
   14.5469    5.7133  -21.4521 H   0  0  0  0  0  0  0  0  0  0  0  0
   13.1961    4.2726  -20.0049 H   0  0  0  0  0  0  0  0  0  0  0  0
   12.6387    5.0614  -11.5089 H   0  0  0  0  0  0  0  0  0  0  0  0
    9.0080    1.5378   -3.6071 H   0  0  0  0  0  0  0  0  0  0  0  0
    7.7073    1.8084   -1.5644 H   0  0  0  0  0  0  0  0  0  0  0  0
    6.7366    2.1610    2.6838 H   0  0  0  0  0  0  0  0  0  0  0  0
    7.8589    3.3238    3.3528 H   0  0  0  0  0  0  0  0  0  0  0  0
    8.0090    0.2792    3.7411 H   0  0  0  0  0  0  0  0  0  0  0  0
    7.6097    1.4962    4.9493 H   0  0  0  0  0  0  0  0  0  0  0  0
  1  2  1  0  0  0  0
  1 50  1  0  0  0  0
  1 51  1  0  0  0  0
  1 52  1  0  0  0  0
  2  3  1  0  0  0  0
  2 53  1  0  0  0  0
  3  4  2  0  0  0  0
  3  5  1  0  0  0  0
  5  6  1  0  0  0  0
  5 49  1  0  0  0  0
  6  7  1  0  0  0  0
  6 54  1  0  0  0  0
  6 55  1  0  0  0  0
  7  8  1  0  0  0  0
  7 56  1  0  0  0  0
  7 57  1  0  0  0  0
  8  9  1  0  0  0  0
  8 48  1  0  0  0  0
  9 10  1  0  0  0  0
  9 58  1  0  0  0  0
  9 59  1  0  0  0  0
 10 11  1  0  0  0  0
 10 47  2  0  0  0  0
 11 12  2  0  0  0  0
 11 60  1  0  0  0  0
 12 13  1  0  0  0  0
 12 61  1  0  0  0  0
 13 14  1  0  0  0  0
 13 46  2  0  0  0  0
 14 15  2  0  0  0  0
 14 45  1  0  0  0  0
 15 16  1  0  0  0  0
 15 62  1  0  0  0  0
 16 17  1  0  0  0  0
 16 44  2  0  0  0  0
 17 18  2  0  0  0  0
 18 19  1  0  0  0  0
 18 63  1  0  0  0  0
 19 20  2  0  0  0  0
 19 64  1  0  0  0  0
 20 21  1  0  0  0  0
 20 44  1  0  0  0  0
 21 22  1  0  0  0  0
 22 23  1  0  0  0  0
 22 42  2  0  0  0  0
 23 24  2  0  0  0  0
 23 65  1  0  0  0  0
 24 25  1  0  0  0  0
 24 66  1  0  0  0  0
 25 26  1  0  0  0  0
 25 41  2  0  0  0  0
 26 27  1  0  0  0  0
 26 67  1  0  0  0  0
 27 28  2  0  0  0  0
 27 29  1  0  0  0  0
 29 30  1  0  0  0  0
 29 39  1  0  0  0  0
 30 31  1  0  0  0  0
 30 68  1  0  0  0  0
 30 69  1  0  0  0  0
 31 32  1  0  0  0  0
 31 70  1  0  0  0  0
 31 71  1  0  0  0  0
 32 33  1  0  0  0  0
 32 39  1  0  0  0  0
 33 34  1  0  0  0  0
 33 38  2  0  0  0  0
 34 35  2  0  0  0  0
 34 72  1  0  0  0  0
 35 36  1  0  0  0  0
 35 73  1  0  0  0  0
 36 37  2  0  0  0  0
 36 74  1  0  0  0  0
 37 38  1  0  0  0  0
 37 75  1  0  0  0  0
 38 76  1  0  0  0  0
 39 40  2  0  0  0  0
 41 42  1  0  0  0  0
 41 77  1  0  0  0  0
 42 43  1  0  0  0  0
 44 45  1  0  0  0  0
 46 47  1  0  0  0  0
 46 78  1  0  0  0  0
 47 79  1  0  0  0  0
 48 49  1  0  0  0  0
 48 80  1  0  0  0  0
 48 81  1  0  0  0  0
 49 82  1  0  0  0  0
 49 83  1  0  0  0  0
M  END
$$$$
