CHEMBL3916910
 OpenBabel04072215373D

 61 65  0  0  0  0  0  0  0  0999 V2000
    2.5549   -0.0581    1.2827 O   0  0  0  0  0  0  0  0  0  0  0  0
    2.1811   -0.4506    0.1842 C   0  0  0  0  0  0  0  0  0  0  0  0
    0.8544   -0.4435   -0.2178 N   0  0  0  0  0  0  0  0  0  0  0  0
   -0.2075    0.0806    0.5640 C   0  0  0  0  0  0  0  0  0  0  0  0
    0.0054    0.9376    1.6524 C   0  0  0  0  0  0  0  0  0  0  0  0
   -1.0304    1.3889    2.4714 C   0  0  0  0  0  0  0  0  0  0  0  0
   -0.8038    2.2887    3.5413 N   0  0  0  0  0  0  0  0  0  0  0  0
    0.4842    2.3116    4.2591 C   0  0  0  0  0  0  0  0  0  0  0  0
    0.9597    3.6205    4.8351 C   0  0  0  0  0  0  0  0  0  0  0  0
    1.7421    2.9561    3.7447 C   0  0  0  0  0  0  0  0  0  0  0  0
   -2.3356    1.0308    2.1217 C   0  0  0  0  0  0  0  0  0  0  0  0
   -2.5946    0.2181    0.9993 C   0  0  0  0  0  0  0  0  0  0  0  0
   -4.0072   -0.1241    0.6026 C   0  0  0  0  0  0  0  0  0  0  0  0
   -4.9538    0.4072    1.4233 F   0  0  0  0  0  0  0  0  0  0  0  0
   -4.3082    0.3139   -0.6514 F   0  0  0  0  0  0  0  0  0  0  0  0
   -4.2336   -1.4674    0.5907 F   0  0  0  0  0  0  0  0  0  0  0  0
   -1.5175   -0.2592    0.2301 C   0  0  0  0  0  0  0  0  0  0  0  0
    3.0333   -0.9664   -0.7784 N   0  0  0  0  0  0  0  0  0  0  0  0
    4.4413   -1.0838   -0.6406 C   0  0  0  0  0  0  0  0  0  0  0  0
    5.1401   -0.6419    0.4892 C   0  0  0  0  0  0  0  0  0  0  0  0
    6.5276   -0.7476    0.5775 C   0  0  0  0  0  0  0  0  0  0  0  0
    7.2468   -1.3854   -0.4283 C   0  0  0  0  0  0  0  0  0  0  0  0
    8.6096   -1.5979   -0.3598 O   0  0  0  0  0  0  0  0  0  0  0  0
    9.1744   -1.8699    0.8737 C   0  0  0  0  0  0  0  0  0  0  0  0
    8.5145   -2.5835    1.8711 C   0  0  0  0  0  0  0  0  0  0  0  0
    9.1375   -2.7131    3.0901 C   0  0  0  0  0  0  0  0  0  0  0  0
   10.3775   -2.2591    3.3318 N   0  0  0  0  0  0  0  0  0  0  0  0
   11.0501   -1.6473    2.3432 C   0  0  0  0  0  0  0  0  0  0  0  0
   12.3709   -1.2301    2.5738 N   0  0  0  0  0  0  0  0  0  0  0  0
   13.0459   -1.4335    3.7594 C   0  0  0  0  0  0  0  0  0  0  0  0
   12.6357   -1.9639    4.7835 O   0  0  0  0  0  0  0  0  0  0  0  0
   14.4477   -0.9008    3.7472 C   0  0  0  0  0  0  0  0  0  0  0  0
   15.4061   -1.2474    4.8673 C   0  0  0  0  0  0  0  0  0  0  0  0
   14.8435    0.1398    4.7703 C   0  0  0  0  0  0  0  0  0  0  0  0
   10.4771   -1.4165    1.0980 C   0  0  0  0  0  0  0  0  0  0  0  0
    6.5617   -1.8048   -1.5688 C   0  0  0  0  0  0  0  0  0  0  0  0
    7.2286   -2.3783   -2.5813 F   0  0  0  0  0  0  0  0  0  0  0  0
    5.1731   -1.6554   -1.6849 C   0  0  0  0  0  0  0  0  0  0  0  0
    0.6034   -1.0151   -1.0089 H   0  0  0  0  0  0  0  0  0  0  0  0
    1.0017    1.2970    1.8708 H   0  0  0  0  0  0  0  0  0  0  0  0
   -1.6116    2.3382    4.1564 H   0  0  0  0  0  0  0  0  0  0  0  0
    0.6173    1.4252    4.8742 H   0  0  0  0  0  0  0  0  0  0  0  0
    1.3756    3.6194    5.8344 H   0  0  0  0  0  0  0  0  0  0  0  0
    0.4289    4.5260    4.5680 H   0  0  0  0  0  0  0  0  0  0  0  0
    2.6857    2.4905    4.0062 H   0  0  0  0  0  0  0  0  0  0  0  0
    1.7394    3.4152    2.7645 H   0  0  0  0  0  0  0  0  0  0  0  0
   -3.1684    1.3907    2.7232 H   0  0  0  0  0  0  0  0  0  0  0  0
   -1.7210   -0.8995   -0.6259 H   0  0  0  0  0  0  0  0  0  0  0  0
    2.6306   -1.2566   -1.6555 H   0  0  0  0  0  0  0  0  0  0  0  0
    4.6493   -0.1968    1.3479 H   0  0  0  0  0  0  0  0  0  0  0  0
    7.0142   -0.3531    1.4659 H   0  0  0  0  0  0  0  0  0  0  0  0
    7.5227   -2.9978    1.7356 H   0  0  0  0  0  0  0  0  0  0  0  0
    8.6480   -3.1905    3.9328 H   0  0  0  0  0  0  0  0  0  0  0  0
   12.8554   -0.7708    1.8178 H   0  0  0  0  0  0  0  0  0  0  0  0
   14.8991   -0.8164    2.7637 H   0  0  0  0  0  0  0  0  0  0  0  0
   16.4508   -1.3956    4.6203 H   0  0  0  0  0  0  0  0  0  0  0  0
   15.0524   -1.8836    5.6731 H   0  0  0  0  0  0  0  0  0  0  0  0
   15.5069    0.9367    4.4593 H   0  0  0  0  0  0  0  0  0  0  0  0
   14.1103    0.4322    5.5157 H   0  0  0  0  0  0  0  0  0  0  0  0
   11.0134   -0.9014    0.3105 H   0  0  0  0  0  0  0  0  0  0  0  0
    4.6905   -2.0063   -2.5914 H   0  0  0  0  0  0  0  0  0  0  0  0
  1  2  2  0  0  0  0
  2  3  1  0  0  0  0
  2 18  1  0  0  0  0
  3  4  1  0  0  0  0
  3 39  1  0  0  0  0
  4  5  1  0  0  0  0
  4 17  2  0  0  0  0
  5  6  2  0  0  0  0
  5 40  1  0  0  0  0
  6  7  1  0  0  0  0
  6 11  1  0  0  0  0
  7  8  1  0  0  0  0
  7 41  1  0  0  0  0
  8  9  1  0  0  0  0
  8 10  1  0  0  0  0
  8 42  1  0  0  0  0
  9 10  1  0  0  0  0
  9 43  1  0  0  0  0
  9 44  1  0  0  0  0
 10 45  1  0  0  0  0
 10 46  1  0  0  0  0
 11 12  2  0  0  0  0
 11 47  1  0  0  0  0
 12 13  1  0  0  0  0
 12 17  1  0  0  0  0
 13 14  1  0  0  0  0
 13 15  1  0  0  0  0
 13 16  1  0  0  0  0
 17 48  1  0  0  0  0
 18 19  1  0  0  0  0
 18 49  1  0  0  0  0
 19 20  1  0  0  0  0
 19 38  2  0  0  0  0
 20 21  2  0  0  0  0
 20 50  1  0  0  0  0
 21 22  1  0  0  0  0
 21 51  1  0  0  0  0
 22 23  1  0  0  0  0
 22 36  2  0  0  0  0
 23 24  1  0  0  0  0
 24 25  1  0  0  0  0
 24 35  2  0  0  0  0
 25 26  2  0  0  0  0
 25 52  1  0  0  0  0
 26 27  1  0  0  0  0
 26 53  1  0  0  0  0
 27 28  2  0  0  0  0
 28 29  1  0  0  0  0
 28 35  1  0  0  0  0
 29 30  1  0  0  0  0
 29 54  1  0  0  0  0
 30 31  2  0  0  0  0
 30 32  1  0  0  0  0
 32 33  1  0  0  0  0
 32 34  1  0  0  0  0
 32 55  1  0  0  0  0
 33 34  1  0  0  0  0
 33 56  1  0  0  0  0
 33 57  1  0  0  0  0
 34 58  1  0  0  0  0
 34 59  1  0  0  0  0
 35 60  1  0  0  0  0
 36 37  1  0  0  0  0
 36 38  1  0  0  0  0
 38 61  1  0  0  0  0
M  END
$$$$
