CHEMBL3933568
 OpenBabel04072215373D

 78 82  0  0  0  0  0  0  0  0999 V2000
    2.6315   -0.9730   -0.8678 C   0  0  0  0  0  0  0  0  0  0  0  0
    2.4185   -0.1537    0.2733 O   0  0  0  0  0  0  0  0  0  0  0  0
    3.1276    1.0004    0.4285 C   0  0  0  0  0  0  0  0  0  0  0  0
    4.2775    1.2723   -0.3111 C   0  0  0  0  0  0  0  0  0  0  0  0
    4.9150    2.5284   -0.2420 C   0  0  0  0  0  0  0  0  0  0  0  0
    5.9857    2.9079   -1.0645 C   0  0  0  0  0  0  0  0  0  0  0  0
    6.4382    2.0093   -2.0711 N   0  0  0  0  0  0  0  0  0  0  0  0
    7.2279    2.3498   -3.1874 C   0  0  0  0  0  0  0  0  0  0  0  0
    8.1661    1.4406   -3.6700 C   0  0  0  0  0  0  0  0  0  0  0  0
    9.0356    1.8010   -4.7021 C   0  0  0  0  0  0  0  0  0  0  0  0
    8.9695    3.0632   -5.2983 C   0  0  0  0  0  0  0  0  0  0  0  0
    9.9262    3.5320   -6.2283 N   0  0  0  0  0  0  0  0  0  0  0  0
   11.0114    2.8168   -6.6967 C   0  0  0  0  0  0  0  0  0  0  0  0
   11.2060    1.6209   -6.4957 O   0  0  0  0  0  0  0  0  0  0  0  0
   11.9066    3.6178   -7.3958 N   0  0  0  0  0  0  0  0  0  0  0  0
   13.0768    3.0344   -7.9480 C   0  0  0  0  0  0  0  0  0  0  0  0
   12.9666    1.8607   -8.7100 C   0  0  0  0  0  0  0  0  0  0  0  0
   14.1001    1.2245   -9.2113 C   0  0  0  0  0  0  0  0  0  0  0  0
   15.3558    1.7666   -8.9705 C   0  0  0  0  0  0  0  0  0  0  0  0
   15.4770    2.9425   -8.2255 C   0  0  0  0  0  0  0  0  0  0  0  0
   14.3435    3.5899   -7.7026 C   0  0  0  0  0  0  0  0  0  0  0  0
   14.5377    4.7639   -6.7852 C   0  0  0  0  0  0  0  0  0  0  0  0
    7.9439    3.9250   -4.9085 C   0  0  0  0  0  0  0  0  0  0  0  0
    7.0734    3.5606   -3.8728 C   0  0  0  0  0  0  0  0  0  0  0  0
    6.5726    4.1158   -0.9535 N   0  0  0  0  0  0  0  0  0  0  0  0
    6.0765    4.9406   -0.0304 C   0  0  0  0  0  0  0  0  0  0  0  0
    5.0319    4.6977    0.7683 N   0  0  0  0  0  0  0  0  0  0  0  0
    4.4467    3.4993    0.6524 C   0  0  0  0  0  0  0  0  0  0  0  0
    3.3315    3.1973    1.4357 C   0  0  0  0  0  0  0  0  0  0  0  0
    2.6750    1.9596    1.3458 C   0  0  0  0  0  0  0  0  0  0  0  0
    1.5816    1.8294    2.1839 O   0  0  0  0  0  0  0  0  0  0  0  0
    1.4135    0.5079    2.7083 C   0  0  0  0  0  0  0  0  0  0  0  0
    0.3632    0.4540    3.8159 C   0  0  0  0  0  0  0  0  0  0  0  0
    0.2169   -0.9914    4.3308 C   0  0  0  0  0  0  0  0  0  0  0  0
    1.4606   -1.5497    4.8865 N   0  0  0  0  0  0  0  0  0  0  0  0
    1.8950   -0.8401    6.1038 C   0  0  0  0  0  0  0  0  0  0  0  0
    3.1594   -1.4642    6.7360 C   0  0  0  0  0  0  0  0  0  0  0  0
    3.0522   -2.9028    7.0415 N   0  0  0  0  0  0  0  0  0  0  0  0
    2.1758   -3.1446    8.1851 C   0  0  0  0  0  0  0  0  0  0  0  0
    2.5814   -3.6093    5.8335 C   0  0  0  0  0  0  0  0  0  0  0  0
    1.3288   -2.9959    5.1550 C   0  0  0  0  0  0  0  0  0  0  0  0
    3.2787   -1.8109   -0.5928 H   0  0  0  0  0  0  0  0  0  0  0  0
    3.0339   -0.4446   -1.7362 H   0  0  0  0  0  0  0  0  0  0  0  0
    1.6602   -1.3739   -1.1693 H   0  0  0  0  0  0  0  0  0  0  0  0
    4.6890    0.5199   -0.9735 H   0  0  0  0  0  0  0  0  0  0  0  0
    6.7515    1.1495   -1.6323 H   0  0  0  0  0  0  0  0  0  0  0  0
    8.2767    0.4557   -3.2252 H   0  0  0  0  0  0  0  0  0  0  0  0
    9.7768    1.0628   -4.9881 H   0  0  0  0  0  0  0  0  0  0  0  0
    9.7904    4.4586   -6.6064 H   0  0  0  0  0  0  0  0  0  0  0  0
   11.9973    4.5530   -7.0285 H   0  0  0  0  0  0  0  0  0  0  0  0
   11.9916    1.4158   -8.8969 H   0  0  0  0  0  0  0  0  0  0  0  0
   13.9967    0.2971   -9.7682 H   0  0  0  0  0  0  0  0  0  0  0  0
   16.2437    1.2624   -9.3425 H   0  0  0  0  0  0  0  0  0  0  0  0
   16.4735    3.3283   -8.0227 H   0  0  0  0  0  0  0  0  0  0  0  0
   15.5940    5.0414   -6.7041 H   0  0  0  0  0  0  0  0  0  0  0  0
   14.1900    4.5068   -5.7783 H   0  0  0  0  0  0  0  0  0  0  0  0
   13.9912    5.6384   -7.1489 H   0  0  0  0  0  0  0  0  0  0  0  0
    7.8177    4.8989   -5.3704 H   0  0  0  0  0  0  0  0  0  0  0  0
    6.2878    4.2523   -3.5778 H   0  0  0  0  0  0  0  0  0  0  0  0
    6.5675    5.9028    0.0734 H   0  0  0  0  0  0  0  0  0  0  0  0
    2.9635    3.9498    2.1336 H   0  0  0  0  0  0  0  0  0  0  0  0
    2.3764    0.1464    3.0896 H   0  0  0  0  0  0  0  0  0  0  0  0
    1.0320   -0.1569    1.9331 H   0  0  0  0  0  0  0  0  0  0  0  0
   -0.6008    0.7899    3.4127 H   0  0  0  0  0  0  0  0  0  0  0  0
    0.5998    1.1562    4.6223 H   0  0  0  0  0  0  0  0  0  0  0  0
   -0.0914   -1.6108    3.4761 H   0  0  0  0  0  0  0  0  0  0  0  0
   -0.5979   -1.0446    5.0624 H   0  0  0  0  0  0  0  0  0  0  0  0
    1.0841   -0.8176    6.8422 H   0  0  0  0  0  0  0  0  0  0  0  0
    2.1420    0.1988    5.8612 H   0  0  0  0  0  0  0  0  0  0  0  0
    3.4297   -0.9045    7.6399 H   0  0  0  0  0  0  0  0  0  0  0  0
    4.0011   -1.3256    6.0437 H   0  0  0  0  0  0  0  0  0  0  0  0
    2.5362   -2.5995    9.0649 H   0  0  0  0  0  0  0  0  0  0  0  0
    2.1875   -4.2070    8.4517 H   0  0  0  0  0  0  0  0  0  0  0  0
    1.1364   -2.8506    8.0083 H   0  0  0  0  0  0  0  0  0  0  0  0
    2.3932   -4.6652    6.0657 H   0  0  0  0  0  0  0  0  0  0  0  0
    3.4046   -3.6125    5.1062 H   0  0  0  0  0  0  0  0  0  0  0  0
    0.4491   -3.1895    5.7813 H   0  0  0  0  0  0  0  0  0  0  0  0
    1.1721   -3.5246    4.2063 H   0  0  0  0  0  0  0  0  0  0  0  0
  1  2  1  0  0  0  0
  1 42  1  0  0  0  0
  1 43  1  0  0  0  0
  1 44  1  0  0  0  0
  2  3  1  0  0  0  0
  3  4  1  0  0  0  0
  3 30  2  0  0  0  0
  4  5  2  0  0  0  0
  4 45  1  0  0  0  0
  5  6  1  0  0  0  0
  5 28  1  0  0  0  0
  6  7  1  0  0  0  0
  6 25  2  0  0  0  0
  7  8  1  0  0  0  0
  7 46  1  0  0  0  0
  8  9  1  0  0  0  0
  8 24  2  0  0  0  0
  9 10  2  0  0  0  0
  9 47  1  0  0  0  0
 10 11  1  0  0  0  0
 10 48  1  0  0  0  0
 11 12  1  0  0  0  0
 11 23  2  0  0  0  0
 12 13  1  0  0  0  0
 12 49  1  0  0  0  0
 13 14  2  0  0  0  0
 13 15  1  0  0  0  0
 15 16  1  0  0  0  0
 15 50  1  0  0  0  0
 16 17  1  0  0  0  0
 16 21  2  0  0  0  0
 17 18  2  0  0  0  0
 17 51  1  0  0  0  0
 18 19  1  0  0  0  0
 18 52  1  0  0  0  0
 19 20  2  0  0  0  0
 19 53  1  0  0  0  0
 20 21  1  0  0  0  0
 20 54  1  0  0  0  0
 21 22  1  0  0  0  0
 22 55  1  0  0  0  0
 22 56  1  0  0  0  0
 22 57  1  0  0  0  0
 23 24  1  0  0  0  0
 23 58  1  0  0  0  0
 24 59  1  0  0  0  0
 25 26  1  0  0  0  0
 26 27  2  0  0  0  0
 26 60  1  0  0  0  0
 27 28  1  0  0  0  0
 28 29  2  0  0  0  0
 29 30  1  0  0  0  0
 29 61  1  0  0  0  0
 30 31  1  0  0  0  0
 31 32  1  0  0  0  0
 32 33  1  0  0  0  0
 32 62  1  0  0  0  0
 32 63  1  0  0  0  0
 33 34  1  0  0  0  0
 33 64  1  0  0  0  0
 33 65  1  0  0  0  0
 34 35  1  0  0  0  0
 34 66  1  0  0  0  0
 34 67  1  0  0  0  0
 35 36  1  0  0  0  0
 35 41  1  0  0  0  0
 36 37  1  0  0  0  0
 36 68  1  0  0  0  0
 36 69  1  0  0  0  0
 37 38  1  0  0  0  0
 37 70  1  0  0  0  0
 37 71  1  0  0  0  0
 38 39  1  0  0  0  0
 38 40  1  0  0  0  0
 39 72  1  0  0  0  0
 39 73  1  0  0  0  0
 39 74  1  0  0  0  0
 40 41  1  0  0  0  0
 40 75  1  0  0  0  0
 40 76  1  0  0  0  0
 41 77  1  0  0  0  0
 41 78  1  0  0  0  0
M  END
$$$$
