CHEMBL411520
 OpenBabel04072215383D

 62 68  0  0  0  0  0  0  0  0999 V2000
    3.8276   -2.9568    0.1048 C   0  0  0  0  0  0  0  0  0  0  0  0
    3.2352   -1.9299   -0.8625 C   0  0  0  0  0  0  0  0  0  0  0  0
    1.7052   -2.0486   -0.8464 C   0  0  0  0  0  0  0  0  0  0  0  0
    3.6909   -0.4788   -0.5546 C   0  0  0  0  0  0  0  0  0  0  0  0
    5.1295   -0.2410   -0.7027 N   0  0  0  0  0  0  0  0  0  0  0  0
    5.8275   -0.3828   -1.9280 C   0  0  0  0  0  0  0  0  0  0  0  0
    5.3860   -0.5937   -3.2531 C   0  0  0  0  0  0  0  0  0  0  0  0
    6.3421   -0.8947   -4.2494 C   0  0  0  0  0  0  0  0  0  0  0  0
    7.7074   -0.9232   -3.9567 C   0  0  0  0  0  0  0  0  0  0  0  0
    8.7692   -1.3860   -4.8948 C   0  0  0  0  0  0  0  0  0  0  0  0
    9.7190   -2.0047   -4.4161 O   0  0  0  0  0  0  0  0  0  0  0  0
    8.6914   -1.1309   -6.3157 C   0  0  0  0  0  0  0  0  0  0  0  0
    7.9821   -0.1598   -7.0659 C   0  0  0  0  0  0  0  0  0  0  0  0
    8.3194   -0.3675   -8.3872 C   0  0  0  0  0  0  0  0  0  0  0  0
    9.1969   -1.3918   -8.5023 O   0  0  0  0  0  0  0  0  0  0  0  0
    9.4408   -1.8388   -7.2395 C   0  0  0  0  0  0  0  0  0  0  0  0
    8.1335   -0.6547   -2.6546 C   0  0  0  0  0  0  0  0  0  0  0  0
    7.1980   -0.4302   -1.6341 C   0  0  0  0  0  0  0  0  0  0  0  0
    7.2184   -0.3665   -0.2579 C   0  0  0  0  0  0  0  0  0  0  0  0
    8.3075   -0.8359    0.4928 C   0  0  0  0  0  0  0  0  0  0  0  0
    8.0077   -1.2283    1.8126 C   0  0  0  0  0  0  0  0  0  0  0  0
    6.7425   -1.0649    2.4062 C   0  0  0  0  0  0  0  0  0  0  0  0
    5.9508   -0.0445    1.7680 C   0  0  0  0  0  0  0  0  0  0  0  0
    6.0325   -0.0825    0.3587 C   0  0  0  0  0  0  0  0  0  0  0  0
    5.9937    1.3115    2.6033 C   0  0  0  0  0  0  0  0  0  0  0  0
    7.0257    1.3201    3.8102 C   0  0  0  0  0  0  0  0  0  0  0  0
    6.7878    0.0675    4.5769 C   0  0  0  0  0  0  0  0  0  0  0  0
    6.3756   -0.0520    5.8382 N   0  0  0  0  0  0  0  0  0  0  0  0
    5.8961   -1.3215    5.8690 N   0  0  0  0  0  0  0  0  0  0  0  0
    5.2402   -1.8119    7.0569 C   0  0  0  0  0  0  0  0  0  0  0  0
    5.9084   -1.9448    4.6447 C   0  0  0  0  0  0  0  0  0  0  0  0
    6.6485   -1.1189    3.8407 C   0  0  0  0  0  0  0  0  0  0  0  0
    9.2420   -1.6539    2.4232 C   0  0  0  0  0  0  0  0  0  0  0  0
    9.5434   -2.0329    3.5471 O   0  0  0  0  0  0  0  0  0  0  0  0
   10.1959   -1.4903    1.4254 N   0  0  0  0  0  0  0  0  0  0  0  0
    9.7069   -1.0515    0.1407 C   0  0  0  0  0  0  0  0  0  0  0  0
    3.5272   -3.9706   -0.1843 H   0  0  0  0  0  0  0  0  0  0  0  0
    3.4812   -2.7850    1.1296 H   0  0  0  0  0  0  0  0  0  0  0  0
    4.9208   -2.9304    0.0986 H   0  0  0  0  0  0  0  0  0  0  0  0
    3.5616   -2.2042   -1.8716 H   0  0  0  0  0  0  0  0  0  0  0  0
    1.3078   -1.9953    0.1726 H   0  0  0  0  0  0  0  0  0  0  0  0
    1.3934   -3.0105   -1.2725 H   0  0  0  0  0  0  0  0  0  0  0  0
    1.2350   -1.2592   -1.4405 H   0  0  0  0  0  0  0  0  0  0  0  0
    3.4004   -0.1929    0.4623 H   0  0  0  0  0  0  0  0  0  0  0  0
    3.1998    0.2211   -1.2425 H   0  0  0  0  0  0  0  0  0  0  0  0
    4.3276   -0.6149   -3.4989 H   0  0  0  0  0  0  0  0  0  0  0  0
    5.9866   -1.1641   -5.2416 H   0  0  0  0  0  0  0  0  0  0  0  0
    7.3214    0.6188   -6.6997 H   0  0  0  0  0  0  0  0  0  0  0  0
    8.0421    0.1155   -9.3139 H   0  0  0  0  0  0  0  0  0  0  0  0
   10.1554   -2.6403   -7.1555 H   0  0  0  0  0  0  0  0  0  0  0  0
    9.1940   -0.6908   -2.4288 H   0  0  0  0  0  0  0  0  0  0  0  0
    4.9904    1.4769    3.0108 H   0  0  0  0  0  0  0  0  0  0  0  0
    6.2451    2.1429    1.9352 H   0  0  0  0  0  0  0  0  0  0  0  0
    6.9333    2.2123    4.4341 H   0  0  0  0  0  0  0  0  0  0  0  0
    8.0550    1.3030    3.4178 H   0  0  0  0  0  0  0  0  0  0  0  0
    5.4468   -1.1377    7.8915 H   0  0  0  0  0  0  0  0  0  0  0  0
    5.6265   -2.8097    7.2773 H   0  0  0  0  0  0  0  0  0  0  0  0
    4.1652   -1.8508    6.8620 H   0  0  0  0  0  0  0  0  0  0  0  0
    5.3612   -2.8585    4.4595 H   0  0  0  0  0  0  0  0  0  0  0  0
   11.1685   -1.6539    1.6362 H   0  0  0  0  0  0  0  0  0  0  0  0
    9.8435   -1.8576   -0.5809 H   0  0  0  0  0  0  0  0  0  0  0  0
   10.2116   -0.1293   -0.1560 H   0  0  0  0  0  0  0  0  0  0  0  0
  1  2  1  0  0  0  0
  1 37  1  0  0  0  0
  1 38  1  0  0  0  0
  1 39  1  0  0  0  0
  2  3  1  0  0  0  0
  2  4  1  0  0  0  0
  2 40  1  0  0  0  0
  3 41  1  0  0  0  0
  3 42  1  0  0  0  0
  3 43  1  0  0  0  0
  4  5  1  0  0  0  0
  4 44  1  0  0  0  0
  4 45  1  0  0  0  0
  5  6  1  0  0  0  0
  5 24  1  0  0  0  0
  6  7  1  0  0  0  0
  6 18  2  0  0  0  0
  7  8  2  0  0  0  0
  7 46  1  0  0  0  0
  8  9  1  0  0  0  0
  8 47  1  0  0  0  0
  9 10  1  0  0  0  0
  9 17  2  0  0  0  0
 10 11  2  0  0  0  0
 10 12  1  0  0  0  0
 12 13  1  0  0  0  0
 12 16  2  0  0  0  0
 13 14  2  0  0  0  0
 13 48  1  0  0  0  0
 14 15  1  0  0  0  0
 14 49  1  0  0  0  0
 15 16  1  0  0  0  0
 16 50  1  0  0  0  0
 17 18  1  0  0  0  0
 17 51  1  0  0  0  0
 18 19  1  0  0  0  0
 19 20  1  0  0  0  0
 19 24  2  0  0  0  0
 20 21  2  0  0  0  0
 20 36  1  0  0  0  0
 21 22  1  0  0  0  0
 21 33  1  0  0  0  0
 22 23  2  0  0  0  0
 22 32  1  0  0  0  0
 23 24  1  0  0  0  0
 23 25  1  0  0  0  0
 25 26  1  0  0  0  0
 25 52  1  0  0  0  0
 25 53  1  0  0  0  0
 26 27  1  0  0  0  0
 26 54  1  0  0  0  0
 26 55  1  0  0  0  0
 27 28  2  0  0  0  0
 27 32  1  0  0  0  0
 28 29  1  0  0  0  0
 29 30  1  0  0  0  0
 29 31  1  0  0  0  0
 30 56  1  0  0  0  0
 30 57  1  0  0  0  0
 30 58  1  0  0  0  0
 31 32  2  0  0  0  0
 31 59  1  0  0  0  0
 33 34  2  0  0  0  0
 33 35  1  0  0  0  0
 35 36  1  0  0  0  0
 35 60  1  0  0  0  0
 36 61  1  0  0  0  0
 36 62  1  0  0  0  0
M  END
$$$$
