CHEMBL3644544
 OpenBabel04072215373D

 47 50  0  0  0  0  0  0  0  0999 V2000
    4.8861    3.4003   -2.9305 N   0  0  0  0  0  0  0  0  0  0  0  0
    5.6006    2.3305   -2.4345 C   0  0  0  0  0  0  0  0  0  0  0  0
    6.6868    1.9470   -3.1085 N   0  0  0  0  0  0  0  0  0  0  0  0
    7.3717    0.9028   -2.6000 C   0  0  0  0  0  0  0  0  0  0  0  0
    7.0210    0.2453   -1.4401 C   0  0  0  0  0  0  0  0  0  0  0  0
    5.8905    0.7335   -0.8125 C   0  0  0  0  0  0  0  0  0  0  0  0
    5.1806    1.7819   -1.2910 N   0  0  0  0  0  0  0  0  0  0  0  0
    5.4187    0.1420    0.4894 C   0  0  0  0  0  0  0  0  0  0  0  0
    5.9297   -1.2848    0.6558 C   0  0  0  0  0  0  0  0  0  0  0  0
    7.3750   -1.3425    0.3987 N   0  0  0  0  0  0  0  0  0  0  0  0
    8.3031   -1.4804    1.4148 C   0  0  0  0  0  0  0  0  0  0  0  0
    9.5618   -2.0635    1.2304 C   0  0  0  0  0  0  0  0  0  0  0  0
   10.5107   -2.2414    2.1931 N   0  0  0  0  0  0  0  0  0  0  0  0
   10.1910   -1.8327    3.4416 C   0  0  0  0  0  0  0  0  0  0  0  0
    8.9852   -1.2357    3.7520 C   0  0  0  0  0  0  0  0  0  0  0  0
    8.5881   -0.8444    5.1199 C   0  0  0  0  0  0  0  0  0  0  0  0
    7.3872   -0.9111    5.3731 O   0  0  0  0  0  0  0  0  0  0  0  0
    9.5734   -0.3715    5.9756 N   0  0  0  0  0  0  0  0  0  0  0  0
    9.3264    0.0958    7.2926 C   0  0  0  0  0  0  0  0  0  0  0  0
    8.1524   -0.2019    7.9914 C   0  0  0  0  0  0  0  0  0  0  0  0
    7.8977    0.3515    9.2459 C   0  0  0  0  0  0  0  0  0  0  0  0
    8.8243    1.2072    9.8275 C   0  0  0  0  0  0  0  0  0  0  0  0
   10.0291    1.4947    9.1700 C   0  0  0  0  0  0  0  0  0  0  0  0
   11.0269    2.4410    9.7895 C   0  0  0  0  0  0  0  0  0  0  0  0
   10.6027    2.9954   10.9584 F   0  0  0  0  0  0  0  0  0  0  0  0
   12.2136    1.8362   10.0719 F   0  0  0  0  0  0  0  0  0  0  0  0
   11.3269    3.4872    8.9699 F   0  0  0  0  0  0  0  0  0  0  0  0
   10.2816    0.9130    7.9086 C   0  0  0  0  0  0  0  0  0  0  0  0
    8.0450   -1.0684    2.7229 C   0  0  0  0  0  0  0  0  0  0  0  0
    7.7984   -0.9422   -0.9476 C   0  0  0  0  0  0  0  0  0  0  0  0
    5.4895    3.9720   -3.5042 H   0  0  0  0  0  0  0  0  0  0  0  0
    4.3944    3.8560   -2.1750 H   0  0  0  0  0  0  0  0  0  0  0  0
    8.2406    0.6094   -3.1803 H   0  0  0  0  0  0  0  0  0  0  0  0
    4.3230    0.1459    0.5262 H   0  0  0  0  0  0  0  0  0  0  0  0
    5.7833    0.7769    1.3053 H   0  0  0  0  0  0  0  0  0  0  0  0
    5.4281   -1.9403   -0.0686 H   0  0  0  0  0  0  0  0  0  0  0  0
    5.6589   -1.6805    1.6417 H   0  0  0  0  0  0  0  0  0  0  0  0
    9.8477   -2.4656    0.2611 H   0  0  0  0  0  0  0  0  0  0  0  0
   10.9466   -2.0411    4.1929 H   0  0  0  0  0  0  0  0  0  0  0  0
   10.4844   -0.1618    5.5862 H   0  0  0  0  0  0  0  0  0  0  0  0
    7.4008   -0.8717    7.5845 H   0  0  0  0  0  0  0  0  0  0  0  0
    6.9643    0.1205    9.7539 H   0  0  0  0  0  0  0  0  0  0  0  0
    8.5980    1.6532   10.7951 H   0  0  0  0  0  0  0  0  0  0  0  0
   11.2159    1.1487    7.4017 H   0  0  0  0  0  0  0  0  0  0  0  0
    7.1003   -0.5899    2.9694 H   0  0  0  0  0  0  0  0  0  0  0  0
    7.6304   -1.7841   -1.6302 H   0  0  0  0  0  0  0  0  0  0  0  0
    8.8642   -0.6883   -0.9770 H   0  0  0  0  0  0  0  0  0  0  0  0
  1  2  1  0  0  0  0
  1 31  1  0  0  0  0
  1 32  1  0  0  0  0
  2  3  1  0  0  0  0
  2  7  2  0  0  0  0
  3  4  2  0  0  0  0
  4  5  1  0  0  0  0
  4 33  1  0  0  0  0
  5  6  2  0  0  0  0
  5 30  1  0  0  0  0
  6  7  1  0  0  0  0
  6  8  1  0  0  0  0
  8  9  1  0  0  0  0
  8 34  1  0  0  0  0
  8 35  1  0  0  0  0
  9 10  1  0  0  0  0
  9 36  1  0  0  0  0
  9 37  1  0  0  0  0
 10 11  1  0  0  0  0
 10 30  1  0  0  0  0
 11 12  1  0  0  0  0
 11 29  2  0  0  0  0
 12 13  2  0  0  0  0
 12 38  1  0  0  0  0
 13 14  1  0  0  0  0
 14 15  2  0  0  0  0
 14 39  1  0  0  0  0
 15 16  1  0  0  0  0
 15 29  1  0  0  0  0
 16 17  2  0  0  0  0
 16 18  1  0  0  0  0
 18 19  1  0  0  0  0
 18 40  1  0  0  0  0
 19 20  1  0  0  0  0
 19 28  2  0  0  0  0
 20 21  2  0  0  0  0
 20 41  1  0  0  0  0
 21 22  1  0  0  0  0
 21 42  1  0  0  0  0
 22 23  2  0  0  0  0
 22 43  1  0  0  0  0
 23 24  1  0  0  0  0
 23 28  1  0  0  0  0
 24 25  1  0  0  0  0
 24 26  1  0  0  0  0
 24 27  1  0  0  0  0
 28 44  1  0  0  0  0
 29 45  1  0  0  0  0
 30 46  1  0  0  0  0
 30 47  1  0  0  0  0
M  END
$$$$
