CHEMBL205639
 OpenBabel04072215363D

 47 50  0  0  0  0  0  0  0  0999 V2000
   11.5748    0.2055   -7.3040 F   0  0  0  0  0  0  0  0  0  0  0  0
   10.4269    0.8624   -7.0394 C   0  0  0  0  0  0  0  0  0  0  0  0
   10.7180    2.1262   -6.6650 F   0  0  0  0  0  0  0  0  0  0  0  0
    9.7173    0.9181   -8.1906 F   0  0  0  0  0  0  0  0  0  0  0  0
    9.6160    0.2481   -6.0466 O   0  0  0  0  0  0  0  0  0  0  0  0
   10.1414   -0.7088   -5.2331 C   0  0  0  0  0  0  0  0  0  0  0  0
   11.4826   -0.8666   -4.9055 C   0  0  0  0  0  0  0  0  0  0  0  0
   11.8786   -1.9392   -4.1090 C   0  0  0  0  0  0  0  0  0  0  0  0
   10.9307   -2.8309   -3.6085 C   0  0  0  0  0  0  0  0  0  0  0  0
    9.5675   -2.6602   -3.8548 C   0  0  0  0  0  0  0  0  0  0  0  0
    8.5590   -3.4580   -3.2834 N   0  0  0  0  0  0  0  0  0  0  0  0
    8.6672   -4.4130   -2.3356 C   0  0  0  0  0  0  0  0  0  0  0  0
    7.8424   -5.4059   -2.0886 N   0  0  0  0  0  0  0  0  0  0  0  0
    8.3848   -6.1137   -1.0382 N   0  0  0  0  0  0  0  0  0  0  0  0
    9.4910   -5.4858   -0.6859 C   0  0  0  0  0  0  0  0  0  0  0  0
   10.4643   -5.8567    0.3477 C   0  0  0  0  0  0  0  0  0  0  0  0
   10.1735   -7.0603    1.0322 C   0  0  0  0  0  0  0  0  0  0  0  0
   11.0133   -7.5151    2.0286 C   0  0  0  0  0  0  0  0  0  0  0  0
   12.1112   -6.8581    2.4144 N   0  0  0  0  0  0  0  0  0  0  0  0
   12.3826   -5.7034    1.7665 C   0  0  0  0  0  0  0  0  0  0  0  0
   11.6338   -5.1516    0.7172 C   0  0  0  0  0  0  0  0  0  0  0  0
   12.0893   -3.8260    0.1213 C   0  0  0  0  0  0  0  0  0  0  0  0
   13.6187   -3.6190    0.0869 C   0  0  0  0  0  0  0  0  0  0  0  0
   14.1032   -2.3139   -0.4976 C   0  0  0  0  0  0  0  0  0  0  0  0
   13.7188   -1.0864    0.0484 C   0  0  0  0  0  0  0  0  0  0  0  0
   14.3217    0.0715   -0.4232 C   0  0  0  0  0  0  0  0  0  0  0  0
   15.2622    0.0904   -1.3910 N   0  0  0  0  0  0  0  0  0  0  0  0
   15.6189   -1.1027   -1.9084 C   0  0  0  0  0  0  0  0  0  0  0  0
   15.0743   -2.3127   -1.5042 C   0  0  0  0  0  0  0  0  0  0  0  0
    9.7125   -4.3788   -1.4528 O   0  0  0  0  0  0  0  0  0  0  0  0
    9.1924   -1.5772   -4.6685 C   0  0  0  0  0  0  0  0  0  0  0  0
   12.2527   -0.1816   -5.2502 H   0  0  0  0  0  0  0  0  0  0  0  0
   12.9302   -2.0837   -3.8792 H   0  0  0  0  0  0  0  0  0  0  0  0
   11.2944   -3.6773   -3.0348 H   0  0  0  0  0  0  0  0  0  0  0  0
    7.7016   -3.4849   -3.8227 H   0  0  0  0  0  0  0  0  0  0  0  0
    9.2922   -7.6479    0.7859 H   0  0  0  0  0  0  0  0  0  0  0  0
   10.8117   -8.4432    2.5574 H   0  0  0  0  0  0  0  0  0  0  0  0
   13.2724   -5.2212    2.1596 H   0  0  0  0  0  0  0  0  0  0  0  0
   11.6031   -3.0201    0.6832 H   0  0  0  0  0  0  0  0  0  0  0  0
   11.7649   -3.7452   -0.9122 H   0  0  0  0  0  0  0  0  0  0  0  0
   14.0637   -4.4546   -0.4705 H   0  0  0  0  0  0  0  0  0  0  0  0
   14.0442   -3.6584    1.0940 H   0  0  0  0  0  0  0  0  0  0  0  0
   12.9959   -1.0210    0.8544 H   0  0  0  0  0  0  0  0  0  0  0  0
   14.0712    1.0423   -0.0045 H   0  0  0  0  0  0  0  0  0  0  0  0
   16.3943   -1.0643   -2.6682 H   0  0  0  0  0  0  0  0  0  0  0  0
   15.4325   -3.2356   -1.9486 H   0  0  0  0  0  0  0  0  0  0  0  0
    8.1398   -1.4010   -4.8814 H   0  0  0  0  0  0  0  0  0  0  0  0
  1  2  1  0  0  0  0
  2  3  1  0  0  0  0
  2  4  1  0  0  0  0
  2  5  1  0  0  0  0
  5  6  1  0  0  0  0
  6  7  1  0  0  0  0
  6 31  2  0  0  0  0
  7  8  2  0  0  0  0
  7 32  1  0  0  0  0
  8  9  1  0  0  0  0
  8 33  1  0  0  0  0
  9 10  2  0  0  0  0
  9 34  1  0  0  0  0
 10 11  1  0  0  0  0
 10 31  1  0  0  0  0
 11 12  1  0  0  0  0
 11 35  1  0  0  0  0
 12 13  2  0  0  0  0
 12 30  1  0  0  0  0
 13 14  1  0  0  0  0
 14 15  2  0  0  0  0
 15 16  1  0  0  0  0
 15 30  1  0  0  0  0
 16 17  1  0  0  0  0
 16 21  2  0  0  0  0
 17 18  2  0  0  0  0
 17 36  1  0  0  0  0
 18 19  1  0  0  0  0
 18 37  1  0  0  0  0
 19 20  2  0  0  0  0
 20 21  1  0  0  0  0
 20 38  1  0  0  0  0
 21 22  1  0  0  0  0
 22 23  1  0  0  0  0
 22 39  1  0  0  0  0
 22 40  1  0  0  0  0
 23 24  1  0  0  0  0
 23 41  1  0  0  0  0
 23 42  1  0  0  0  0
 24 25  1  0  0  0  0
 24 29  2  0  0  0  0
 25 26  2  0  0  0  0
 25 43  1  0  0  0  0
 26 27  1  0  0  0  0
 26 44  1  0  0  0  0
 27 28  2  0  0  0  0
 28 29  1  0  0  0  0
 28 45  1  0  0  0  0
 29 46  1  0  0  0  0
 31 47  1  0  0  0  0
M  END
$$$$
