CHEMBL191705
 OpenBabel04072215363D

 48 50  0  0  0  0  0  0  0  0999 V2000
    1.1741    0.4641   -0.3716 C   0  0  0  0  0  0  0  0  0  0  0  0
    2.6855    0.4177   -0.2192 C   0  0  0  0  0  0  0  0  0  0  0  0
    3.1966    1.2172    1.2889 S   0  0  0  0  0  0  0  0  0  0  0  0
    2.7274    2.5917    1.2439 O   0  0  0  0  0  0  0  0  0  0  0  0
    2.8504    0.3573    2.4069 O   0  0  0  0  0  0  0  0  0  0  0  0
    4.9692    1.2751    1.2175 C   0  0  0  0  0  0  0  0  0  0  0  0
    5.6284    2.5009    1.1767 C   0  0  0  0  0  0  0  0  0  0  0  0
    7.0250    2.5370    1.2036 C   0  0  0  0  0  0  0  0  0  0  0  0
    7.7700    1.3510    1.2669 C   0  0  0  0  0  0  0  0  0  0  0  0
    9.1446    1.2983    1.3041 O   0  0  0  0  0  0  0  0  0  0  0  0
    9.8325    2.5269    1.0792 C   0  0  0  0  0  0  0  0  0  0  0  0
    7.1029    0.1067    1.3139 C   0  0  0  0  0  0  0  0  0  0  0  0
    7.8416   -1.0985    1.4127 N   0  0  0  0  0  0  0  0  0  0  0  0
    7.3919   -2.2908    0.9830 C   0  0  0  0  0  0  0  0  0  0  0  0
    6.5013   -2.5429    0.0467 N   0  0  0  0  0  0  0  0  0  0  0  0
    6.3146   -3.8927    0.1150 C   0  0  0  0  0  0  0  0  0  0  0  0
    7.0731   -4.4325    1.1291 C   0  0  0  0  0  0  0  0  0  0  0  0
    7.1700   -5.7569    1.7334 C   0  0  0  0  0  0  0  0  0  0  0  0
    8.0117   -6.0071    2.8248 C   0  0  0  0  0  0  0  0  0  0  0  0
    8.0685   -7.2764    3.4077 C   0  0  0  0  0  0  0  0  0  0  0  0
    7.2672   -8.3082    2.9192 C   0  0  0  0  0  0  0  0  0  0  0  0
    6.3934   -8.0745    1.8540 C   0  0  0  0  0  0  0  0  0  0  0  0
    5.5244   -9.2007    1.4056 C   0  0  0  0  0  0  0  0  0  0  0  0
    4.1762   -8.9206    0.7904 C   0  0  0  0  0  0  0  0  0  0  0  0
    5.8983  -10.3576    1.5948 O   0  0  0  0  0  0  0  0  0  0  0  0
    6.3649   -6.8092    1.2520 C   0  0  0  0  0  0  0  0  0  0  0  0
    7.8292   -3.4061    1.6517 O   0  0  0  0  0  0  0  0  0  0  0  0
    5.6947    0.0891    1.2975 C   0  0  0  0  0  0  0  0  0  0  0  0
    0.8588   -0.0576   -1.2804 H   0  0  0  0  0  0  0  0  0  0  0  0
    0.8179    1.4980   -0.4348 H   0  0  0  0  0  0  0  0  0  0  0  0
    0.6757   -0.0044    0.4834 H   0  0  0  0  0  0  0  0  0  0  0  0
    3.1640    0.9329   -1.0569 H   0  0  0  0  0  0  0  0  0  0  0  0
    3.0313   -0.6196   -0.1858 H   0  0  0  0  0  0  0  0  0  0  0  0
    5.0703    3.4347    1.1543 H   0  0  0  0  0  0  0  0  0  0  0  0
    7.4987    3.5133    1.1960 H   0  0  0  0  0  0  0  0  0  0  0  0
   10.9070    2.3220    1.0961 H   0  0  0  0  0  0  0  0  0  0  0  0
    9.6241    3.2510    1.8741 H   0  0  0  0  0  0  0  0  0  0  0  0
    9.5871    2.9404    0.0946 H   0  0  0  0  0  0  0  0  0  0  0  0
    8.8407   -0.9597    1.5157 H   0  0  0  0  0  0  0  0  0  0  0  0
    5.6126   -4.3900   -0.5369 H   0  0  0  0  0  0  0  0  0  0  0  0
    8.6298   -5.2129    3.2391 H   0  0  0  0  0  0  0  0  0  0  0  0
    8.7320   -7.4592    4.2499 H   0  0  0  0  0  0  0  0  0  0  0  0
    7.3164   -9.2918    3.3845 H   0  0  0  0  0  0  0  0  0  0  0  0
    3.9858   -7.8609    0.6211 H   0  0  0  0  0  0  0  0  0  0  0  0
    3.4010   -9.2931    1.4670 H   0  0  0  0  0  0  0  0  0  0  0  0
    4.1062   -9.4420   -0.1684 H   0  0  0  0  0  0  0  0  0  0  0  0
    5.7192   -6.6354    0.3965 H   0  0  0  0  0  0  0  0  0  0  0  0
    5.1609   -0.8545    1.3903 H   0  0  0  0  0  0  0  0  0  0  0  0
  1  2  1  0  0  0  0
  1 29  1  0  0  0  0
  1 30  1  0  0  0  0
  1 31  1  0  0  0  0
  2  3  1  0  0  0  0
  2 32  1  0  0  0  0
  2 33  1  0  0  0  0
  3  4  2  0  0  0  0
  3  5  2  0  0  0  0
  3  6  1  0  0  0  0
  6  7  1  0  0  0  0
  6 28  2  0  0  0  0
  7  8  2  0  0  0  0
  7 34  1  0  0  0  0
  8  9  1  0  0  0  0
  8 35  1  0  0  0  0
  9 10  1  0  0  0  0
  9 12  2  0  0  0  0
 10 11  1  0  0  0  0
 11 36  1  0  0  0  0
 11 37  1  0  0  0  0
 11 38  1  0  0  0  0
 12 13  1  0  0  0  0
 12 28  1  0  0  0  0
 13 14  1  0  0  0  0
 13 39  1  0  0  0  0
 14 15  2  0  0  0  0
 14 27  1  0  0  0  0
 15 16  1  0  0  0  0
 16 17  2  0  0  0  0
 16 40  1  0  0  0  0
 17 18  1  0  0  0  0
 17 27  1  0  0  0  0
 18 19  1  0  0  0  0
 18 26  2  0  0  0  0
 19 20  2  0  0  0  0
 19 41  1  0  0  0  0
 20 21  1  0  0  0  0
 20 42  1  0  0  0  0
 21 22  2  0  0  0  0
 21 43  1  0  0  0  0
 22 23  1  0  0  0  0
 22 26  1  0  0  0  0
 23 24  1  0  0  0  0
 23 25  2  0  0  0  0
 24 44  1  0  0  0  0
 24 45  1  0  0  0  0
 24 46  1  0  0  0  0
 26 47  1  0  0  0  0
 28 48  1  0  0  0  0
M  END
$$$$
