CHEMBL1083042
 OpenBabel04072215363D

 64 70  0  0  1  0  0  0  0  0999 V2000
    3.5779   -0.0829   -3.2334 C   0  0  0  0  0  0  0  0  0  0  0  0
    3.1322    0.8477   -2.1145 C   0  0  0  0  0  0  0  0  0  0  0  0
    3.7291    0.4983   -0.7415 C   0  0  0  0  0  0  0  0  0  0  0  0
    5.1829    0.5912   -0.6652 N   0  0  0  0  0  0  0  0  0  0  0  0
    5.9087    1.7894   -0.8503 C   0  0  0  0  0  0  0  0  0  0  0  0
    5.4966    3.1265   -0.9802 C   0  0  0  0  0  0  0  0  0  0  0  0
    6.4870    4.1261   -1.1027 C   0  0  0  0  0  0  0  0  0  0  0  0
    7.8541    3.8200   -1.0923 C   0  0  0  0  0  0  0  0  0  0  0  0
    8.9614    4.8355   -0.8350 C   0  0  3  0  0  0  0  0  0  0  0  0
    8.5781    6.3099   -0.6817 C   0  0  0  0  0  0  0  0  0  0  0  0
    8.5595    7.0448   -2.0113 C   0  0  0  0  0  0  0  0  0  0  0  0
    9.8890    6.8268   -2.7152 C   0  0  0  0  0  0  0  0  0  0  0  0
   10.1244    5.3364   -2.9036 C   0  0  0  0  0  0  0  0  0  0  0  0
   10.1183    4.6382   -1.6625 O   0  0  0  0  0  0  0  0  0  0  0  0
    8.2332    2.4700   -1.1018 C   0  0  0  0  0  0  0  0  0  0  0  0
    7.2724    1.4591   -0.9578 C   0  0  0  0  0  0  0  0  0  0  0  0
    7.2497    0.0864   -0.9030 C   0  0  0  0  0  0  0  0  0  0  0  0
    8.3233   -0.7443   -1.2457 C   0  0  0  0  0  0  0  0  0  0  0  0
    7.9774   -2.0875   -1.4983 C   0  0  0  0  0  0  0  0  0  0  0  0
    6.6723   -2.5928   -1.2896 C   0  0  0  0  0  0  0  0  0  0  0  0
    5.9727   -1.8601   -0.2823 C   0  0  0  0  0  0  0  0  0  0  0  0
    6.0553   -0.4726   -0.5299 C   0  0  0  0  0  0  0  0  0  0  0  0
    6.4281   -2.4478    1.1372 C   0  0  0  0  0  0  0  0  0  0  0  0
    6.7972   -3.9838    1.2078 C   0  0  0  0  0  0  0  0  0  0  0  0
    6.5081   -4.6542   -0.0849 C   0  0  0  0  0  0  0  0  0  0  0  0
    6.4409   -4.0057   -1.2930 C   0  0  0  0  0  0  0  0  0  0  0  0
    5.9106   -4.9402   -2.1862 C   0  0  0  0  0  0  0  0  0  0  0  0
    5.8263   -6.1565   -1.6310 N   0  0  0  0  0  0  0  0  0  0  0  0
    6.3057   -5.9715   -0.3774 N   0  0  0  0  0  0  0  0  0  0  0  0
    6.6109   -7.1210    0.4367 C   0  0  0  0  0  0  0  0  0  0  0  0
    9.1917   -2.7973   -1.7978 C   0  0  0  0  0  0  0  0  0  0  0  0
    9.4571   -3.9720   -2.0138 O   0  0  0  0  0  0  0  0  0  0  0  0
   10.1844   -1.8224   -1.7101 N   0  0  0  0  0  0  0  0  0  0  0  0
    9.7441   -0.4786   -1.4018 C   0  0  0  0  0  0  0  0  0  0  0  0
    3.0946    0.2035   -4.1740 H   0  0  0  0  0  0  0  0  0  0  0  0
    3.3034   -1.1189   -3.0147 H   0  0  0  0  0  0  0  0  0  0  0  0
    4.6593   -0.0324   -3.3900 H   0  0  0  0  0  0  0  0  0  0  0  0
    2.0387    0.8067   -2.0424 H   0  0  0  0  0  0  0  0  0  0  0  0
    3.3790    1.8760   -2.4008 H   0  0  0  0  0  0  0  0  0  0  0  0
    3.4396   -0.5156   -0.4528 H   0  0  0  0  0  0  0  0  0  0  0  0
    3.3333    1.1826    0.0176 H   0  0  0  0  0  0  0  0  0  0  0  0
    4.4499    3.4078   -0.9530 H   0  0  0  0  0  0  0  0  0  0  0  0
    6.1476    5.1575   -1.1552 H   0  0  0  0  0  0  0  0  0  0  0  0
    9.3100    4.5445    0.1663 H   0  0  0  0  0  0  0  0  0  0  0  0
    9.3445    6.7860   -0.0551 H   0  0  0  0  0  0  0  0  0  0  0  0
    7.6320    6.4378   -0.1471 H   0  0  0  0  0  0  0  0  0  0  0  0
    8.3907    8.1130   -1.8421 H   0  0  0  0  0  0  0  0  0  0  0  0
    7.7399    6.6774   -2.6394 H   0  0  0  0  0  0  0  0  0  0  0  0
   10.6923    7.2490   -2.0971 H   0  0  0  0  0  0  0  0  0  0  0  0
    9.9050    7.3469   -3.6779 H   0  0  0  0  0  0  0  0  0  0  0  0
   11.1121    5.1849   -3.3542 H   0  0  0  0  0  0  0  0  0  0  0  0
    9.3857    4.8958   -3.5814 H   0  0  0  0  0  0  0  0  0  0  0  0
    9.2885    2.2177   -1.1160 H   0  0  0  0  0  0  0  0  0  0  0  0
    5.6849   -2.1934    1.8983 H   0  0  0  0  0  0  0  0  0  0  0  0
    7.3467   -1.9055    1.4207 H   0  0  0  0  0  0  0  0  0  0  0  0
    6.2645   -4.4556    2.0384 H   0  0  0  0  0  0  0  0  0  0  0  0
    7.8715   -4.0871    1.4220 H   0  0  0  0  0  0  0  0  0  0  0  0
    5.5628   -4.7946   -3.1999 H   0  0  0  0  0  0  0  0  0  0  0  0
    6.1999   -8.0185   -0.0344 H   0  0  0  0  0  0  0  0  0  0  0  0
    6.1735   -6.9850    1.4268 H   0  0  0  0  0  0  0  0  0  0  0  0
    7.6992   -7.2078    0.5004 H   0  0  0  0  0  0  0  0  0  0  0  0
   11.1529   -2.1014   -1.7513 H   0  0  0  0  0  0  0  0  0  0  0  0
    9.9719    0.1800   -2.2398 H   0  0  0  0  0  0  0  0  0  0  0  0
   10.2020   -0.1456   -0.4676 H   0  0  0  0  0  0  0  0  0  0  0  0
  1  2  1  0  0  0  0
  1 35  1  0  0  0  0
  1 36  1  0  0  0  0
  1 37  1  0  0  0  0
  2  3  1  0  0  0  0
  2 38  1  0  0  0  0
  2 39  1  0  0  0  0
  3  4  1  0  0  0  0
  3 40  1  0  0  0  0
  3 41  1  0  0  0  0
  4  5  1  0  0  0  0
  4 22  1  0  0  0  0
  5  6  1  0  0  0  0
  5 16  2  0  0  0  0
  6  7  2  0  0  0  0
  6 42  1  0  0  0  0
  7  8  1  0  0  0  0
  7 43  1  0  0  0  0
  8  9  1  0  0  0  0
  8 15  2  0  0  0  0
  9 10  1  0  0  0  0
  9 14  1  0  0  0  0
  9 44  1  0  0  0  0
 10 11  1  0  0  0  0
 10 45  1  0  0  0  0
 10 46  1  0  0  0  0
 11 12  1  0  0  0  0
 11 47  1  0  0  0  0
 11 48  1  0  0  0  0
 12 13  1  0  0  0  0
 12 49  1  0  0  0  0
 12 50  1  0  0  0  0
 13 14  1  0  0  0  0
 13 51  1  0  0  0  0
 13 52  1  0  0  0  0
 15 16  1  0  0  0  0
 15 53  1  0  0  0  0
 16 17  1  0  0  0  0
 17 18  1  0  0  0  0
 17 22  2  0  0  0  0
 18 19  2  0  0  0  0
 18 34  1  0  0  0  0
 19 20  1  0  0  0  0
 19 31  1  0  0  0  0
 20 21  2  0  0  0  0
 20 26  1  0  0  0  0
 21 22  1  0  0  0  0
 21 23  1  0  0  0  0
 23 24  1  0  0  0  0
 23 54  1  0  0  0  0
 23 55  1  0  0  0  0
 24 25  1  0  0  0  0
 24 56  1  0  0  0  0
 24 57  1  0  0  0  0
 25 26  2  0  0  0  0
 25 29  1  0  0  0  0
 26 27  1  0  0  0  0
 27 28  2  0  0  0  0
 27 58  1  0  0  0  0
 28 29  1  0  0  0  0
 29 30  1  0  0  0  0
 30 59  1  0  0  0  0
 30 60  1  0  0  0  0
 30 61  1  0  0  0  0
 31 32  2  0  0  0  0
 31 33  1  0  0  0  0
 33 34  1  0  0  0  0
 33 62  1  0  0  0  0
 34 63  1  0  0  0  0
 34 64  1  0  0  0  0
M  END
$$$$
