CHEMBL181856
 OpenBabel04072215363D

 43 46  0  0  0  0  0  0  0  0999 V2000
    2.7536    0.5030   -1.0543 C   0  0  0  0  0  0  0  0  0  0  0  0
    3.2877   -0.5272   -0.2318 O   0  0  0  0  0  0  0  0  0  0  0  0
    3.7268   -0.1597    1.0094 C   0  0  0  0  0  0  0  0  0  0  0  0
    3.6727    1.1236    1.5489 C   0  0  0  0  0  0  0  0  0  0  0  0
    4.1862    1.3719    2.8291 C   0  0  0  0  0  0  0  0  0  0  0  0
    4.7652    0.3467    3.5919 C   0  0  0  0  0  0  0  0  0  0  0  0
    5.3636    0.6401    4.8915 C   0  0  0  0  0  0  0  0  0  0  0  0
    5.5637    1.8004    5.6174 C   0  0  0  0  0  0  0  0  0  0  0  0
    6.2955    1.4375    6.7820 C   0  0  0  0  0  0  0  0  0  0  0  0
    6.8641    2.0771    7.8848 C   0  0  0  0  0  0  0  0  0  0  0  0
    6.7308    3.4647    8.0236 N   0  0  0  0  0  0  0  0  0  0  0  0
    7.3967    4.2378    8.9407 C   0  0  0  0  0  0  0  0  0  0  0  0
    8.2435    3.8285    9.7323 O   0  0  0  0  0  0  0  0  0  0  0  0
    7.0594    5.5794    8.9138 N   0  0  0  0  0  0  0  0  0  0  0  0
    6.0829    6.2764    8.0961 C   0  0  0  0  0  0  0  0  0  0  0  0
    6.5229    7.7287    8.1655 C   0  0  0  0  0  0  0  0  0  0  0  0
    7.0837    7.8617    9.5748 C   0  0  0  0  0  0  0  0  0  0  0  0
    7.6542    6.4829    9.8870 C   0  0  0  0  0  0  0  0  0  0  0  0
    7.5247    1.3267    8.7896 N   0  0  0  0  0  0  0  0  0  0  0  0
    7.6175    0.0011    8.5947 C   0  0  0  0  0  0  0  0  0  0  0  0
    7.1185   -0.7162    7.5824 N   0  0  0  0  0  0  0  0  0  0  0  0
    6.4733    0.0639    6.7069 C   0  0  0  0  0  0  0  0  0  0  0  0
    5.9000   -0.4177    5.5688 O   0  0  0  0  0  0  0  0  0  0  0  0
    4.7875   -0.9444    3.0489 C   0  0  0  0  0  0  0  0  0  0  0  0
    4.2746   -1.1926    1.7705 C   0  0  0  0  0  0  0  0  0  0  0  0
    2.4661    0.0547   -2.0099 H   0  0  0  0  0  0  0  0  0  0  0  0
    3.5033    1.2748   -1.2612 H   0  0  0  0  0  0  0  0  0  0  0  0
    1.8542    0.9366   -0.6051 H   0  0  0  0  0  0  0  0  0  0  0  0
    3.2487    1.9572    1.0012 H   0  0  0  0  0  0  0  0  0  0  0  0
    4.1339    2.3873    3.2116 H   0  0  0  0  0  0  0  0  0  0  0  0
    5.2594    2.7928    5.3212 H   0  0  0  0  0  0  0  0  0  0  0  0
    6.1748    3.9338    7.3363 H   0  0  0  0  0  0  0  0  0  0  0  0
    5.1010    6.1321    8.5605 H   0  0  0  0  0  0  0  0  0  0  0  0
    6.0557    5.9050    7.0696 H   0  0  0  0  0  0  0  0  0  0  0  0
    5.7061    8.4275    7.9643 H   0  0  0  0  0  0  0  0  0  0  0  0
    7.3185    7.9118    7.4330 H   0  0  0  0  0  0  0  0  0  0  0  0
    6.2801    8.1056   10.2784 H   0  0  0  0  0  0  0  0  0  0  0  0
    7.8427    8.6468    9.6483 H   0  0  0  0  0  0  0  0  0  0  0  0
    7.3804    6.1579   10.8967 H   0  0  0  0  0  0  0  0  0  0  0  0
    8.7444    6.4528    9.7914 H   0  0  0  0  0  0  0  0  0  0  0  0
    8.1655   -0.5493    9.3555 H   0  0  0  0  0  0  0  0  0  0  0  0
    5.2192   -1.7736    3.6070 H   0  0  0  0  0  0  0  0  0  0  0  0
    4.3161   -2.1999    1.3626 H   0  0  0  0  0  0  0  0  0  0  0  0
  1  2  1  0  0  0  0
  1 26  1  0  0  0  0
  1 27  1  0  0  0  0
  1 28  1  0  0  0  0
  2  3  1  0  0  0  0
  3  4  1  0  0  0  0
  3 25  2  0  0  0  0
  4  5  2  0  0  0  0
  4 29  1  0  0  0  0
  5  6  1  0  0  0  0
  5 30  1  0  0  0  0
  6  7  1  0  0  0  0
  6 24  2  0  0  0  0
  7  8  2  0  0  0  0
  7 23  1  0  0  0  0
  8  9  1  0  0  0  0
  8 31  1  0  0  0  0
  9 10  1  0  0  0  0
  9 22  2  0  0  0  0
 10 11  1  0  0  0  0
 10 19  2  0  0  0  0
 11 12  1  0  0  0  0
 11 32  1  0  0  0  0
 12 13  2  0  0  0  0
 12 14  1  0  0  0  0
 14 15  1  0  0  0  0
 14 18  1  0  0  0  0
 15 16  1  0  0  0  0
 15 33  1  0  0  0  0
 15 34  1  0  0  0  0
 16 17  1  0  0  0  0
 16 35  1  0  0  0  0
 16 36  1  0  0  0  0
 17 18  1  0  0  0  0
 17 37  1  0  0  0  0
 17 38  1  0  0  0  0
 18 39  1  0  0  0  0
 18 40  1  0  0  0  0
 19 20  1  0  0  0  0
 20 21  2  0  0  0  0
 20 41  1  0  0  0  0
 21 22  1  0  0  0  0
 22 23  1  0  0  0  0
 24 25  1  0  0  0  0
 24 42  1  0  0  0  0
 25 43  1  0  0  0  0
M  END
$$$$
