CHEMBL218632
 OpenBabel04072215363D

 55 58  0  0  0  0  0  0  0  0999 V2000
    5.4967    3.9922   10.8093 C   0  0  0  0  0  0  0  0  0  0  0  0
    5.3985    2.5620   10.6431 N   0  0  0  0  0  0  0  0  0  0  0  0
    4.5970    2.1121    9.6073 C   0  0  0  0  0  0  0  0  0  0  0  0
    3.9466    0.9698    9.8470 N   0  0  0  0  0  0  0  0  0  0  0  0
    3.2256    0.4573    8.8359 C   0  0  0  0  0  0  0  0  0  0  0  0
    3.1303    1.0398    7.5953 C   0  0  0  0  0  0  0  0  0  0  0  0
    3.8272    2.2179    7.4234 C   0  0  0  0  0  0  0  0  0  0  0  0
    3.8439    2.9885    6.1622 C   0  0  0  0  0  0  0  0  0  0  0  0
    3.8889    4.3977    6.2135 C   0  0  0  0  0  0  0  0  0  0  0  0
    3.9627    5.1684    5.0547 C   0  0  0  0  0  0  0  0  0  0  0  0
    3.9536    4.5155    3.8431 C   0  0  0  0  0  0  0  0  0  0  0  0
    3.8788    3.1778    3.7299 N   0  0  0  0  0  0  0  0  0  0  0  0
    3.8683    2.4355    4.8731 C   0  0  0  0  0  0  0  0  0  0  0  0
    3.9206    1.0463    4.7305 O   0  0  0  0  0  0  0  0  0  0  0  0
    4.4215    0.5387    3.5405 C   0  0  0  0  0  0  0  0  0  0  0  0
    5.5873    1.0640    2.9517 C   0  0  0  0  0  0  0  0  0  0  0  0
    6.0115    0.5971    1.7066 C   0  0  0  0  0  0  0  0  0  0  0  0
    7.0544    1.2876    0.8923 C   0  0  0  0  0  0  0  0  0  0  0  0
    7.0241    1.1066   -0.3257 O   0  0  0  0  0  0  0  0  0  0  0  0
    7.9974    2.0524    1.5567 N   0  0  0  0  0  0  0  0  0  0  0  0
    8.9830    2.8423    0.9171 C   0  0  0  0  0  0  0  0  0  0  0  0
    8.8770    3.2573   -0.4135 C   0  0  0  0  0  0  0  0  0  0  0  0
    9.8992    3.9812   -1.0256 C   0  0  0  0  0  0  0  0  0  0  0  0
   11.0502    4.3013   -0.3109 C   0  0  0  0  0  0  0  0  0  0  0  0
   11.1713    3.9180    1.0330 C   0  0  0  0  0  0  0  0  0  0  0  0
   12.4305    4.2182    1.8053 C   0  0  0  0  0  0  0  0  0  0  0  0
   13.4071    4.8040    1.0566 F   0  0  0  0  0  0  0  0  0  0  0  0
   12.2108    5.0569    2.8547 F   0  0  0  0  0  0  0  0  0  0  0  0
   12.9928    3.0962    2.3351 F   0  0  0  0  0  0  0  0  0  0  0  0
   10.1156    3.2150    1.6477 C   0  0  0  0  0  0  0  0  0  0  0  0
    5.3440   -0.4813    1.1156 C   0  0  0  0  0  0  0  0  0  0  0  0
    4.2323   -1.0543    1.7289 C   0  0  0  0  0  0  0  0  0  0  0  0
    3.7406   -0.5337    2.9327 C   0  0  0  0  0  0  0  0  0  0  0  0
    2.4746   -1.1055    3.5049 C   0  0  0  0  0  0  0  0  0  0  0  0
    4.5409    2.7677    8.4401 N   0  0  0  0  0  0  0  0  0  0  0  0
    6.1875    4.2058   11.6325 H   0  0  0  0  0  0  0  0  0  0  0  0
    4.5284    4.4331   11.0694 H   0  0  0  0  0  0  0  0  0  0  0  0
    5.8949    4.4876    9.9178 H   0  0  0  0  0  0  0  0  0  0  0  0
    5.1156    2.0448   11.4679 H   0  0  0  0  0  0  0  0  0  0  0  0
    2.7151   -0.4750    9.0604 H   0  0  0  0  0  0  0  0  0  0  0  0
    2.5324    0.5857    6.8177 H   0  0  0  0  0  0  0  0  0  0  0  0
    3.8849    4.9053    7.1772 H   0  0  0  0  0  0  0  0  0  0  0  0
    4.0318    6.2492    5.1032 H   0  0  0  0  0  0  0  0  0  0  0  0
    4.0245    5.0577    2.9045 H   0  0  0  0  0  0  0  0  0  0  0  0
    6.0865    1.9022    3.4264 H   0  0  0  0  0  0  0  0  0  0  0  0
    8.0945    1.9156    2.5545 H   0  0  0  0  0  0  0  0  0  0  0  0
    7.9937    3.0339   -1.0074 H   0  0  0  0  0  0  0  0  0  0  0  0
    9.7984    4.2810   -2.0648 H   0  0  0  0  0  0  0  0  0  0  0  0
   11.8511    4.8408   -0.8110 H   0  0  0  0  0  0  0  0  0  0  0  0
   10.2184    2.9210    2.6907 H   0  0  0  0  0  0  0  0  0  0  0  0
    5.6672   -0.8580    0.1454 H   0  0  0  0  0  0  0  0  0  0  0  0
    3.7269   -1.8776    1.2295 H   0  0  0  0  0  0  0  0  0  0  0  0
    2.0400   -1.8568    2.8359 H   0  0  0  0  0  0  0  0  0  0  0  0
    1.7228   -0.3179    3.6303 H   0  0  0  0  0  0  0  0  0  0  0  0
    2.6685   -1.5882    4.4652 H   0  0  0  0  0  0  0  0  0  0  0  0
  1  2  1  0  0  0  0
  1 36  1  0  0  0  0
  1 37  1  0  0  0  0
  1 38  1  0  0  0  0
  2  3  1  0  0  0  0
  2 39  1  0  0  0  0
  3  4  1  0  0  0  0
  3 35  2  0  0  0  0
  4  5  2  0  0  0  0
  5  6  1  0  0  0  0
  5 40  1  0  0  0  0
  6  7  2  0  0  0  0
  6 41  1  0  0  0  0
  7  8  1  0  0  0  0
  7 35  1  0  0  0  0
  8  9  1  0  0  0  0
  8 13  2  0  0  0  0
  9 10  2  0  0  0  0
  9 42  1  0  0  0  0
 10 11  1  0  0  0  0
 10 43  1  0  0  0  0
 11 12  2  0  0  0  0
 11 44  1  0  0  0  0
 12 13  1  0  0  0  0
 13 14  1  0  0  0  0
 14 15  1  0  0  0  0
 15 16  1  0  0  0  0
 15 33  2  0  0  0  0
 16 17  2  0  0  0  0
 16 45  1  0  0  0  0
 17 18  1  0  0  0  0
 17 31  1  0  0  0  0
 18 19  2  0  0  0  0
 18 20  1  0  0  0  0
 20 21  1  0  0  0  0
 20 46  1  0  0  0  0
 21 22  1  0  0  0  0
 21 30  2  0  0  0  0
 22 23  2  0  0  0  0
 22 47  1  0  0  0  0
 23 24  1  0  0  0  0
 23 48  1  0  0  0  0
 24 25  2  0  0  0  0
 24 49  1  0  0  0  0
 25 26  1  0  0  0  0
 25 30  1  0  0  0  0
 26 27  1  0  0  0  0
 26 28  1  0  0  0  0
 26 29  1  0  0  0  0
 30 50  1  0  0  0  0
 31 32  2  0  0  0  0
 31 51  1  0  0  0  0
 32 33  1  0  0  0  0
 32 52  1  0  0  0  0
 33 34  1  0  0  0  0
 34 53  1  0  0  0  0
 34 54  1  0  0  0  0
 34 55  1  0  0  0  0
M  END
$$$$
