CHEMBL3944638
 OpenBabel04072215373D

 59 63  0  0  0  0  0  0  0  0999 V2000
    1.6253    0.2070    1.1191 O   0  0  0  0  0  0  0  0  0  0  0  0
    2.7596    0.3573    0.6876 C   0  0  0  0  0  0  0  0  0  0  0  0
    3.1922    1.3269   -0.1848 N   0  0  0  0  0  0  0  0  0  0  0  0
    2.4223    2.3839   -0.7108 C   0  0  0  0  0  0  0  0  0  0  0  0
    1.1371    2.6809   -0.2473 C   0  0  0  0  0  0  0  0  0  0  0  0
    0.3644    3.6649   -0.8618 C   0  0  0  0  0  0  0  0  0  0  0  0
    0.8708    4.3867   -1.9243 C   0  0  0  0  0  0  0  0  0  0  0  0
    2.2017    4.1923   -2.3315 C   0  0  0  0  0  0  0  0  0  0  0  0
    2.8083    5.0112   -3.4045 C   0  0  0  0  0  0  0  0  0  0  0  0
    3.7190    4.5104   -4.0640 O   0  0  0  0  0  0  0  0  0  0  0  0
    2.3798    6.4133   -3.7117 C   0  0  0  0  0  0  0  0  0  0  0  0
    1.7151    7.2513   -2.7966 C   0  0  0  0  0  0  0  0  0  0  0  0
    1.2666    8.5421   -3.1606 C   0  0  0  0  0  0  0  0  0  0  0  0
    1.6835    9.0566   -4.4011 C   0  0  0  0  0  0  0  0  0  0  0  0
    1.5532   10.2381   -5.2131 C   0  0  0  0  0  0  0  0  0  0  0  0
    0.5236   10.5240   -6.2138 C   0  0  0  0  0  0  0  0  0  0  0  0
   -0.2781    9.5738   -6.7367 C   0  0  0  0  0  0  0  0  0  0  0  0
   -0.5150    9.4411   -8.1930 C   0  0  0  0  0  0  0  0  0  0  0  0
    0.5283    9.6386   -9.1203 C   0  0  0  0  0  0  0  0  0  0  0  0
    0.3929    9.2608  -10.4587 C   0  0  0  0  0  0  0  0  0  0  0  0
   -0.7933    8.6774  -10.8950 C   0  0  0  0  0  0  0  0  0  0  0  0
   -1.8367    8.4913   -9.9958 C   0  0  0  0  0  0  0  0  0  0  0  0
   -1.7037    8.8595   -8.6518 C   0  0  0  0  0  0  0  0  0  0  0  0
    2.7925   10.4737   -5.6965 N   0  0  0  0  0  0  0  0  0  0  0  0
    3.2215    9.2213   -5.9235 N   0  0  0  0  0  0  0  0  0  0  0  0
    2.5865    8.2939   -5.1341 C   0  0  0  0  0  0  0  0  0  0  0  0
    2.8044    6.9338   -4.9394 C   0  0  0  0  0  0  0  0  0  0  0  0
    2.9627    3.1691   -1.7341 C   0  0  0  0  0  0  0  0  0  0  0  0
    3.8089   -0.4317    1.0384 O   0  0  0  0  0  0  0  0  0  0  0  0
    3.5369   -1.3375    2.1171 C   0  0  0  0  0  0  0  0  0  0  0  0
    3.4670   -2.7664    1.6436 C   0  0  0  0  0  0  0  0  0  0  0  0
    4.6357   -3.5307    1.5223 C   0  0  0  0  0  0  0  0  0  0  0  0
    4.5683   -4.8742    1.1494 C   0  0  0  0  0  0  0  0  0  0  0  0
    3.3342   -5.4647    0.8833 C   0  0  0  0  0  0  0  0  0  0  0  0
    2.1670   -4.7089    0.9775 C   0  0  0  0  0  0  0  0  0  0  0  0
    2.2327   -3.3643    1.3501 C   0  0  0  0  0  0  0  0  0  0  0  0
    4.1433    1.2110   -0.5043 H   0  0  0  0  0  0  0  0  0  0  0  0
    0.6982    2.1580    0.5951 H   0  0  0  0  0  0  0  0  0  0  0  0
   -0.6444    3.8582   -0.4965 H   0  0  0  0  0  0  0  0  0  0  0  0
    0.2240    5.1010   -2.4239 H   0  0  0  0  0  0  0  0  0  0  0  0
    1.5550    6.9308   -1.7691 H   0  0  0  0  0  0  0  0  0  0  0  0
    0.7359    9.1616   -2.4421 H   0  0  0  0  0  0  0  0  0  0  0  0
    0.7695   11.3888   -6.8308 H   0  0  0  0  0  0  0  0  0  0  0  0
   -0.5055    8.6704   -6.1776 H   0  0  0  0  0  0  0  0  0  0  0  0
    1.4893   10.0374   -8.7976 H   0  0  0  0  0  0  0  0  0  0  0  0
    1.2221    9.3878  -11.1507 H   0  0  0  0  0  0  0  0  0  0  0  0
   -0.8917    8.3519  -11.9293 H   0  0  0  0  0  0  0  0  0  0  0  0
   -2.7599    8.0142  -10.3341 H   0  0  0  0  0  0  0  0  0  0  0  0
   -2.5169    8.6587   -7.9632 H   0  0  0  0  0  0  0  0  0  0  0  0
    4.0241    9.0801   -6.5202 H   0  0  0  0  0  0  0  0  0  0  0  0
    3.3903    6.3456   -5.6392 H   0  0  0  0  0  0  0  0  0  0  0  0
    3.9716    2.9843   -2.0987 H   0  0  0  0  0  0  0  0  0  0  0  0
    2.6336   -1.0803    2.6833 H   0  0  0  0  0  0  0  0  0  0  0  0
    4.3581   -1.2352    2.8363 H   0  0  0  0  0  0  0  0  0  0  0  0
    5.6045   -3.0853    1.7357 H   0  0  0  0  0  0  0  0  0  0  0  0
    5.4790   -5.4625    1.0745 H   0  0  0  0  0  0  0  0  0  0  0  0
    3.2826   -6.5135    0.6024 H   0  0  0  0  0  0  0  0  0  0  0  0
    1.2045   -5.1692    0.7683 H   0  0  0  0  0  0  0  0  0  0  0  0
    1.3110   -2.7880    1.4259 H   0  0  0  0  0  0  0  0  0  0  0  0
  1  2  2  0  0  0  0
  2  3  1  0  0  0  0
  2 29  1  0  0  0  0
  3  4  1  0  0  0  0
  3 37  1  0  0  0  0
  4  5  1  0  0  0  0
  4 28  2  0  0  0  0
  5  6  2  0  0  0  0
  5 38  1  0  0  0  0
  6  7  1  0  0  0  0
  6 39  1  0  0  0  0
  7  8  2  0  0  0  0
  7 40  1  0  0  0  0
  8  9  1  0  0  0  0
  8 28  1  0  0  0  0
  9 10  2  0  0  0  0
  9 11  1  0  0  0  0
 11 12  1  0  0  0  0
 11 27  2  0  0  0  0
 12 13  2  0  0  0  0
 12 41  1  0  0  0  0
 13 14  1  0  0  0  0
 13 42  1  0  0  0  0
 14 15  1  0  0  0  0
 14 26  2  0  0  0  0
 15 16  1  0  0  0  0
 15 24  2  0  0  0  0
 16 17  2  0  0  0  0
 16 43  1  0  0  0  0
 17 18  1  0  0  0  0
 17 44  1  0  0  0  0
 18 19  1  0  0  0  0
 18 23  2  0  0  0  0
 19 20  2  0  0  0  0
 19 45  1  0  0  0  0
 20 21  1  0  0  0  0
 20 46  1  0  0  0  0
 21 22  2  0  0  0  0
 21 47  1  0  0  0  0
 22 23  1  0  0  0  0
 22 48  1  0  0  0  0
 23 49  1  0  0  0  0
 24 25  1  0  0  0  0
 25 26  1  0  0  0  0
 25 50  1  0  0  0  0
 26 27  1  0  0  0  0
 27 51  1  0  0  0  0
 28 52  1  0  0  0  0
 29 30  1  0  0  0  0
 30 31  1  0  0  0  0
 30 53  1  0  0  0  0
 30 54  1  0  0  0  0
 31 32  1  0  0  0  0
 31 36  2  0  0  0  0
 32 33  2  0  0  0  0
 32 55  1  0  0  0  0
 33 34  1  0  0  0  0
 33 56  1  0  0  0  0
 34 35  2  0  0  0  0
 34 57  1  0  0  0  0
 35 36  1  0  0  0  0
 35 58  1  0  0  0  0
 36 59  1  0  0  0  0
M  END
$$$$
