CHEMBL3898138
 OpenBabel04072215373D

 56 59  0  0  1  0  0  0  0  0999 V2000
    2.3709    0.0007    1.0924 C   0  0  0  0  0  0  0  0  0  0  0  0
    2.4059    0.0301   -0.3415 O   0  0  0  0  0  0  0  0  0  0  0  0
    3.1535   -0.9231   -0.9814 C   0  0  0  0  0  0  0  0  0  0  0  0
    4.2130   -1.5895   -0.3556 C   0  0  0  0  0  0  0  0  0  0  0  0
    4.8889   -2.6607   -0.9889 C   0  0  0  0  0  0  0  0  0  0  0  0
    5.8865   -3.4488   -0.4111 C   0  0  0  0  0  0  0  0  0  0  0  0
    6.2245   -3.2361    0.9524 N   0  0  0  0  0  0  0  0  0  0  0  0
    7.4056   -3.7266    1.5456 C   0  0  0  0  0  0  0  0  0  0  0  0
    8.6328   -3.5729    0.8974 C   0  0  0  0  0  0  0  0  0  0  0  0
    9.7973   -4.0953    1.4429 C   0  0  0  0  0  0  0  0  0  0  0  0
    9.7440   -4.7739    2.6638 C   0  0  0  0  0  0  0  0  0  0  0  0
   11.2231   -5.4350    3.2733 Cl  0  0  0  0  0  0  0  0  0  0  0  0
    8.5268   -4.9075    3.3361 C   0  0  0  0  0  0  0  0  0  0  0  0
    8.3883   -5.7357    4.8465 Cl  0  0  0  0  0  0  0  0  0  0  0  0
    7.3595   -4.3724    2.7820 C   0  0  0  0  0  0  0  0  0  0  0  0
    6.5145   -4.4302   -1.0908 N   0  0  0  0  0  0  0  0  0  0  0  0
    6.1306   -4.6418   -2.3477 C   0  0  0  0  0  0  0  0  0  0  0  0
    5.1740   -3.9700   -2.9868 N   0  0  0  0  0  0  0  0  0  0  0  0
    4.5747   -2.9986   -2.2969 C   0  0  0  0  0  0  0  0  0  0  0  0
    3.5915   -2.2830   -2.9336 C   0  0  0  0  0  0  0  0  0  0  0  0
    2.8695   -1.2397   -2.3219 C   0  0  0  0  0  0  0  0  0  0  0  0
    1.9023   -0.5267   -3.0204 O   0  0  0  0  0  0  0  0  0  0  0  0
    1.8073   -0.9354   -4.3943 C   0  0  0  0  0  0  0  0  0  0  0  0
    0.8448   -0.1667   -5.2859 C   0  0  3  0  0  0  0  0  0  0  0  0
   -0.5951   -0.1958   -4.7462 C   0  0  0  0  0  0  0  0  0  0  0  0
   -1.5644    0.4368   -5.6792 N   0  0  0  0  0  0  0  0  0  0  0  0
   -1.3102    1.8821   -5.7647 C   0  0  0  0  0  0  0  0  0  0  0  0
   -2.3131    2.5947   -6.6150 C   0  0  0  0  0  0  0  0  0  0  0  0
   -1.9757    3.2917   -7.7078 C   0  0  0  0  0  0  0  0  0  0  0  0
   -3.1833    4.1864   -8.7888 Br  0  0  0  0  0  0  0  0  0  0  0  0
   -1.4323   -0.2540   -6.9846 C   0  0  0  0  0  0  0  0  0  0  0  0
    0.0032   -0.2872   -7.5295 C   0  0  0  0  0  0  0  0  0  0  0  0
    0.9226   -0.8218   -6.5760 O   0  0  0  0  0  0  0  0  0  0  0  0
    2.8436    0.9076    1.4830 H   0  0  0  0  0  0  0  0  0  0  0  0
    2.8366   -0.8708    1.5641 H   0  0  0  0  0  0  0  0  0  0  0  0
    1.3252   -0.0107    1.4141 H   0  0  0  0  0  0  0  0  0  0  0  0
    4.5591   -1.2837    0.6269 H   0  0  0  0  0  0  0  0  0  0  0  0
    5.3976   -3.3855    1.5229 H   0  0  0  0  0  0  0  0  0  0  0  0
    8.6828   -3.0543   -0.0604 H   0  0  0  0  0  0  0  0  0  0  0  0
   10.7373   -3.9824    0.9070 H   0  0  0  0  0  0  0  0  0  0  0  0
    6.4140   -4.4951    3.3028 H   0  0  0  0  0  0  0  0  0  0  0  0
    6.6322   -5.4234   -2.9031 H   0  0  0  0  0  0  0  0  0  0  0  0
    3.4129   -2.5990   -3.9572 H   0  0  0  0  0  0  0  0  0  0  0  0
    1.4985   -1.9888   -4.4349 H   0  0  0  0  0  0  0  0  0  0  0  0
    2.7919   -0.8250   -4.8724 H   0  0  0  0  0  0  0  0  0  0  0  0
    1.2144    0.8592   -5.3861 H   0  0  0  0  0  0  0  0  0  0  0  0
   -0.6538    0.2779   -3.7599 H   0  0  0  0  0  0  0  0  0  0  0  0
   -0.9060   -1.2400   -4.6034 H   0  0  0  0  0  0  0  0  0  0  0  0
   -0.3012    2.1084   -6.1259 H   0  0  0  0  0  0  0  0  0  0  0  0
   -1.3771    2.3118   -4.7580 H   0  0  0  0  0  0  0  0  0  0  0  0
   -3.3504    2.5297   -6.2995 H   0  0  0  0  0  0  0  0  0  0  0  0
   -0.9511    3.3738   -8.0536 H   0  0  0  0  0  0  0  0  0  0  0  0
   -2.1081    0.1726   -7.7334 H   0  0  0  0  0  0  0  0  0  0  0  0
   -1.7712   -1.2892   -6.8431 H   0  0  0  0  0  0  0  0  0  0  0  0
    0.3478    0.7042   -7.8409 H   0  0  0  0  0  0  0  0  0  0  0  0
    0.0411   -0.9350   -8.4126 H   0  0  0  0  0  0  0  0  0  0  0  0
  1  2  1  0  0  0  0
  1 34  1  0  0  0  0
  1 35  1  0  0  0  0
  1 36  1  0  0  0  0
  2  3  1  0  0  0  0
  3  4  1  0  0  0  0
  3 21  2  0  0  0  0
  4  5  2  0  0  0  0
  4 37  1  0  0  0  0
  5  6  1  0  0  0  0
  5 19  1  0  0  0  0
  6  7  1  0  0  0  0
  6 16  2  0  0  0  0
  7  8  1  0  0  0  0
  7 38  1  0  0  0  0
  8  9  1  0  0  0  0
  8 15  2  0  0  0  0
  9 10  2  0  0  0  0
  9 39  1  0  0  0  0
 10 11  1  0  0  0  0
 10 40  1  0  0  0  0
 11 12  1  0  0  0  0
 11 13  2  0  0  0  0
 13 14  1  0  0  0  0
 13 15  1  0  0  0  0
 15 41  1  0  0  0  0
 16 17  1  0  0  0  0
 17 18  2  0  0  0  0
 17 42  1  0  0  0  0
 18 19  1  0  0  0  0
 19 20  2  0  0  0  0
 20 21  1  0  0  0  0
 20 43  1  0  0  0  0
 21 22  1  0  0  0  0
 22 23  1  0  0  0  0
 23 24  1  0  0  0  0
 23 44  1  0  0  0  0
 23 45  1  0  0  0  0
 24 25  1  0  0  0  0
 24 33  1  0  0  0  0
 24 46  1  0  0  0  0
 25 26  1  0  0  0  0
 25 47  1  0  0  0  0
 25 48  1  0  0  0  0
 26 27  1  0  0  0  0
 26 31  1  0  0  0  0
 27 28  1  0  0  0  0
 27 49  1  0  0  0  0
 27 50  1  0  0  0  0
 28 29  2  0  0  0  0
 28 51  1  0  0  0  0
 29 30  1  0  0  0  0
 29 52  1  0  0  0  0
 31 32  1  0  0  0  0
 31 53  1  0  0  0  0
 31 54  1  0  0  0  0
 32 33  1  0  0  0  0
 32 55  1  0  0  0  0
 32 56  1  0  0  0  0
M  END
$$$$
