CHEMBL3946811
 OpenBabel04072215373D

 83 88  0  0  0  0  0  0  0  0999 V2000
    2.7100   -0.0764    1.1664 C   0  0  0  0  0  0  0  0  0  0  0  0
    2.4905    0.2971   -0.1875 O   0  0  0  0  0  0  0  0  0  0  0  0
    3.2226   -0.2871   -1.1847 C   0  0  0  0  0  0  0  0  0  0  0  0
    4.3954   -1.0203   -0.9494 C   0  0  0  0  0  0  0  0  0  0  0  0
    5.0718   -1.7034   -1.9857 C   0  0  0  0  0  0  0  0  0  0  0  0
    6.2321   -2.4979   -1.7857 C   0  0  0  0  0  0  0  0  0  0  0  0
    6.7037   -2.6751   -0.4957 O   0  0  0  0  0  0  0  0  0  0  0  0
    7.2931   -3.8726   -0.1358 C   0  0  0  0  0  0  0  0  0  0  0  0
    8.3470   -3.7847    0.7705 C   0  0  0  0  0  0  0  0  0  0  0  0
    8.9672   -4.9461    1.2599 C   0  0  0  0  0  0  0  0  0  0  0  0
    8.5431   -6.2238    0.8685 C   0  0  0  0  0  0  0  0  0  0  0  0
    9.0901   -7.4296    1.3851 N   0  0  0  0  0  0  0  0  0  0  0  0
   10.0588   -7.5278    2.3709 C   0  0  0  0  0  0  0  0  0  0  0  0
   10.6413   -6.5961    2.9164 O   0  0  0  0  0  0  0  0  0  0  0  0
   10.4019   -8.9415    2.8159 C   0  0  0  0  0  0  0  0  0  0  0  0
    9.8179  -10.0111    2.3551 N   0  0  0  0  0  0  0  0  0  0  0  0
   10.4303  -11.0491    3.0448 N   0  0  0  0  0  0  0  0  0  0  0  0
   10.0805  -12.4035    2.8250 C   0  0  0  0  0  0  0  0  0  0  0  0
   10.7084  -13.4391    3.5407 C   0  0  0  0  0  0  0  0  0  0  0  0
   10.3683  -14.7827    3.3368 C   0  0  0  0  0  0  0  0  0  0  0  0
    9.3913  -15.1217    2.4087 C   0  0  0  0  0  0  0  0  0  0  0  0
    8.7603  -14.1146    1.6816 C   0  0  0  0  0  0  0  0  0  0  0  0
    9.1029  -12.7754    1.8909 C   0  0  0  0  0  0  0  0  0  0  0  0
    8.4574  -11.8592    1.1514 F   0  0  0  0  0  0  0  0  0  0  0  0
   11.3999  -10.5308    3.9285 C   0  0  0  0  0  0  0  0  0  0  0  0
   12.1420  -11.1195    4.7004 O   0  0  0  0  0  0  0  0  0  0  0  0
   11.3623   -9.1708    3.7517 N   0  0  0  0  0  0  0  0  0  0  0  0
   12.2312   -8.2424    4.4406 C   0  0  0  0  0  0  0  0  0  0  0  0
    7.4988   -6.3068   -0.0569 C   0  0  0  0  0  0  0  0  0  0  0  0
    6.8713   -5.1440   -0.5330 C   0  0  0  0  0  0  0  0  0  0  0  0
    5.8377   -5.2925   -1.3746 F   0  0  0  0  0  0  0  0  0  0  0  0
    6.9042   -3.0247   -2.8868 C   0  0  0  0  0  0  0  0  0  0  0  0
    6.3358   -2.8548   -4.1239 C   0  0  0  0  0  0  0  0  0  0  0  0
    5.1897   -2.1746   -4.3449 N   0  0  0  0  0  0  0  0  0  0  0  0
    4.5760   -1.5939   -3.3006 C   0  0  0  0  0  0  0  0  0  0  0  0
    3.4364   -0.8330   -3.5315 C   0  0  0  0  0  0  0  0  0  0  0  0
    2.7739   -0.1405   -2.5097 C   0  0  0  0  0  0  0  0  0  0  0  0
    1.7232    0.6408   -2.9634 O   0  0  0  0  0  0  0  0  0  0  0  0
    1.3991    1.7672   -2.1468 C   0  0  0  0  0  0  0  0  0  0  0  0
    0.7765    2.9245   -2.9406 C   0  0  0  0  0  0  0  0  0  0  0  0
    0.5595    4.0942   -1.9608 C   0  0  0  0  0  0  0  0  0  0  0  0
    0.0953    5.3587   -2.5402 N   0  0  0  0  0  0  0  0  0  0  0  0
   -1.2501    5.2773   -3.1346 C   0  0  0  0  0  0  0  0  0  0  0  0
   -1.6823    6.6443   -3.7246 C   0  0  0  0  0  0  0  0  0  0  0  0
   -1.6526    7.7813   -2.7813 N   0  0  0  0  0  0  0  0  0  0  0  0
   -2.7841    7.7526   -1.8600 C   0  0  0  0  0  0  0  0  0  0  0  0
   -0.3613    7.7884   -2.0658 C   0  0  0  0  0  0  0  0  0  0  0  0
    0.0865    6.4184   -1.5036 C   0  0  0  0  0  0  0  0  0  0  0  0
    3.2291    0.7388    1.6791 H   0  0  0  0  0  0  0  0  0  0  0  0
    3.2503   -1.0145    1.3086 H   0  0  0  0  0  0  0  0  0  0  0  0
    1.7310   -0.2076    1.6376 H   0  0  0  0  0  0  0  0  0  0  0  0
    4.8337   -1.0515    0.0422 H   0  0  0  0  0  0  0  0  0  0  0  0
    8.6921   -2.8128    1.1165 H   0  0  0  0  0  0  0  0  0  0  0  0
    9.7816   -4.8033    1.9637 H   0  0  0  0  0  0  0  0  0  0  0  0
    8.7052   -8.3122    1.0565 H   0  0  0  0  0  0  0  0  0  0  0  0
   11.4801  -13.2376    4.2789 H   0  0  0  0  0  0  0  0  0  0  0  0
   10.8719  -15.5592    3.9087 H   0  0  0  0  0  0  0  0  0  0  0  0
    9.1245  -16.1636    2.2507 H   0  0  0  0  0  0  0  0  0  0  0  0
    7.9989  -14.3610    0.9497 H   0  0  0  0  0  0  0  0  0  0  0  0
   12.9126   -8.7704    5.1126 H   0  0  0  0  0  0  0  0  0  0  0  0
   11.6249   -7.5424    5.0220 H   0  0  0  0  0  0  0  0  0  0  0  0
   12.8156   -7.6900    3.6993 H   0  0  0  0  0  0  0  0  0  0  0  0
    7.1313   -7.2656   -0.4113 H   0  0  0  0  0  0  0  0  0  0  0  0
    7.8356   -3.5694   -2.7821 H   0  0  0  0  0  0  0  0  0  0  0  0
    6.7984   -3.2747   -5.0090 H   0  0  0  0  0  0  0  0  0  0  0  0
    3.0647   -0.7552   -4.5512 H   0  0  0  0  0  0  0  0  0  0  0  0
    2.3035    2.1651   -1.6722 H   0  0  0  0  0  0  0  0  0  0  0  0
    0.6780    1.4442   -1.3873 H   0  0  0  0  0  0  0  0  0  0  0  0
   -0.1628    2.6001   -3.4029 H   0  0  0  0  0  0  0  0  0  0  0  0
    1.4443    3.2180   -3.7604 H   0  0  0  0  0  0  0  0  0  0  0  0
    1.5332    4.2936   -1.4925 H   0  0  0  0  0  0  0  0  0  0  0  0
   -0.1147    3.7710   -1.1572 H   0  0  0  0  0  0  0  0  0  0  0  0
   -1.9849    4.9455   -2.3893 H   0  0  0  0  0  0  0  0  0  0  0  0
   -1.2606    4.5468   -3.9501 H   0  0  0  0  0  0  0  0  0  0  0  0
   -2.6787    6.5529   -4.1739 H   0  0  0  0  0  0  0  0  0  0  0  0
   -1.0072    6.8867   -4.5565 H   0  0  0  0  0  0  0  0  0  0  0  0
   -3.7283    7.7711   -2.4160 H   0  0  0  0  0  0  0  0  0  0  0  0
   -2.7821    8.6493   -1.2297 H   0  0  0  0  0  0  0  0  0  0  0  0
   -2.7897    6.8754   -1.2058 H   0  0  0  0  0  0  0  0  0  0  0  0
   -0.3793    8.5289   -1.2558 H   0  0  0  0  0  0  0  0  0  0  0  0
    0.4082    8.1394   -2.7659 H   0  0  0  0  0  0  0  0  0  0  0  0
   -0.5706    6.1334   -0.6704 H   0  0  0  0  0  0  0  0  0  0  0  0
    1.0949    6.5379   -1.0885 H   0  0  0  0  0  0  0  0  0  0  0  0
  1  2  1  0  0  0  0
  1 49  1  0  0  0  0
  1 50  1  0  0  0  0
  1 51  1  0  0  0  0
  2  3  1  0  0  0  0
  3  4  1  0  0  0  0
  3 37  2  0  0  0  0
  4  5  2  0  0  0  0
  4 52  1  0  0  0  0
  5  6  1  0  0  0  0
  5 35  1  0  0  0  0
  6  7  1  0  0  0  0
  6 32  2  0  0  0  0
  7  8  1  0  0  0  0
  8  9  1  0  0  0  0
  8 30  2  0  0  0  0
  9 10  2  0  0  0  0
  9 53  1  0  0  0  0
 10 11  1  0  0  0  0
 10 54  1  0  0  0  0
 11 12  1  0  0  0  0
 11 29  2  0  0  0  0
 12 13  1  0  0  0  0
 12 55  1  0  0  0  0
 13 14  2  0  0  0  0
 13 15  1  0  0  0  0
 15 16  2  0  0  0  0
 15 27  1  0  0  0  0
 16 17  1  0  0  0  0
 17 18  1  0  0  0  0
 17 25  1  0  0  0  0
 18 19  1  0  0  0  0
 18 23  2  0  0  0  0
 19 20  2  0  0  0  0
 19 56  1  0  0  0  0
 20 21  1  0  0  0  0
 20 57  1  0  0  0  0
 21 22  2  0  0  0  0
 21 58  1  0  0  0  0
 22 23  1  0  0  0  0
 22 59  1  0  0  0  0
 23 24  1  0  0  0  0
 25 26  2  0  0  0  0
 25 27  1  0  0  0  0
 27 28  1  0  0  0  0
 28 60  1  0  0  0  0
 28 61  1  0  0  0  0
 28 62  1  0  0  0  0
 29 30  1  0  0  0  0
 29 63  1  0  0  0  0
 30 31  1  0  0  0  0
 32 33  1  0  0  0  0
 32 64  1  0  0  0  0
 33 34  2  0  0  0  0
 33 65  1  0  0  0  0
 34 35  1  0  0  0  0
 35 36  2  0  0  0  0
 36 37  1  0  0  0  0
 36 66  1  0  0  0  0
 37 38  1  0  0  0  0
 38 39  1  0  0  0  0
 39 40  1  0  0  0  0
 39 67  1  0  0  0  0
 39 68  1  0  0  0  0
 40 41  1  0  0  0  0
 40 69  1  0  0  0  0
 40 70  1  0  0  0  0
 41 42  1  0  0  0  0
 41 71  1  0  0  0  0
 41 72  1  0  0  0  0
 42 43  1  0  0  0  0
 42 48  1  0  0  0  0
 43 44  1  0  0  0  0
 43 73  1  0  0  0  0
 43 74  1  0  0  0  0
 44 45  1  0  0  0  0
 44 75  1  0  0  0  0
 44 76  1  0  0  0  0
 45 46  1  0  0  0  0
 45 47  1  0  0  0  0
 46 77  1  0  0  0  0
 46 78  1  0  0  0  0
 46 79  1  0  0  0  0
 47 48  1  0  0  0  0
 47 80  1  0  0  0  0
 47 81  1  0  0  0  0
 48 82  1  0  0  0  0
 48 83  1  0  0  0  0
M  END
$$$$
