CHEMBL3690499
 OpenBabel04072215373D

 47 50  0  0  0  0  0  0  0  0999 V2000
    2.8887   -0.8996    2.3160 C   0  0  0  0  0  0  0  0  0  0  0  0
    3.3253   -0.3127    1.0125 C   0  0  0  0  0  0  0  0  0  0  0  0
    3.0512   -0.9290   -0.1893 C   0  0  0  0  0  0  0  0  0  0  0  0
    3.4496   -0.3841   -1.3521 N   0  0  0  0  0  0  0  0  0  0  0  0
    4.1429    0.7846   -1.3152 N   0  0  0  0  0  0  0  0  0  0  0  0
    4.4093    1.3589   -0.1205 C   0  0  0  0  0  0  0  0  0  0  0  0
    5.2499    2.5793   -0.1115 C   0  0  0  0  0  0  0  0  0  0  0  0
    5.5772    3.3683   -1.3241 C   0  0  0  0  0  0  0  0  0  0  0  0
    6.1687    4.5780   -1.1970 C   0  0  0  0  0  0  0  0  0  0  0  0
    6.6484    4.9532    0.0773 N   0  0  0  0  0  0  0  0  0  0  0  0
    7.5916    5.9166    0.4568 C   0  0  0  0  0  0  0  0  0  0  0  0
    7.3770    7.0220    1.4533 C   0  0  0  0  0  0  0  0  0  0  0  0
    8.5254    7.4845    2.1343 C   0  0  0  0  0  0  0  0  0  0  0  0
    8.4429    8.3173    3.2419 C   0  0  0  0  0  0  0  0  0  0  0  0
    7.1962    8.7299    3.6894 C   0  0  0  0  0  0  0  0  0  0  0  0
    6.0224    8.3032    3.0547 C   0  0  0  0  0  0  0  0  0  0  0  0
    4.7446    8.6880    3.5653 N   0  0  0  0  0  0  0  0  0  0  0  0
    4.5193    9.1830    4.8298 C   0  0  0  0  0  0  0  0  0  0  0  0
    5.3154    9.2830    5.7564 O   0  0  0  0  0  0  0  0  0  0  0  0
    3.2018    9.5662    5.0118 N   0  0  0  0  0  0  0  0  0  0  0  0
    2.8323   10.1849    6.3000 C   0  0  0  0  0  0  0  0  0  0  0  0
    3.1829   11.6748    6.4522 C   0  0  0  0  0  0  0  0  0  0  0  0
    3.5352   12.2317    5.2708 F   0  0  0  0  0  0  0  0  0  0  0  0
    2.0962   12.3554    6.8954 F   0  0  0  0  0  0  0  0  0  0  0  0
    4.1750   11.8859    7.3370 F   0  0  0  0  0  0  0  0  0  0  0  0
    6.1232    7.4689    1.9062 C   0  0  0  0  0  0  0  0  0  0  0  0
    8.6231    4.9828    0.6730 C   0  0  0  0  0  0  0  0  0  0  0  0
    8.0850    3.8789    1.3062 N   0  0  0  0  0  0  0  0  0  0  0  0
    6.7938    3.9571    1.0348 C   0  0  0  0  0  0  0  0  0  0  0  0
    5.8075    2.9470    1.0670 C   0  0  0  0  0  0  0  0  0  0  0  0
    4.0090    0.8481    1.0641 N   0  0  0  0  0  0  0  0  0  0  0  0
    2.3388   -1.8363    2.1751 H   0  0  0  0  0  0  0  0  0  0  0  0
    2.2303   -0.1962    2.8378 H   0  0  0  0  0  0  0  0  0  0  0  0
    3.7585   -1.1034    2.9461 H   0  0  0  0  0  0  0  0  0  0  0  0
    2.5120   -1.8637   -0.2637 H   0  0  0  0  0  0  0  0  0  0  0  0
    5.3703    2.9318   -2.2984 H   0  0  0  0  0  0  0  0  0  0  0  0
    6.4614    5.1886   -2.0430 H   0  0  0  0  0  0  0  0  0  0  0  0
    9.5193    7.1426    1.8549 H   0  0  0  0  0  0  0  0  0  0  0  0
    9.3333    8.6018    3.7843 H   0  0  0  0  0  0  0  0  0  0  0  0
    7.1716    9.3840    4.5496 H   0  0  0  0  0  0  0  0  0  0  0  0
    3.9360    8.3657    3.0545 H   0  0  0  0  0  0  0  0  0  0  0  0
    2.7493    9.9482    4.1919 H   0  0  0  0  0  0  0  0  0  0  0  0
    3.3070    9.6209    7.1128 H   0  0  0  0  0  0  0  0  0  0  0  0
    1.7515   10.0489    6.4038 H   0  0  0  0  0  0  0  0  0  0  0  0
    5.2124    7.1233    1.4170 H   0  0  0  0  0  0  0  0  0  0  0  0
    9.6855    5.1767    0.7307 H   0  0  0  0  0  0  0  0  0  0  0  0
    5.6249    2.4507    2.0099 H   0  0  0  0  0  0  0  0  0  0  0  0
  1  2  1  0  0  0  0
  1 32  1  0  0  0  0
  1 33  1  0  0  0  0
  1 34  1  0  0  0  0
  2  3  1  0  0  0  0
  2 31  2  0  0  0  0
  3  4  2  0  0  0  0
  3 35  1  0  0  0  0
  4  5  1  0  0  0  0
  5  6  2  0  0  0  0
  6  7  1  0  0  0  0
  6 31  1  0  0  0  0
  7  8  1  0  0  0  0
  7 30  2  0  0  0  0
  8  9  2  0  0  0  0
  8 36  1  0  0  0  0
  9 10  1  0  0  0  0
  9 37  1  0  0  0  0
 10 11  1  0  0  0  0
 10 29  1  0  0  0  0
 11 12  1  0  0  0  0
 11 27  2  0  0  0  0
 12 13  1  0  0  0  0
 12 26  2  0  0  0  0
 13 14  2  0  0  0  0
 13 38  1  0  0  0  0
 14 15  1  0  0  0  0
 14 39  1  0  0  0  0
 15 16  2  0  0  0  0
 15 40  1  0  0  0  0
 16 17  1  0  0  0  0
 16 26  1  0  0  0  0
 17 18  1  0  0  0  0
 17 41  1  0  0  0  0
 18 19  2  0  0  0  0
 18 20  1  0  0  0  0
 20 21  1  0  0  0  0
 20 42  1  0  0  0  0
 21 22  1  0  0  0  0
 21 43  1  0  0  0  0
 21 44  1  0  0  0  0
 22 23  1  0  0  0  0
 22 24  1  0  0  0  0
 22 25  1  0  0  0  0
 26 45  1  0  0  0  0
 27 28  1  0  0  0  0
 27 46  1  0  0  0  0
 28 29  2  0  0  0  0
 29 30  1  0  0  0  0
 30 47  1  0  0  0  0
M  END
$$$$
