CHEMBL256043
 OpenBabel04072215363D

 46 49  0  0  0  0  0  0  0  0999 V2000
    1.7801   -0.7081    1.0068 C   0  0  0  0  0  0  0  0  0  0  0  0
    2.9124   -0.4716    0.1739 O   0  0  0  0  0  0  0  0  0  0  0  0
    3.3848    0.8161    0.1555 C   0  0  0  0  0  0  0  0  0  0  0  0
    2.8394    1.8720    0.8909 C   0  0  0  0  0  0  0  0  0  0  0  0
    3.3853    3.1397    0.7948 C   0  0  0  0  0  0  0  0  0  0  0  0
    4.4897    3.3563   -0.0235 C   0  0  0  0  0  0  0  0  0  0  0  0
    5.0999    2.3032   -0.7190 C   0  0  0  0  0  0  0  0  0  0  0  0
    6.3140    2.4846   -1.4496 N   0  0  0  0  0  0  0  0  0  0  0  0
    7.1801    3.5328   -1.2032 C   0  0  0  0  0  0  0  0  0  0  0  0
    6.9754    4.3843   -0.3439 O   0  0  0  0  0  0  0  0  0  0  0  0
    8.3090    3.5369   -2.0060 N   0  0  0  0  0  0  0  0  0  0  0  0
    9.3458    4.5001   -1.8631 C   0  0  0  0  0  0  0  0  0  0  0  0
    9.4967    5.2790   -0.7151 C   0  0  0  0  0  0  0  0  0  0  0  0
   10.3760    6.3612   -0.6746 C   0  0  0  0  0  0  0  0  0  0  0  0
   11.2161    6.6570   -1.7517 C   0  0  0  0  0  0  0  0  0  0  0  0
   12.0446    7.8812   -1.7400 C   0  0  0  0  0  0  0  0  0  0  0  0
   12.5888    8.3943   -0.5390 C   0  0  0  0  0  0  0  0  0  0  0  0
   13.3232    9.5722   -0.5366 C   0  0  0  0  0  0  0  0  0  0  0  0
   13.6026   10.3132   -1.6235 N   0  0  0  0  0  0  0  0  0  0  0  0
   13.0676    9.8060   -2.7490 C   0  0  0  0  0  0  0  0  0  0  0  0
   13.1948   10.3598   -3.9862 N   0  0  0  0  0  0  0  0  0  0  0  0
   12.5433    9.7001   -4.9516 N   0  0  0  0  0  0  0  0  0  0  0  0
   11.9712    8.6856   -4.3018 C   0  0  0  0  0  0  0  0  0  0  0  0
   11.1733    7.8272   -4.9565 N   0  0  0  0  0  0  0  0  0  0  0  0
   12.2924    8.6600   -2.9049 C   0  0  0  0  0  0  0  0  0  0  0  0
   11.1990    5.7411   -2.8172 C   0  0  0  0  0  0  0  0  0  0  0  0
   10.2447    4.7102   -2.9066 C   0  0  0  0  0  0  0  0  0  0  0  0
    4.5125    1.0389   -0.6557 C   0  0  0  0  0  0  0  0  0  0  0  0
    1.5419   -1.7743    0.9642 H   0  0  0  0  0  0  0  0  0  0  0  0
    0.9058   -0.1541    0.6458 H   0  0  0  0  0  0  0  0  0  0  0  0
    1.9954   -0.4614    2.0528 H   0  0  0  0  0  0  0  0  0  0  0  0
    1.9873    1.7443    1.5505 H   0  0  0  0  0  0  0  0  0  0  0  0
    2.9723    3.9692    1.3639 H   0  0  0  0  0  0  0  0  0  0  0  0
    4.8569    4.3759   -0.0790 H   0  0  0  0  0  0  0  0  0  0  0  0
    6.6820    1.6780   -1.9318 H   0  0  0  0  0  0  0  0  0  0  0  0
    8.2570    3.0351   -2.8808 H   0  0  0  0  0  0  0  0  0  0  0  0
    8.9091    5.1045    0.1809 H   0  0  0  0  0  0  0  0  0  0  0  0
   10.3526    6.9829    0.2182 H   0  0  0  0  0  0  0  0  0  0  0  0
   12.4409    7.8831    0.4085 H   0  0  0  0  0  0  0  0  0  0  0  0
   13.7227    9.9649    0.3960 H   0  0  0  0  0  0  0  0  0  0  0  0
   13.7084   11.1994   -4.2196 H   0  0  0  0  0  0  0  0  0  0  0  0
   10.9459    8.0868   -5.9108 H   0  0  0  0  0  0  0  0  0  0  0  0
   10.3857    7.4191   -4.4660 H   0  0  0  0  0  0  0  0  0  0  0  0
   11.9090    5.8499   -3.6353 H   0  0  0  0  0  0  0  0  0  0  0  0
   10.2055    4.1158   -3.8141 H   0  0  0  0  0  0  0  0  0  0  0  0
    4.9365    0.1973   -1.1981 H   0  0  0  0  0  0  0  0  0  0  0  0
  1  2  1  0  0  0  0
  1 29  1  0  0  0  0
  1 30  1  0  0  0  0
  1 31  1  0  0  0  0
  2  3  1  0  0  0  0
  3  4  1  0  0  0  0
  3 28  2  0  0  0  0
  4  5  2  0  0  0  0
  4 32  1  0  0  0  0
  5  6  1  0  0  0  0
  5 33  1  0  0  0  0
  6  7  2  0  0  0  0
  6 34  1  0  0  0  0
  7  8  1  0  0  0  0
  7 28  1  0  0  0  0
  8  9  1  0  0  0  0
  8 35  1  0  0  0  0
  9 10  2  0  0  0  0
  9 11  1  0  0  0  0
 11 12  1  0  0  0  0
 11 36  1  0  0  0  0
 12 13  1  0  0  0  0
 12 27  2  0  0  0  0
 13 14  2  0  0  0  0
 13 37  1  0  0  0  0
 14 15  1  0  0  0  0
 14 38  1  0  0  0  0
 15 16  1  0  0  0  0
 15 26  2  0  0  0  0
 16 17  1  0  0  0  0
 16 25  2  0  0  0  0
 17 18  2  0  0  0  0
 17 39  1  0  0  0  0
 18 19  1  0  0  0  0
 18 40  1  0  0  0  0
 19 20  2  0  0  0  0
 20 21  1  0  0  0  0
 20 25  1  0  0  0  0
 21 22  1  0  0  0  0
 21 41  1  0  0  0  0
 22 23  2  0  0  0  0
 23 24  1  0  0  0  0
 23 25  1  0  0  0  0
 24 42  1  0  0  0  0
 24 43  1  0  0  0  0
 26 27  1  0  0  0  0
 26 44  1  0  0  0  0
 27 45  1  0  0  0  0
 28 46  1  0  0  0  0
M  END
$$$$
