CHEMBL3901119
 OpenBabel04072215373D

 68 72  0  0  1  0  0  0  0  0999 V2000
    0.3626    4.1500    1.1402 C   0  0  0  0  0  0  0  0  0  0  0  0
    1.7588    4.4722    1.2244 O   0  0  0  0  0  0  0  0  0  0  0  0
    2.6524    3.4237    1.1648 C   0  0  0  0  0  0  0  0  0  0  0  0
    2.2777    2.0796    1.2180 C   0  0  0  0  0  0  0  0  0  0  0  0
    3.2449    1.0885    1.0929 C   0  0  0  0  0  0  0  0  0  0  0  0
    3.0054   -0.2610    1.0982 O   0  0  0  0  0  0  0  0  0  0  0  0
    1.6607   -0.6845    1.2980 C   0  0  0  0  0  0  0  0  0  0  0  0
    4.5915    1.4459    0.9102 C   0  0  0  0  0  0  0  0  0  0  0  0
    5.0097    2.7843    0.8238 C   0  0  0  0  0  0  0  0  0  0  0  0
    6.3139    3.1565    0.3828 N   0  0  0  0  0  0  0  0  0  0  0  0
    6.8462    2.2872   -0.7721 C   0  0  0  0  0  0  0  0  0  0  0  0
    7.1661    2.9959   -2.1458 C   0  0  3  0  0  0  0  0  0  0  0  0
    5.9228    3.4651   -2.9371 C   0  0  0  0  0  0  0  0  0  0  0  0
    5.3207    2.4274   -3.7183 O   0  0  0  0  0  0  0  0  0  0  0  0
    6.2571    1.8946   -4.6641 C   0  0  0  0  0  0  0  0  0  0  0  0
    7.4607    1.2478   -3.9385 C   0  0  0  0  0  0  0  0  0  0  0  0
    7.0063   -0.0047   -3.1713 C   0  0  0  0  0  0  0  0  0  0  0  0
    8.4922    0.7945   -4.9950 C   0  0  0  0  0  0  0  0  0  0  0  0
    8.1202    2.2149   -3.0148 N   0  0  0  0  0  0  0  0  0  0  0  0
    7.4132    3.6693    1.1591 C   0  0  0  0  0  0  0  0  0  0  0  0
    8.2189    4.5733    0.4836 C   0  0  0  0  0  0  0  0  0  0  0  0
    9.5548    4.6713    0.8021 C   0  0  0  0  0  0  0  0  0  0  0  0
   10.0948    4.0752    1.9003 C   0  0  0  0  0  0  0  0  0  0  0  0
   11.4239    4.1167    1.9557 N   0  0  0  0  0  0  0  0  0  0  0  0
   11.9876    3.7448    3.1066 C   0  0  0  0  0  0  0  0  0  0  0  0
   11.2386    3.4438    4.2246 C   0  0  0  0  0  0  0  0  0  0  0  0
   11.9738    3.5381    5.4891 C   0  0  0  0  0  0  0  0  0  0  0  0
   12.0690    4.6377    6.3879 C   0  0  0  0  0  0  0  0  0  0  0  0
   13.0569    4.5044    7.2834 N   0  0  0  0  0  0  0  0  0  0  0  0
   13.6178    3.3286    6.9571 N   0  0  0  0  0  0  0  0  0  0  0  0
   14.5810    2.7067    7.8373 C   0  0  0  0  0  0  0  0  0  0  0  0
   13.1105    2.8019    5.7986 C   0  0  0  0  0  0  0  0  0  0  0  0
    9.8684    3.2726    4.1378 N   0  0  0  0  0  0  0  0  0  0  0  0
    9.2525    3.5191    2.8969 C   0  0  0  0  0  0  0  0  0  0  0  0
    7.8885    3.2533    2.4417 C   0  0  0  0  0  0  0  0  0  0  0  0
    4.0112    3.7681    1.0085 C   0  0  0  0  0  0  0  0  0  0  0  0
   -0.1955    5.0796    1.0046 H   0  0  0  0  0  0  0  0  0  0  0  0
    0.0160    3.6826    2.0679 H   0  0  0  0  0  0  0  0  0  0  0  0
    0.1437    3.5109    0.2769 H   0  0  0  0  0  0  0  0  0  0  0  0
    1.2380    1.8080    1.3426 H   0  0  0  0  0  0  0  0  0  0  0  0
    1.6573   -1.7776    1.3508 H   0  0  0  0  0  0  0  0  0  0  0  0
    1.0233   -0.3898    0.4570 H   0  0  0  0  0  0  0  0  0  0  0  0
    1.2614   -0.3081    2.2457 H   0  0  0  0  0  0  0  0  0  0  0  0
    5.3107    0.6420    0.7879 H   0  0  0  0  0  0  0  0  0  0  0  0
    6.1379    1.4910   -0.9960 H   0  0  0  0  0  0  0  0  0  0  0  0
    7.7587    1.7865   -0.4214 H   0  0  0  0  0  0  0  0  0  0  0  0
    7.7220    3.9040   -1.9254 H   0  0  0  0  0  0  0  0  0  0  0  0
    6.2075    4.2758   -3.6200 H   0  0  0  0  0  0  0  0  0  0  0  0
    5.1603    3.8728   -2.2681 H   0  0  0  0  0  0  0  0  0  0  0  0
    6.5785    2.6911   -5.3490 H   0  0  0  0  0  0  0  0  0  0  0  0
    5.7289    1.1495   -5.2700 H   0  0  0  0  0  0  0  0  0  0  0  0
    6.7443   -0.8132   -3.8633 H   0  0  0  0  0  0  0  0  0  0  0  0
    6.1159    0.1784   -2.5682 H   0  0  0  0  0  0  0  0  0  0  0  0
    7.8011   -0.3778   -2.5161 H   0  0  0  0  0  0  0  0  0  0  0  0
    8.0649    0.0307   -5.6580 H   0  0  0  0  0  0  0  0  0  0  0  0
    9.3815    0.3552   -4.5277 H   0  0  0  0  0  0  0  0  0  0  0  0
    8.8215    1.6238   -5.6316 H   0  0  0  0  0  0  0  0  0  0  0  0
    8.6116    2.8968   -3.5993 H   0  0  0  0  0  0  0  0  0  0  0  0
    7.8547    5.1067   -0.3847 H   0  0  0  0  0  0  0  0  0  0  0  0
   10.2120    5.2319    0.1435 H   0  0  0  0  0  0  0  0  0  0  0  0
   13.0709    3.7756    3.1151 H   0  0  0  0  0  0  0  0  0  0  0  0
   11.4936    5.5551    6.3999 H   0  0  0  0  0  0  0  0  0  0  0  0
   14.7460    3.3356    8.7172 H   0  0  0  0  0  0  0  0  0  0  0  0
   15.5220    2.5527    7.3036 H   0  0  0  0  0  0  0  0  0  0  0  0
   14.1606    1.7474    8.1514 H   0  0  0  0  0  0  0  0  0  0  0  0
   13.5903    1.9612    5.3172 H   0  0  0  0  0  0  0  0  0  0  0  0
    7.2405    2.6679    3.0933 H   0  0  0  0  0  0  0  0  0  0  0  0
    4.2756    4.8215    0.9361 H   0  0  0  0  0  0  0  0  0  0  0  0
  1  2  1  0  0  0  0
  1 37  1  0  0  0  0
  1 38  1  0  0  0  0
  1 39  1  0  0  0  0
  2  3  1  0  0  0  0
  3  4  1  0  0  0  0
  3 36  2  0  0  0  0
  4  5  2  0  0  0  0
  4 40  1  0  0  0  0
  5  6  1  0  0  0  0
  5  8  1  0  0  0  0
  6  7  1  0  0  0  0
  7 41  1  0  0  0  0
  7 42  1  0  0  0  0
  7 43  1  0  0  0  0
  8  9  2  0  0  0  0
  8 44  1  0  0  0  0
  9 10  1  0  0  0  0
  9 36  1  0  0  0  0
 10 11  1  0  0  0  0
 10 20  1  0  0  0  0
 11 12  1  0  0  0  0
 11 45  1  0  0  0  0
 11 46  1  0  0  0  0
 12 13  1  0  0  0  0
 12 19  1  0  0  0  0
 12 47  1  0  0  0  0
 13 14  1  0  0  0  0
 13 48  1  0  0  0  0
 13 49  1  0  0  0  0
 14 15  1  0  0  0  0
 15 16  1  0  0  0  0
 15 50  1  0  0  0  0
 15 51  1  0  0  0  0
 16 17  1  0  0  0  0
 16 18  1  0  0  0  0
 16 19  1  0  0  0  0
 17 52  1  0  0  0  0
 17 53  1  0  0  0  0
 17 54  1  0  0  0  0
 18 55  1  0  0  0  0
 18 56  1  0  0  0  0
 18 57  1  0  0  0  0
 19 58  1  0  0  0  0
 20 21  1  0  0  0  0
 20 35  2  0  0  0  0
 21 22  2  0  0  0  0
 21 59  1  0  0  0  0
 22 23  1  0  0  0  0
 22 60  1  0  0  0  0
 23 24  1  0  0  0  0
 23 34  2  0  0  0  0
 24 25  2  0  0  0  0
 25 26  1  0  0  0  0
 25 61  1  0  0  0  0
 26 27  1  0  0  0  0
 26 33  2  0  0  0  0
 27 28  1  0  0  0  0
 27 32  2  0  0  0  0
 28 29  2  0  0  0  0
 28 62  1  0  0  0  0
 29 30  1  0  0  0  0
 30 31  1  0  0  0  0
 30 32  1  0  0  0  0
 31 63  1  0  0  0  0
 31 64  1  0  0  0  0
 31 65  1  0  0  0  0
 32 66  1  0  0  0  0
 33 34  1  0  0  0  0
 34 35  1  0  0  0  0
 35 67  1  0  0  0  0
 36 68  1  0  0  0  0
M  END
$$$$
