CHEMBL205823
 OpenBabel04072215363D

 43 47  0  0  0  0  0  0  0  0999 V2000
   -0.6158   -2.4557    5.0077 Cl  0  0  0  0  0  0  0  0  0  0  0  0
   -1.5303   -2.2093    3.5615 C   0  0  0  0  0  0  0  0  0  0  0  0
   -2.4839   -1.1951    3.5598 C   0  0  0  0  0  0  0  0  0  0  0  0
   -3.2455   -0.9501    2.4125 C   0  0  0  0  0  0  0  0  0  0  0  0
   -3.0804   -1.7228    1.2521 C   0  0  0  0  0  0  0  0  0  0  0  0
   -3.7760   -1.4222    0.0596 N   0  0  0  0  0  0  0  0  0  0  0  0
   -5.0558   -0.8214   -0.0301 C   0  0  0  0  0  0  0  0  0  0  0  0
   -5.9644   -1.0799    0.9289 N   0  0  0  0  0  0  0  0  0  0  0  0
   -7.2001   -0.5010    0.8956 N   0  0  0  0  0  0  0  0  0  0  0  0
   -7.5125    0.4384   -0.0203 C   0  0  0  0  0  0  0  0  0  0  0  0
   -8.8813    1.0235    0.1501 C   0  0  0  0  0  0  0  0  0  0  0  0
   -9.6638    1.2921   -0.9972 C   0  0  0  0  0  0  0  0  0  0  0  0
  -10.8857    1.9550   -0.9305 C   0  0  0  0  0  0  0  0  0  0  0  0
  -11.4160    2.2896    0.3026 C   0  0  0  0  0  0  0  0  0  0  0  0
  -10.7451    1.9350    1.4807 C   0  0  0  0  0  0  0  0  0  0  0  0
  -11.3371    2.1887    2.7210 C   0  0  0  0  0  0  0  0  0  0  0  0
  -10.8005    1.8661    3.9172 N   0  0  0  0  0  0  0  0  0  0  0  0
   -9.5969    1.2750    3.8770 C   0  0  0  0  0  0  0  0  0  0  0  0
   -8.9045    1.0071    2.7030 C   0  0  0  0  0  0  0  0  0  0  0  0
   -9.4729    1.3102    1.4375 C   0  0  0  0  0  0  0  0  0  0  0  0
   -6.5880    0.7598   -1.0533 C   0  0  0  0  0  0  0  0  0  0  0  0
   -6.7823    1.7623   -2.0456 C   0  0  0  0  0  0  0  0  0  0  0  0
   -5.9063    1.9445   -3.1154 C   0  0  0  0  0  0  0  0  0  0  0  0
   -4.7581    1.1753   -3.1955 C   0  0  0  0  0  0  0  0  0  0  0  0
   -4.4753    0.2637   -2.1812 C   0  0  0  0  0  0  0  0  0  0  0  0
   -5.3640    0.0442   -1.0978 C   0  0  0  0  0  0  0  0  0  0  0  0
   -2.0991   -2.7188    1.2580 C   0  0  0  0  0  0  0  0  0  0  0  0
   -1.3355   -2.9739    2.4087 C   0  0  0  0  0  0  0  0  0  0  0  0
   -0.1605   -4.2397    2.3257 Cl  0  0  0  0  0  0  0  0  0  0  0  0
   -2.6399   -0.5794    4.4425 H   0  0  0  0  0  0  0  0  0  0  0  0
   -3.9634   -0.1344    2.4348 H   0  0  0  0  0  0  0  0  0  0  0  0
   -3.6750   -2.1194   -0.6700 H   0  0  0  0  0  0  0  0  0  0  0  0
   -9.3194    0.9867   -1.9835 H   0  0  0  0  0  0  0  0  0  0  0  0
  -11.4242    2.1994   -1.8431 H   0  0  0  0  0  0  0  0  0  0  0  0
  -12.3748    2.8018    0.3432 H   0  0  0  0  0  0  0  0  0  0  0  0
  -12.3111    2.6665    2.7922 H   0  0  0  0  0  0  0  0  0  0  0  0
   -9.1803    1.0007    4.8428 H   0  0  0  0  0  0  0  0  0  0  0  0
   -7.9362    0.5308    2.8051 H   0  0  0  0  0  0  0  0  0  0  0  0
   -7.6362    2.4353   -2.0011 H   0  0  0  0  0  0  0  0  0  0  0  0
   -6.1219    2.6905   -3.8755 H   0  0  0  0  0  0  0  0  0  0  0  0
   -4.0723    1.3040   -4.0285 H   0  0  0  0  0  0  0  0  0  0  0  0
   -3.5345   -0.2825   -2.2430 H   0  0  0  0  0  0  0  0  0  0  0  0
   -1.9220   -3.3116    0.3655 H   0  0  0  0  0  0  0  0  0  0  0  0
  1  2  1  0  0  0  0
  2  3  1  0  0  0  0
  2 28  2  0  0  0  0
  3  4  2  0  0  0  0
  3 30  1  0  0  0  0
  4  5  1  0  0  0  0
  4 31  1  0  0  0  0
  5  6  1  0  0  0  0
  5 27  2  0  0  0  0
  6  7  1  0  0  0  0
  6 32  1  0  0  0  0
  7  8  1  0  0  0  0
  7 26  2  0  0  0  0
  8  9  2  0  0  0  0
  9 10  1  0  0  0  0
 10 11  1  0  0  0  0
 10 21  2  0  0  0  0
 11 12  1  0  0  0  0
 11 20  2  0  0  0  0
 12 13  2  0  0  0  0
 12 33  1  0  0  0  0
 13 14  1  0  0  0  0
 13 34  1  0  0  0  0
 14 15  2  0  0  0  0
 14 35  1  0  0  0  0
 15 16  1  0  0  0  0
 15 20  1  0  0  0  0
 16 17  2  0  0  0  0
 16 36  1  0  0  0  0
 17 18  1  0  0  0  0
 18 19  2  0  0  0  0
 18 37  1  0  0  0  0
 19 20  1  0  0  0  0
 19 38  1  0  0  0  0
 21 22  1  0  0  0  0
 21 26  1  0  0  0  0
 22 23  2  0  0  0  0
 22 39  1  0  0  0  0
 23 24  1  0  0  0  0
 23 40  1  0  0  0  0
 24 25  2  0  0  0  0
 24 41  1  0  0  0  0
 25 26  1  0  0  0  0
 25 42  1  0  0  0  0
 27 28  1  0  0  0  0
 27 43  1  0  0  0  0
 28 29  1  0  0  0  0
M  END
$$$$
