CHEMBL495727
 OpenBabel04072215383D

 51 55  0  0  0  0  0  0  0  0999 V2000
    2.3608   -0.9350   -6.6641 O   0  0  0  0  0  0  0  0  0  0  0  0
    2.8526   -2.0084   -6.3331 C   0  0  0  0  0  0  0  0  0  0  0  0
    2.7787   -2.5759   -5.0786 N   0  0  0  0  0  0  0  0  0  0  0  0
    2.0998   -2.0343   -3.9948 C   0  0  0  0  0  0  0  0  0  0  0  0
    1.1889   -1.0110   -3.9705 C   0  0  0  0  0  0  0  0  0  0  0  0
    0.8143   -0.8627   -2.6692 N   0  0  0  0  0  0  0  0  0  0  0  0
    1.4174   -1.7225   -1.8206 N   0  0  0  0  0  0  0  0  0  0  0  0
    2.2203   -2.4279   -2.6315 C   0  0  0  0  0  0  0  0  0  0  0  0
    3.1824   -3.4548   -2.1337 C   0  0  0  0  0  0  0  0  0  0  0  0
    4.0342   -4.0828   -2.9194 N   0  0  0  0  0  0  0  0  0  0  0  0
    4.8245   -4.8126   -2.0800 C   0  0  0  0  0  0  0  0  0  0  0  0
    5.9469   -5.5838   -2.3845 C   0  0  0  0  0  0  0  0  0  0  0  0
    6.6136   -6.2434   -1.3494 C   0  0  0  0  0  0  0  0  0  0  0  0
    6.1712   -6.1665   -0.0166 C   0  0  0  0  0  0  0  0  0  0  0  0
    6.9715   -6.8956    1.0473 C   0  0  0  0  0  0  0  0  0  0  0  0
    6.6647   -8.2943    1.3377 N   0  0  0  0  0  0  0  0  0  0  0  0
    6.6612   -9.2575    0.2338 C   0  0  0  0  0  0  0  0  0  0  0  0
    5.2827   -9.5371   -0.3962 C   0  0  0  0  0  0  0  0  0  0  0  0
    4.2613   -9.7806    0.5792 O   0  0  0  0  0  0  0  0  0  0  0  0
    4.2027   -8.7461    1.5661 C   0  0  0  0  0  0  0  0  0  0  0  0
    5.5564   -8.5498    2.2556 C   0  0  0  0  0  0  0  0  0  0  0  0
    5.0584   -5.3567    0.3076 C   0  0  0  0  0  0  0  0  0  0  0  0
    4.4124   -4.6930   -0.7488 C   0  0  0  0  0  0  0  0  0  0  0  0
    3.3521   -3.8171   -0.8181 N   0  0  0  0  0  0  0  0  0  0  0  0
    3.5820   -2.7996   -7.2076 N   0  0  0  0  0  0  0  0  0  0  0  0
    3.8901   -2.4083   -8.5490 C   0  0  0  0  0  0  0  0  0  0  0  0
    4.0079   -3.4279   -9.6494 C   0  0  0  0  0  0  0  0  0  0  0  0
    5.2379   -2.7445   -9.1300 C   0  0  0  0  0  0  0  0  0  0  0  0
    3.3955   -3.3473   -4.8443 H   0  0  0  0  0  0  0  0  0  0  0  0
    0.7820   -0.3834   -4.7522 H   0  0  0  0  0  0  0  0  0  0  0  0
    0.1552   -0.1905   -2.2905 H   0  0  0  0  0  0  0  0  0  0  0  0
    6.2990   -5.6421   -3.4074 H   0  0  0  0  0  0  0  0  0  0  0  0
    7.5078   -6.8124   -1.5949 H   0  0  0  0  0  0  0  0  0  0  0  0
    6.9469   -6.3097    1.9756 H   0  0  0  0  0  0  0  0  0  0  0  0
    8.0291   -6.8507    0.7499 H   0  0  0  0  0  0  0  0  0  0  0  0
    7.0119  -10.2076    0.6599 H   0  0  0  0  0  0  0  0  0  0  0  0
    7.3955   -9.0047   -0.5389 H   0  0  0  0  0  0  0  0  0  0  0  0
    5.3533  -10.4514   -0.9972 H   0  0  0  0  0  0  0  0  0  0  0  0
    4.9649   -8.7334   -1.0672 H   0  0  0  0  0  0  0  0  0  0  0  0
    3.4698   -9.0660    2.3148 H   0  0  0  0  0  0  0  0  0  0  0  0
    3.8282   -7.8209    1.1187 H   0  0  0  0  0  0  0  0  0  0  0  0
    5.7977   -9.4864    2.7774 H   0  0  0  0  0  0  0  0  0  0  0  0
    5.4921   -7.7834    3.0352 H   0  0  0  0  0  0  0  0  0  0  0  0
    4.7319   -5.2315    1.3364 H   0  0  0  0  0  0  0  0  0  0  0  0
    2.8130   -3.4366   -0.0517 H   0  0  0  0  0  0  0  0  0  0  0  0
    3.8917   -3.7042   -6.8848 H   0  0  0  0  0  0  0  0  0  0  0  0
    3.4669   -1.4459   -8.8343 H   0  0  0  0  0  0  0  0  0  0  0  0
    3.6595   -3.1489  -10.6379 H   0  0  0  0  0  0  0  0  0  0  0  0
    3.8605   -4.4733   -9.4091 H   0  0  0  0  0  0  0  0  0  0  0  0
    5.7138   -2.0026   -9.7610 H   0  0  0  0  0  0  0  0  0  0  0  0
    5.9298   -3.3242   -8.5311 H   0  0  0  0  0  0  0  0  0  0  0  0
  1  2  2  0  0  0  0
  2  3  1  0  0  0  0
  2 25  1  0  0  0  0
  3  4  1  0  0  0  0
  3 29  1  0  0  0  0
  4  5  2  0  0  0  0
  4  8  1  0  0  0  0
  5  6  1  0  0  0  0
  5 30  1  0  0  0  0
  6  7  1  0  0  0  0
  6 31  1  0  0  0  0
  7  8  2  0  0  0  0
  8  9  1  0  0  0  0
  9 10  2  0  0  0  0
  9 24  1  0  0  0  0
 10 11  1  0  0  0  0
 11 12  1  0  0  0  0
 11 23  2  0  0  0  0
 12 13  2  0  0  0  0
 12 32  1  0  0  0  0
 13 14  1  0  0  0  0
 13 33  1  0  0  0  0
 14 15  1  0  0  0  0
 14 22  2  0  0  0  0
 15 16  1  0  0  0  0
 15 34  1  0  0  0  0
 15 35  1  0  0  0  0
 16 17  1  0  0  0  0
 16 21  1  0  0  0  0
 17 18  1  0  0  0  0
 17 36  1  0  0  0  0
 17 37  1  0  0  0  0
 18 19  1  0  0  0  0
 18 38  1  0  0  0  0
 18 39  1  0  0  0  0
 19 20  1  0  0  0  0
 20 21  1  0  0  0  0
 20 40  1  0  0  0  0
 20 41  1  0  0  0  0
 21 42  1  0  0  0  0
 21 43  1  0  0  0  0
 22 23  1  0  0  0  0
 22 44  1  0  0  0  0
 23 24  1  0  0  0  0
 24 45  1  0  0  0  0
 25 26  1  0  0  0  0
 25 46  1  0  0  0  0
 26 27  1  0  0  0  0
 26 28  1  0  0  0  0
 26 47  1  0  0  0  0
 27 28  1  0  0  0  0
 27 48  1  0  0  0  0
 27 49  1  0  0  0  0
 28 50  1  0  0  0  0
 28 51  1  0  0  0  0
M  END
$$$$
