CHEMBL388936
 OpenBabel04072215373D

 27 30  0  0  0  0  0  0  0  0999 V2000
    0.9925    0.1767   -0.0520 C   0  0  0  0  0  0  0  0  0  0  0  0
    2.4708    0.0654   -0.0532 C   0  0  0  0  0  0  0  0  0  0  0  0
    3.2658   -1.0587   -0.0524 C   0  0  0  0  0  0  0  0  0  0  0  0
    4.6224   -0.6420   -0.0532 C   0  0  0  0  0  0  0  0  0  0  0  0
    4.6244    0.7636   -0.0551 C   0  0  0  0  0  0  0  0  0  0  0  0
    5.8135    1.5173   -0.0562 C   0  0  0  0  0  0  0  0  0  0  0  0
    7.0211    0.8244   -0.0545 C   0  0  0  0  0  0  0  0  0  0  0  0
    6.9840   -0.5548   -0.0528 C   0  0  0  0  0  0  0  0  0  0  0  0
    8.2684   -1.0424   -0.0515 C   0  0  0  0  0  0  0  0  0  0  0  0
    8.5247   -2.4026   -0.0502 C   0  0  0  0  0  0  0  0  0  0  0  0
    7.3889   -3.2431   -0.0504 C   0  0  0  0  0  0  0  0  0  0  0  0
    6.0740   -2.7310   -0.0515 C   0  0  0  0  0  0  0  0  0  0  0  0
    5.8637   -1.3391   -0.0524 C   0  0  0  0  0  0  0  0  0  0  0  0
    9.1133    0.0545   -0.0526 N   0  0  0  0  0  0  0  0  0  0  0  0
    8.4008    1.2664   -0.0542 C   0  0  0  0  0  0  0  0  0  0  0  0
    8.9186    2.3766   -0.0555 O   0  0  0  0  0  0  0  0  0  0  0  0
    3.3030    1.1611   -0.0553 N   0  0  0  0  0  0  0  0  0  0  0  0
    0.5343   -0.8189   -0.0510 H   0  0  0  0  0  0  0  0  0  0  0  0
    0.6419    0.7061   -0.9427 H   0  0  0  0  0  0  0  0  0  0  0  0
    0.6433    0.7071    0.8386 H   0  0  0  0  0  0  0  0  0  0  0  0
    2.9102   -2.0806   -0.0507 H   0  0  0  0  0  0  0  0  0  0  0  0
    5.8095    2.6029   -0.0579 H   0  0  0  0  0  0  0  0  0  0  0  0
    9.5316   -2.7999   -0.0491 H   0  0  0  0  0  0  0  0  0  0  0  0
    7.5280   -4.3227   -0.0499 H   0  0  0  0  0  0  0  0  0  0  0  0
    5.2258   -3.4098   -0.0520 H   0  0  0  0  0  0  0  0  0  0  0  0
   10.1208    0.0205   -0.0514 H   0  0  0  0  0  0  0  0  0  0  0  0
    2.9964    2.1246   -0.0561 H   0  0  0  0  0  0  0  0  0  0  0  0
  1  2  1  0  0  0  0
  1 18  1  0  0  0  0
  1 19  1  0  0  0  0
  1 20  1  0  0  0  0
  2  3  2  0  0  0  0
  2 17  1  0  0  0  0
  3  4  1  0  0  0  0
  3 21  1  0  0  0  0
  4  5  1  0  0  0  0
  4 13  2  0  0  0  0
  5  6  2  0  0  0  0
  5 17  1  0  0  0  0
  6  7  1  0  0  0  0
  6 22  1  0  0  0  0
  7  8  2  0  0  0  0
  7 15  1  0  0  0  0
  8  9  1  0  0  0  0
  8 13  1  0  0  0  0
  9 10  2  0  0  0  0
  9 14  1  0  0  0  0
 10 11  1  0  0  0  0
 10 23  1  0  0  0  0
 11 12  2  0  0  0  0
 11 24  1  0  0  0  0
 12 13  1  0  0  0  0
 12 25  1  0  0  0  0
 14 15  1  0  0  0  0
 14 26  1  0  0  0  0
 15 16  2  0  0  0  0
 17 27  1  0  0  0  0
M  END
$$$$
