CHEMBL324335
 OpenBabel04072215363D

 51 55  0  0  0  0  0  0  0  0999 V2000
   -0.3548   -2.1063   -1.9401 C   0  0  0  0  0  0  0  0  0  0  0  0
    0.4049   -1.2505   -1.1725 C   0  0  0  0  0  0  0  0  0  0  0  0
    1.5549   -1.8931   -0.6172 C   0  0  0  0  0  0  0  0  0  0  0  0
    2.5278   -1.2075    0.2399 C   0  0  0  0  0  0  0  0  0  0  0  0
    2.4679    0.1373    0.6497 C   0  0  0  0  0  0  0  0  0  0  0  0
    3.4836    0.4883    1.4384 N   0  0  0  0  0  0  0  0  0  0  0  0
    4.2248   -0.6402    1.5495 N   0  0  0  0  0  0  0  0  0  0  0  0
    5.3925   -0.8032    2.2814 C   0  0  0  0  0  0  0  0  0  0  0  0
    6.0236   -1.9878    2.2955 C   0  0  0  0  0  0  0  0  0  0  0  0
    7.2459   -2.2134    3.0539 C   0  0  0  0  0  0  0  0  0  0  0  0
    7.1770   -2.6293    4.3870 C   0  0  0  0  0  0  0  0  0  0  0  0
    8.3477   -2.8204    5.1242 C   0  0  0  0  0  0  0  0  0  0  0  0
    9.5942   -2.6146    4.5276 C   0  0  0  0  0  0  0  0  0  0  0  0
   10.8004   -2.8018    5.1488 O   0  0  0  0  0  0  0  0  0  0  0  0
   10.7826   -3.7595    6.2149 C   0  0  0  0  0  0  0  0  0  0  0  0
   12.1872   -4.3628    6.3683 C   0  0  0  0  0  0  0  0  0  0  0  0
   12.3060   -5.3739    7.4376 N   0  0  0  0  0  0  0  0  0  0  0  0
   13.6868   -5.9131    7.5025 C   0  0  0  0  0  0  0  0  0  0  0  0
   14.0347   -6.8857    6.3579 C   0  0  0  0  0  0  0  0  0  0  0  0
   13.0913   -7.9617    6.2701 O   0  0  0  0  0  0  0  0  0  0  0  0
   11.7576   -7.4606    6.1209 C   0  0  0  0  0  0  0  0  0  0  0  0
   11.3911   -6.5290    7.2861 C   0  0  0  0  0  0  0  0  0  0  0  0
    9.6621   -2.1763    3.2052 C   0  0  0  0  0  0  0  0  0  0  0  0
    8.4924   -1.9789    2.4668 C   0  0  0  0  0  0  0  0  0  0  0  0
    5.3758   -3.0577    1.4780 C   0  0  0  0  0  0  0  0  0  0  0  0
    4.2804   -2.9386    0.7882 N   0  0  0  0  0  0  0  0  0  0  0  0
    3.6781   -1.7052    0.8198 C   0  0  0  0  0  0  0  0  0  0  0  0
    1.6150   -3.2206   -0.9894 C   0  0  0  0  0  0  0  0  0  0  0  0
    0.3075   -3.6814   -1.9937 S   0  0  0  0  0  0  0  0  0  0  0  0
   -1.2690   -1.8831   -2.4724 H   0  0  0  0  0  0  0  0  0  0  0  0
    0.1319   -0.2131   -1.0275 H   0  0  0  0  0  0  0  0  0  0  0  0
    1.7260    0.8883    0.4120 H   0  0  0  0  0  0  0  0  0  0  0  0
    5.7356    0.0696    2.8214 H   0  0  0  0  0  0  0  0  0  0  0  0
    6.2150   -2.8043    4.8647 H   0  0  0  0  0  0  0  0  0  0  0  0
    8.2586   -3.1222    6.1633 H   0  0  0  0  0  0  0  0  0  0  0  0
   10.0802   -4.5629    5.9728 H   0  0  0  0  0  0  0  0  0  0  0  0
   10.4782   -3.2617    7.1427 H   0  0  0  0  0  0  0  0  0  0  0  0
   12.8778   -3.5362    6.5866 H   0  0  0  0  0  0  0  0  0  0  0  0
   12.5029   -4.7533    5.3935 H   0  0  0  0  0  0  0  0  0  0  0  0
   13.7796   -6.4539    8.4533 H   0  0  0  0  0  0  0  0  0  0  0  0
   14.4186   -5.0977    7.5433 H   0  0  0  0  0  0  0  0  0  0  0  0
   15.0188   -7.3290    6.5397 H   0  0  0  0  0  0  0  0  0  0  0  0
   14.0817   -6.3740    5.3903 H   0  0  0  0  0  0  0  0  0  0  0  0
   11.0813   -8.3214    6.1127 H   0  0  0  0  0  0  0  0  0  0  0  0
   11.6626   -6.9598    5.1508 H   0  0  0  0  0  0  0  0  0  0  0  0
   11.4424   -7.1063    8.2180 H   0  0  0  0  0  0  0  0  0  0  0  0
   10.3471   -6.2102    7.2086 H   0  0  0  0  0  0  0  0  0  0  0  0
   10.6295   -1.9979    2.7430 H   0  0  0  0  0  0  0  0  0  0  0  0
    8.5675   -1.6444    1.4343 H   0  0  0  0  0  0  0  0  0  0  0  0
    5.8945   -4.0316    1.4767 H   0  0  0  0  0  0  0  0  0  0  0  0
    2.3646   -3.9558   -0.7228 H   0  0  0  0  0  0  0  0  0  0  0  0
  1  2  2  0  0  0  0
  1 29  1  0  0  0  0
  1 30  1  0  0  0  0
  2  3  1  0  0  0  0
  2 31  1  0  0  0  0
  3  4  1  0  0  0  0
  3 28  2  0  0  0  0
  4  5  1  0  0  0  0
  4 27  2  0  0  0  0
  5  6  2  0  0  0  0
  5 32  1  0  0  0  0
  6  7  1  0  0  0  0
  7  8  1  0  0  0  0
  7 27  1  0  0  0  0
  8  9  2  0  0  0  0
  8 33  1  0  0  0  0
  9 10  1  0  0  0  0
  9 25  1  0  0  0  0
 10 11  1  0  0  0  0
 10 24  2  0  0  0  0
 11 12  2  0  0  0  0
 11 34  1  0  0  0  0
 12 13  1  0  0  0  0
 12 35  1  0  0  0  0
 13 14  1  0  0  0  0
 13 23  2  0  0  0  0
 14 15  1  0  0  0  0
 15 16  1  0  0  0  0
 15 36  1  0  0  0  0
 15 37  1  0  0  0  0
 16 17  1  0  0  0  0
 16 38  1  0  0  0  0
 16 39  1  0  0  0  0
 17 18  1  0  0  0  0
 17 22  1  0  0  0  0
 18 19  1  0  0  0  0
 18 40  1  0  0  0  0
 18 41  1  0  0  0  0
 19 20  1  0  0  0  0
 19 42  1  0  0  0  0
 19 43  1  0  0  0  0
 20 21  1  0  0  0  0
 21 22  1  0  0  0  0
 21 44  1  0  0  0  0
 21 45  1  0  0  0  0
 22 46  1  0  0  0  0
 22 47  1  0  0  0  0
 23 24  1  0  0  0  0
 23 48  1  0  0  0  0
 24 49  1  0  0  0  0
 25 26  2  0  0  0  0
 25 50  1  0  0  0  0
 26 27  1  0  0  0  0
 28 29  1  0  0  0  0
 28 51  1  0  0  0  0
M  END
$$$$
