CHEMBL221736
 OpenBabel04072215363D

 32 35  0  0  0  0  0  0  0  0999 V2000
   -3.2397    0.6552   -0.1400 O   0  0  0  0  0  0  0  0  0  0  0  0
   -2.0986    0.1968   -0.0933 C   0  0  0  0  0  0  0  0  0  0  0  0
   -1.0116    1.0343   -0.0681 N   0  0  0  0  0  0  0  0  0  0  0  0
    0.3139    0.5873   -0.0412 C   0  0  0  0  0  0  0  0  0  0  0  0
    1.3640    1.5040   -0.0146 C   0  0  0  0  0  0  0  0  0  0  0  0
    2.6809    1.0408    0.0063 C   0  0  0  0  0  0  0  0  0  0  0  0
    2.9440   -0.3304   -0.0019 C   0  0  0  0  0  0  0  0  0  0  0  0
    1.8897   -1.2446   -0.0261 C   0  0  0  0  0  0  0  0  0  0  0  0
    0.5693   -0.7865   -0.0439 C   0  0  0  0  0  0  0  0  0  0  0  0
   -0.5545   -1.7191   -0.0451 C   0  0  0  0  0  0  0  0  0  0  0  0
   -1.8319   -1.2930   -0.0552 C   0  0  0  0  0  0  0  0  0  0  0  0
   -2.8819   -2.2622   -0.0005 C   0  0  0  0  0  0  0  0  0  0  0  0
   -2.9106   -3.6405    0.1178 C   0  0  0  0  0  0  0  0  0  0  0  0
   -4.2635   -4.0642    0.1787 C   0  0  0  0  0  0  0  0  0  0  0  0
   -4.8857   -5.3176    0.3277 C   0  0  0  0  0  0  0  0  0  0  0  0
   -6.2818   -5.3861    0.3602 C   0  0  0  0  0  0  0  0  0  0  0  0
   -7.0510   -4.2304    0.2398 C   0  0  0  0  0  0  0  0  0  0  0  0
   -6.4526   -2.9744    0.0890 C   0  0  0  0  0  0  0  0  0  0  0  0
   -5.0537   -2.9232    0.0675 C   0  0  0  0  0  0  0  0  0  0  0  0
   -4.1983   -1.8494   -0.0474 N   0  0  0  0  0  0  0  0  0  0  0  0
   -1.2155    2.0235   -0.0805 H   0  0  0  0  0  0  0  0  0  0  0  0
    1.1743    2.5729   -0.0066 H   0  0  0  0  0  0  0  0  0  0  0  0
    3.5066    1.7484    0.0298 H   0  0  0  0  0  0  0  0  0  0  0  0
    3.9706   -0.6883    0.0139 H   0  0  0  0  0  0  0  0  0  0  0  0
    2.1088   -2.3093   -0.0278 H   0  0  0  0  0  0  0  0  0  0  0  0
   -0.3042   -2.7738   -0.0181 H   0  0  0  0  0  0  0  0  0  0  0  0
   -2.0498   -4.2922    0.1809 H   0  0  0  0  0  0  0  0  0  0  0  0
   -4.2894   -6.2199    0.4236 H   0  0  0  0  0  0  0  0  0  0  0  0
   -6.7674   -6.3512    0.4827 H   0  0  0  0  0  0  0  0  0  0  0  0
   -8.1358   -4.3054    0.2667 H   0  0  0  0  0  0  0  0  0  0  0  0
   -7.0552   -2.0767   -0.0011 H   0  0  0  0  0  0  0  0  0  0  0  0
   -4.4899   -0.8800   -0.1285 H   0  0  0  0  0  0  0  0  0  0  0  0
  1  2  2  0  0  0  0
  2  3  1  0  0  0  0
  2 11  1  0  0  0  0
  3  4  1  0  0  0  0
  3 21  1  0  0  0  0
  4  5  1  0  0  0  0
  4  9  2  0  0  0  0
  5  6  2  0  0  0  0
  5 22  1  0  0  0  0
  6  7  1  0  0  0  0
  6 23  1  0  0  0  0
  7  8  2  0  0  0  0
  7 24  1  0  0  0  0
  8  9  1  0  0  0  0
  8 25  1  0  0  0  0
  9 10  1  0  0  0  0
 10 11  2  0  0  0  0
 10 26  1  0  0  0  0
 11 12  1  0  0  0  0
 12 13  2  0  0  0  0
 12 20  1  0  0  0  0
 13 14  1  0  0  0  0
 13 27  1  0  0  0  0
 14 15  1  0  0  0  0
 14 19  2  0  0  0  0
 15 16  2  0  0  0  0
 15 28  1  0  0  0  0
 16 17  1  0  0  0  0
 16 29  1  0  0  0  0
 17 18  2  0  0  0  0
 17 30  1  0  0  0  0
 18 19  1  0  0  0  0
 18 31  1  0  0  0  0
 19 20  1  0  0  0  0
 20 32  1  0  0  0  0
M  END
$$$$
