CHEMBL3648076
 OpenBabel04072215373D

 54 56  0  0  1  0  0  0  0  0999 V2000
    3.9471    0.4497    0.3485 C   0  0  0  0  0  0  0  0  0  0  0  0
    4.1718   -0.4636   -0.8751 C   0  0  1  0  0  0  0  0  0  0  0  0
    2.8386   -0.9138   -1.3140 N   0  0  0  0  0  0  0  0  0  0  0  0
    2.5491   -2.2894   -1.4058 C   0  0  0  0  0  0  0  0  0  0  0  0
    3.5691   -3.1827   -1.4938 N   0  0  0  0  0  0  0  0  0  0  0  0
    3.2480   -4.4886   -1.5737 C   0  0  0  0  0  0  0  0  0  0  0  0
    4.2599   -5.4180   -1.8443 N   0  0  0  0  0  0  0  0  0  0  0  0
    4.1336   -6.7980   -2.0893 C   0  0  0  0  0  0  0  0  0  0  0  0
    2.9415   -7.3689   -2.5725 C   0  0  0  0  0  0  0  0  0  0  0  0
    2.7244   -8.7496   -2.5957 C   0  0  0  0  0  0  0  0  0  0  0  0
    3.7271   -9.6072   -2.1614 C   0  0  0  0  0  0  0  0  0  0  0  0
    3.4264  -11.3812   -2.0926 S   0  0  3  0  0  0  0  0  0  0  0  0
    4.7942  -12.0397   -2.3896 N   0  0  0  0  0  0  0  0  0  0  0  0
    2.6789  -11.5904   -0.8685 O   0  0  0  0  0  0  0  0  0  0  0  0
    2.3398  -11.7451   -3.4884 C   0  0  0  0  0  0  0  0  0  0  0  0
    2.0912  -13.2347   -3.5266 C   0  0  0  0  0  0  0  0  0  0  0  0
    1.2148  -13.8021   -4.6272 C   0  0  0  0  0  0  0  0  0  0  0  0
    0.7334  -13.8248   -3.2073 C   0  0  0  0  0  0  0  0  0  0  0  0
    4.9475   -9.0700   -1.7249 C   0  0  0  0  0  0  0  0  0  0  0  0
    5.1461   -7.6783   -1.6932 C   0  0  0  0  0  0  0  0  0  0  0  0
    1.9993   -4.9482   -1.4291 N   0  0  0  0  0  0  0  0  0  0  0  0
    1.0026   -4.0550   -1.3753 C   0  0  0  0  0  0  0  0  0  0  0  0
    1.2235   -2.7058   -1.4201 C   0  0  0  0  0  0  0  0  0  0  0  0
   -0.2700   -1.5498   -1.4858 Br  0  0  0  0  0  0  0  0  0  0  0  0
    4.9342    0.3018   -2.0170 C   0  0  0  0  0  0  0  0  0  0  0  0
    6.3504    0.7110   -1.5713 C   0  0  0  0  0  0  0  0  0  0  0  0
    5.0701   -0.5481   -3.2855 C   0  0  0  0  0  0  0  0  0  0  0  0
    4.2188    1.4857   -2.3941 O   0  0  0  0  0  0  0  0  0  0  0  0
    3.5025   -0.1075    1.1793 H   0  0  0  0  0  0  0  0  0  0  0  0
    3.2722    1.2836    0.1210 H   0  0  0  0  0  0  0  0  0  0  0  0
    4.8871    0.8717    0.7164 H   0  0  0  0  0  0  0  0  0  0  0  0
    4.7853   -1.3067   -0.5373 H   0  0  0  0  0  0  0  0  0  0  0  0
    2.5051   -0.4260   -2.1479 H   0  0  0  0  0  0  0  0  0  0  0  0
    5.1792   -5.0074   -1.8164 H   0  0  0  0  0  0  0  0  0  0  0  0
    2.1303   -6.7326   -2.9174 H   0  0  0  0  0  0  0  0  0  0  0  0
    1.7475   -9.1052   -2.9032 H   0  0  0  0  0  0  0  0  0  0  0  0
    5.4242  -11.9193   -1.5955 H   0  0  0  0  0  0  0  0  0  0  0  0
    2.8409  -11.4106   -4.4013 H   0  0  0  0  0  0  0  0  0  0  0  0
    1.4016  -11.2046   -3.3483 H   0  0  0  0  0  0  0  0  0  0  0  0
    2.9695  -13.8238   -3.2805 H   0  0  0  0  0  0  0  0  0  0  0  0
    1.5025  -14.7480   -5.0757 H   0  0  0  0  0  0  0  0  0  0  0  0
    0.6973  -13.1382   -5.3104 H   0  0  0  0  0  0  0  0  0  0  0  0
    0.6962  -14.7883   -2.7088 H   0  0  0  0  0  0  0  0  0  0  0  0
   -0.0938  -13.1720   -2.9529 H   0  0  0  0  0  0  0  0  0  0  0  0
    5.7459   -9.7111   -1.3614 H   0  0  0  0  0  0  0  0  0  0  0  0
    6.0825   -7.2879   -1.3011 H   0  0  0  0  0  0  0  0  0  0  0  0
    0.0138   -4.4964   -1.3111 H   0  0  0  0  0  0  0  0  0  0  0  0
    6.9330   -0.1571   -1.2437 H   0  0  0  0  0  0  0  0  0  0  0  0
    6.3356    1.4460   -0.7607 H   0  0  0  0  0  0  0  0  0  0  0  0
    6.8902    1.1953   -2.3931 H   0  0  0  0  0  0  0  0  0  0  0  0
    5.6849   -1.4368   -3.1117 H   0  0  0  0  0  0  0  0  0  0  0  0
    5.5295    0.0401   -4.0892 H   0  0  0  0  0  0  0  0  0  0  0  0
    4.0973   -0.8650   -3.6733 H   0  0  0  0  0  0  0  0  0  0  0  0
    4.2841    2.1300   -1.6554 H   0  0  0  0  0  0  0  0  0  0  0  0
  1  2  1  0  0  0  0
  1 29  1  0  0  0  0
  1 30  1  0  0  0  0
  1 31  1  0  0  0  0
  2  3  1  0  0  0  0
  2 25  1  0  0  0  0
  2 32  1  1  0  0  0
  3  4  1  0  0  0  0
  3 33  1  0  0  0  0
  4  5  1  0  0  0  0
  4 23  2  0  0  0  0
  5  6  2  0  0  0  0
  6  7  1  0  0  0  0
  6 21  1  0  0  0  0
  7  8  1  0  0  0  0
  7 34  1  0  0  0  0
  8  9  1  0  0  0  0
  8 20  2  0  0  0  0
  9 10  2  0  0  0  0
  9 35  1  0  0  0  0
 10 11  1  0  0  0  0
 10 36  1  0  0  0  0
 11 12  1  0  0  0  0
 11 19  2  0  0  0  0
 12 13  2  0  0  0  0
 12 14  2  0  0  0  0
 12 15  1  0  0  0  0
 13 37  1  0  0  0  0
 15 16  1  0  0  0  0
 15 38  1  0  0  0  0
 15 39  1  0  0  0  0
 16 17  1  0  0  0  0
 16 18  1  0  0  0  0
 16 40  1  0  0  0  0
 17 18  1  0  0  0  0
 17 41  1  0  0  0  0
 17 42  1  0  0  0  0
 18 43  1  0  0  0  0
 18 44  1  0  0  0  0
 19 20  1  0  0  0  0
 19 45  1  0  0  0  0
 20 46  1  0  0  0  0
 21 22  2  0  0  0  0
 22 23  1  0  0  0  0
 22 47  1  0  0  0  0
 23 24  1  0  0  0  0
 25 26  1  0  0  0  0
 25 27  1  0  0  0  0
 25 28  1  0  0  0  0
 26 48  1  0  0  0  0
 26 49  1  0  0  0  0
 26 50  1  0  0  0  0
 27 51  1  0  0  0  0
 27 52  1  0  0  0  0
 27 53  1  0  0  0  0
 28 54  1  0  0  0  0
M  END
$$$$
