CHEMBL2401832
 OpenBabel04072215363D

 50 53  0  0  1  0  0  0  0  0999 V2000
    3.7371   -0.4685   -1.0639 C   0  0  0  0  0  0  0  0  0  0  0  0
    3.7974    0.4942    0.1317 C   0  0  1  0  0  0  0  0  0  0  0  0
    2.6672    1.3822    0.1822 O   0  0  0  0  0  0  0  0  0  0  0  0
    2.4985    2.2251   -0.9059 C   0  0  0  0  0  0  0  0  0  0  0  0
    1.2039    2.5198   -1.3584 C   0  0  0  0  0  0  0  0  0  0  0  0
    0.0819    1.9477   -0.7552 N   0  0  0  0  0  0  0  0  0  0  0  0
    0.9216    3.3141   -2.4162 N   0  0  0  0  0  0  0  0  0  0  0  0
    1.9246    3.9359   -3.0806 C   0  0  0  0  0  0  0  0  0  0  0  0
    3.2424    3.7889   -2.6528 C   0  0  0  0  0  0  0  0  0  0  0  0
    4.5047    4.3109   -3.0415 C   0  0  0  0  0  0  0  0  0  0  0  0
    4.7853    5.2285   -4.0896 C   0  0  0  0  0  0  0  0  0  0  0  0
    5.1356    4.8540   -5.3329 C   0  0  0  0  0  0  0  0  0  0  0  0
    5.3629    5.8033   -6.4728 C   0  0  0  0  0  0  0  0  0  0  0  0
    5.0042    7.1722   -6.1126 N   0  0  0  0  0  0  0  0  0  0  0  0
    4.7042    8.1617   -7.0187 C   0  0  0  0  0  0  0  0  0  0  0  0
    4.6578    7.8064   -8.3248 N   0  0  0  0  0  0  0  0  0  0  0  0
    4.5108    9.3373   -6.7246 O   0  0  0  0  0  0  0  0  0  0  0  0
    5.3325    7.5791   -4.7462 C   0  0  0  0  0  0  0  0  0  0  0  0
    4.6444    6.6816   -3.7177 C   0  0  0  0  0  0  0  0  0  0  0  0
    5.4364    3.7659   -2.1890 C   0  0  0  0  0  0  0  0  0  0  0  0
    4.8308    2.9345   -1.3038 O   0  0  0  0  0  0  0  0  0  0  0  0
    3.4905    2.9370   -1.5781 C   0  0  0  0  0  0  0  0  0  0  0  0
    3.9344   -0.3599    1.4004 C   0  0  0  0  0  0  0  0  0  0  0  0
    5.2293   -0.7044    1.8696 C   0  0  0  0  0  0  0  0  0  0  0  0
    6.6814   -0.0563    1.1768 Cl  0  0  0  0  0  0  0  0  0  0  0  0
    5.4176   -1.6284    2.9073 C   0  0  0  0  0  0  0  0  0  0  0  0
    4.3233   -2.2250    3.5168 C   0  0  0  0  0  0  0  0  0  0  0  0
    3.0459   -1.8782    3.0998 C   0  0  0  0  0  0  0  0  0  0  0  0
    2.0063   -2.4698    3.7086 F   0  0  0  0  0  0  0  0  0  0  0  0
    2.8373   -0.9634    2.0546 C   0  0  0  0  0  0  0  0  0  0  0  0
    1.1914   -0.6778    1.6031 Cl  0  0  0  0  0  0  0  0  0  0  0  0
    3.8696    0.0633   -2.0092 H   0  0  0  0  0  0  0  0  0  0  0  0
    2.7672   -0.9726   -1.1202 H   0  0  0  0  0  0  0  0  0  0  0  0
    4.5182   -1.2362   -1.0107 H   0  0  0  0  0  0  0  0  0  0  0  0
    4.6870    1.1168    0.0646 H   0  0  0  0  0  0  0  0  0  0  0  0
    0.1253    2.0499    0.2534 H   0  0  0  0  0  0  0  0  0  0  0  0
   -0.7388    2.3804   -1.1680 H   0  0  0  0  0  0  0  0  0  0  0  0
    1.6378    4.5553   -3.9242 H   0  0  0  0  0  0  0  0  0  0  0  0
    5.2331    3.7970   -5.5698 H   0  0  0  0  0  0  0  0  0  0  0  0
    4.7592    5.4669   -7.3197 H   0  0  0  0  0  0  0  0  0  0  0  0
    6.4156    5.7916   -6.7742 H   0  0  0  0  0  0  0  0  0  0  0  0
    4.2918    6.9061   -8.5838 H   0  0  0  0  0  0  0  0  0  0  0  0
    4.3375    8.5650   -8.9157 H   0  0  0  0  0  0  0  0  0  0  0  0
    5.0609    8.6231   -4.5581 H   0  0  0  0  0  0  0  0  0  0  0  0
    6.4241    7.5128   -4.6444 H   0  0  0  0  0  0  0  0  0  0  0  0
    3.5776    6.9349   -3.6691 H   0  0  0  0  0  0  0  0  0  0  0  0
    5.0771    6.8851   -2.7304 H   0  0  0  0  0  0  0  0  0  0  0  0
    6.5074    3.8643   -2.0808 H   0  0  0  0  0  0  0  0  0  0  0  0
    6.4214   -1.9004    3.2283 H   0  0  0  0  0  0  0  0  0  0  0  0
    4.4545   -2.9608    4.3043 H   0  0  0  0  0  0  0  0  0  0  0  0
  1  2  1  0  0  0  0
  1 32  1  0  0  0  0
  1 33  1  0  0  0  0
  1 34  1  0  0  0  0
  2  3  1  0  0  0  0
  2 23  1  0  0  0  0
  2 35  1  6  0  0  0
  3  4  1  0  0  0  0
  4  5  1  0  0  0  0
  4 22  2  0  0  0  0
  5  6  1  0  0  0  0
  5  7  2  0  0  0  0
  6 36  1  0  0  0  0
  6 37  1  0  0  0  0
  7  8  1  0  0  0  0
  8  9  2  0  0  0  0
  8 38  1  0  0  0  0
  9 10  1  0  0  0  0
  9 22  1  0  0  0  0
 10 11  1  0  0  0  0
 10 20  2  0  0  0  0
 11 12  2  0  0  0  0
 11 19  1  0  0  0  0
 12 13  1  0  0  0  0
 12 39  1  0  0  0  0
 13 14  1  0  0  0  0
 13 40  1  0  0  0  0
 13 41  1  0  0  0  0
 14 15  1  0  0  0  0
 14 18  1  0  0  0  0
 15 16  1  0  0  0  0
 15 17  2  0  0  0  0
 16 42  1  0  0  0  0
 16 43  1  0  0  0  0
 18 19  1  0  0  0  0
 18 44  1  0  0  0  0
 18 45  1  0  0  0  0
 19 46  1  0  0  0  0
 19 47  1  0  0  0  0
 20 21  1  0  0  0  0
 20 48  1  0  0  0  0
 21 22  1  0  0  0  0
 23 24  1  0  0  0  0
 23 30  2  0  0  0  0
 24 25  1  0  0  0  0
 24 26  2  0  0  0  0
 26 27  1  0  0  0  0
 26 49  1  0  0  0  0
 27 28  2  0  0  0  0
 27 50  1  0  0  0  0
 28 29  1  0  0  0  0
 28 30  1  0  0  0  0
 30 31  1  0  0  0  0
M  END
$$$$
