CHEMBL299032
 OpenBabel04072215363D

 47 50  0  0  0  0  0  0  0  0999 V2000
    1.9797    1.4553   -2.4181 C   0  0  0  0  0  0  0  0  0  0  0  0
    2.2796    0.2129   -1.5942 C   0  0  0  0  0  0  0  0  0  0  0  0
    1.4023   -0.9457   -2.0723 C   0  0  0  0  0  0  0  0  0  0  0  0
    3.6941   -0.2031   -1.7050 N   0  0  0  0  0  0  0  0  0  0  0  0
    4.9256    0.8103   -1.1413 S   0  0  0  0  0  0  0  0  0  0  0  0
    4.3814    1.6794   -0.1221 O   0  0  0  0  0  0  0  0  0  0  0  0
    6.0903   -0.0139   -0.9179 O   0  0  0  0  0  0  0  0  0  0  0  0
    5.2953    1.7959   -2.5834 C   0  0  0  0  0  0  0  0  0  0  0  0
    5.7894    1.1265   -3.7251 C   0  0  0  0  0  0  0  0  0  0  0  0
    6.0656    1.8368   -4.8913 C   0  0  0  0  0  0  0  0  0  0  0  0
    5.8498    3.1993   -4.8658 C   0  0  0  0  0  0  0  0  0  0  0  0
    5.3866    3.8837   -3.7331 C   0  0  0  0  0  0  0  0  0  0  0  0
    5.1085    3.1892   -2.5662 C   0  0  0  0  0  0  0  0  0  0  0  0
    5.3228    5.3025   -4.1223 C   0  0  0  0  0  0  0  0  0  0  0  0
    4.9814    6.3333   -3.3331 C   0  0  0  0  0  0  0  0  0  0  0  0
    5.0500    7.6735   -3.7744 C   0  0  0  0  0  0  0  0  0  0  0  0
    3.9533    8.2415   -4.3828 N   0  0  0  0  0  0  0  0  0  0  0  0
    4.2388    9.5369   -4.7465 C   0  0  0  0  0  0  0  0  0  0  0  0
    5.5414    9.8026   -4.3787 C   0  0  0  0  0  0  0  0  0  0  0  0
    6.0439    8.6283   -3.7580 C   0  0  0  0  0  0  0  0  0  0  0  0
    7.4366    8.5967   -3.2553 C   0  0  0  0  0  0  0  0  0  0  0  0
    8.2570    9.6374   -4.0281 C   0  0  0  0  0  0  0  0  0  0  0  0
    7.6230   10.9406   -4.1154 O   0  0  0  0  0  0  0  0  0  0  0  0
    6.3183   11.0215   -4.5502 C   0  0  0  0  0  0  0  0  0  0  0  0
    5.8521   12.0639   -4.9940 O   0  0  0  0  0  0  0  0  0  0  0  0
    5.7494    5.3787   -5.5700 C   0  0  0  0  0  0  0  0  0  0  0  0
    5.8055    6.3437   -6.3069 O   0  0  0  0  0  0  0  0  0  0  0  0
    6.0549    4.0759   -5.9219 N   0  0  0  0  0  0  0  0  0  0  0  0
    0.9130    1.6982   -2.3784 H   0  0  0  0  0  0  0  0  0  0  0  0
    2.2625    1.3190   -3.4672 H   0  0  0  0  0  0  0  0  0  0  0  0
    2.5116    2.3266   -2.0307 H   0  0  0  0  0  0  0  0  0  0  0  0
    2.0487    0.3991   -0.5392 H   0  0  0  0  0  0  0  0  0  0  0  0
    1.6421   -1.2309   -3.1034 H   0  0  0  0  0  0  0  0  0  0  0  0
    0.3420   -0.6725   -2.0362 H   0  0  0  0  0  0  0  0  0  0  0  0
    1.5429   -1.8315   -1.4438 H   0  0  0  0  0  0  0  0  0  0  0  0
    3.9409   -0.6748   -2.5734 H   0  0  0  0  0  0  0  0  0  0  0  0
    5.9697    0.0533   -3.6989 H   0  0  0  0  0  0  0  0  0  0  0  0
    6.4427    1.3352   -5.7755 H   0  0  0  0  0  0  0  0  0  0  0  0
    4.7520    3.6953   -1.6742 H   0  0  0  0  0  0  0  0  0  0  0  0
    4.7071    6.1686   -2.2954 H   0  0  0  0  0  0  0  0  0  0  0  0
    3.0786    7.7752   -4.5666 H   0  0  0  0  0  0  0  0  0  0  0  0
    3.5044   10.1522   -5.2506 H   0  0  0  0  0  0  0  0  0  0  0  0
    7.8855    7.6049   -3.3754 H   0  0  0  0  0  0  0  0  0  0  0  0
    7.4299    8.8445   -2.1883 H   0  0  0  0  0  0  0  0  0  0  0  0
    8.4634    9.3025   -5.0517 H   0  0  0  0  0  0  0  0  0  0  0  0
    9.2224    9.7820   -3.5313 H   0  0  0  0  0  0  0  0  0  0  0  0
    6.3750    3.8320   -6.8465 H   0  0  0  0  0  0  0  0  0  0  0  0
  1  2  1  0  0  0  0
  1 29  1  0  0  0  0
  1 30  1  0  0  0  0
  1 31  1  0  0  0  0
  2  3  1  0  0  0  0
  2  4  1  0  0  0  0
  2 32  1  0  0  0  0
  3 33  1  0  0  0  0
  3 34  1  0  0  0  0
  3 35  1  0  0  0  0
  4  5  1  0  0  0  0
  4 36  1  0  0  0  0
  5  6  2  0  0  0  0
  5  7  2  0  0  0  0
  5  8  1  0  0  0  0
  8  9  1  0  0  0  0
  8 13  2  0  0  0  0
  9 10  2  0  0  0  0
  9 37  1  0  0  0  0
 10 11  1  0  0  0  0
 10 38  1  0  0  0  0
 11 12  2  0  0  0  0
 11 28  1  0  0  0  0
 12 13  1  0  0  0  0
 12 14  1  0  0  0  0
 13 39  1  0  0  0  0
 14 15  2  0  0  0  0
 14 26  1  0  0  0  0
 15 16  1  0  0  0  0
 15 40  1  0  0  0  0
 16 17  1  0  0  0  0
 16 20  2  0  0  0  0
 17 18  1  0  0  0  0
 17 41  1  0  0  0  0
 18 19  2  0  0  0  0
 18 42  1  0  0  0  0
 19 20  1  0  0  0  0
 19 24  1  0  0  0  0
 20 21  1  0  0  0  0
 21 22  1  0  0  0  0
 21 43  1  0  0  0  0
 21 44  1  0  0  0  0
 22 23  1  0  0  0  0
 22 45  1  0  0  0  0
 22 46  1  0  0  0  0
 23 24  1  0  0  0  0
 24 25  2  0  0  0  0
 26 27  2  0  0  0  0
 26 28  1  0  0  0  0
 28 47  1  0  0  0  0
M  END
$$$$
