CHEMBL4453846
 OpenBabel04072215383D

 47 50  0  0  0  0  0  0  0  0999 V2000
    1.1728   -0.8684   -0.6425 O   0  0  0  0  0  0  0  0  0  0  0  0
    2.2166   -0.3647   -0.2479 C   0  0  0  0  0  0  0  0  0  0  0  0
    2.7749   -0.6111    0.9973 N   0  0  0  0  0  0  0  0  0  0  0  0
    2.1795   -1.4302    2.0061 C   0  0  0  0  0  0  0  0  0  0  0  0
    1.0661   -2.2477    1.7801 C   0  0  0  0  0  0  0  0  0  0  0  0
    0.4542   -2.9783    2.8125 C   0  0  0  0  0  0  0  0  0  0  0  0
    0.9520   -2.9364    4.1123 C   0  0  0  0  0  0  0  0  0  0  0  0
    0.3467   -3.7063    5.1272 N   0  0  0  0  0  0  0  0  0  0  0  0
    0.9358   -4.5337    6.1155 C   0  0  0  0  0  0  0  0  0  0  0  0
    2.2280   -5.0438    5.9013 C   0  0  0  0  0  0  0  0  0  0  0  0
    2.8441   -5.8415    6.8521 C   0  0  0  0  0  0  0  0  0  0  0  0
    2.1753   -6.0753    8.0504 C   0  0  0  0  0  0  0  0  0  0  0  0
    2.7739   -6.9855    8.9965 N   0  3  0  0  0  0  0  0  0  0  0  0
    3.8187   -6.6325    9.5352 O   0  0  0  0  0  0  0  0  0  0  0  0
    2.2188   -8.0887    9.1471 O   0  5  0  0  0  0  0  0  0  0  0  0
    0.9731   -5.4787    8.3926 C   0  0  0  0  0  0  0  0  0  0  0  0
    0.5255   -5.5546    9.6606 N   0  0  0  0  0  0  0  0  0  0  0  0
   -0.6064   -4.9281    9.9646 C   0  0  0  0  0  0  0  0  0  0  0  0
   -1.4307   -4.3674    9.0790 N   0  0  0  0  0  0  0  0  0  0  0  0
   -0.9551   -4.3240    7.8261 C   0  0  0  0  0  0  0  0  0  0  0  0
   -1.8892   -3.8615    6.9507 O   0  0  0  0  0  0  0  0  0  0  0  0
    0.3023   -4.7604    7.3909 C   0  0  0  0  0  0  0  0  0  0  0  0
    2.1041   -2.1683    4.3335 C   0  0  0  0  0  0  0  0  0  0  0  0
    2.7027   -1.4125    3.3010 C   0  0  0  0  0  0  0  0  0  0  0  0
    2.9462    0.5248   -1.0211 N   0  0  0  0  0  0  0  0  0  0  0  0
    2.4580    1.0798   -2.2524 C   0  0  0  0  0  0  0  0  0  0  0  0
    1.0843    1.1493   -2.5368 C   0  0  0  0  0  0  0  0  0  0  0  0
    0.6209    1.6784   -3.7419 C   0  0  0  0  0  0  0  0  0  0  0  0
   -1.0696    1.7107   -4.0649 Cl  0  0  0  0  0  0  0  0  0  0  0  0
    1.5138    2.1818   -4.6798 C   0  0  0  0  0  0  0  0  0  0  0  0
    2.8831    2.1433   -4.4100 C   0  0  0  0  0  0  0  0  0  0  0  0
    3.3537    1.5933   -3.2070 C   0  0  0  0  0  0  0  0  0  0  0  0
    5.0620    1.5250   -2.9574 Cl  0  0  0  0  0  0  0  0  0  0  0  0
    3.5688   -0.0486    1.2732 H   0  0  0  0  0  0  0  0  0  0  0  0
    0.6305   -2.3610    0.7925 H   0  0  0  0  0  0  0  0  0  0  0  0
   -0.4064   -3.5960    2.5673 H   0  0  0  0  0  0  0  0  0  0  0  0
   -0.6734   -3.7211    5.1152 H   0  0  0  0  0  0  0  0  0  0  0  0
    2.7498   -4.8460    4.9656 H   0  0  0  0  0  0  0  0  0  0  0  0
    3.8336   -6.2564    6.6686 H   0  0  0  0  0  0  0  0  0  0  0  0
   -0.8588   -4.8626   11.0186 H   0  0  0  0  0  0  0  0  0  0  0  0
   -2.6678   -3.8367    7.5426 H   0  0  0  0  0  0  0  0  0  0  0  0
    2.5230   -2.1112    5.3339 H   0  0  0  0  0  0  0  0  0  0  0  0
    3.5663   -0.8009    3.5472 H   0  0  0  0  0  0  0  0  0  0  0  0
    3.9461    0.5677   -0.8829 H   0  0  0  0  0  0  0  0  0  0  0  0
    0.3426    0.8012   -1.8244 H   0  0  0  0  0  0  0  0  0  0  0  0
    1.1494    2.6002   -5.6144 H   0  0  0  0  0  0  0  0  0  0  0  0
    3.5779    2.5360   -5.1482 H   0  0  0  0  0  0  0  0  0  0  0  0
  1  2  2  0  0  0  0
  2  3  1  0  0  0  0
  2 25  1  0  0  0  0
  3  4  1  0  0  0  0
  3 34  1  0  0  0  0
  4  5  1  0  0  0  0
  4 24  2  0  0  0  0
  5  6  2  0  0  0  0
  5 35  1  0  0  0  0
  6  7  1  0  0  0  0
  6 36  1  0  0  0  0
  7  8  1  0  0  0  0
  7 23  2  0  0  0  0
  8  9  1  0  0  0  0
  8 37  1  0  0  0  0
  9 10  1  0  0  0  0
  9 22  2  0  0  0  0
 10 11  2  0  0  0  0
 10 38  1  0  0  0  0
 11 12  1  0  0  0  0
 11 39  1  0  0  0  0
 12 13  1  0  0  0  0
 12 16  2  0  0  0  0
 13 14  2  0  0  0  0
 13 15  1  0  0  0  0
 16 17  1  0  0  0  0
 16 22  1  0  0  0  0
 17 18  2  0  0  0  0
 18 19  1  0  0  0  0
 18 40  1  0  0  0  0
 19 20  2  0  0  0  0
 20 21  1  0  0  0  0
 20 22  1  0  0  0  0
 21 41  1  0  0  0  0
 23 24  1  0  0  0  0
 23 42  1  0  0  0  0
 24 43  1  0  0  0  0
 25 26  1  0  0  0  0
 25 44  1  0  0  0  0
 26 27  1  0  0  0  0
 26 32  2  0  0  0  0
 27 28  2  0  0  0  0
 27 45  1  0  0  0  0
 28 29  1  0  0  0  0
 28 30  1  0  0  0  0
 30 31  2  0  0  0  0
 30 46  1  0  0  0  0
 31 32  1  0  0  0  0
 31 47  1  0  0  0  0
 32 33  1  0  0  0  0
M  CHG  2  13   1  15  -1
M  END
$$$$
