CHEMBL2088107
 OpenBabel04072215363D

 47 50  0  0  0  0  0  0  0  0999 V2000
    3.8049   -0.3367   -3.8834 C   0  0  0  0  0  0  0  0  0  0  0  0
    3.2927    0.0186   -2.5446 C   0  0  0  0  0  0  0  0  0  0  0  0
    2.9779    1.2334   -1.9824 C   0  0  0  0  0  0  0  0  0  0  0  0
    2.5743    0.9526   -0.6582 C   0  0  0  0  0  0  0  0  0  0  0  0
    2.2287    1.8499    0.2939 N   0  0  0  0  0  0  0  0  0  0  0  0
    2.4503    3.2406    0.3454 C   0  0  0  0  0  0  0  0  0  0  0  0
    2.8290    3.8876   -0.7757 N   0  0  0  0  0  0  0  0  0  0  0  0
    3.1084    5.1912   -0.7226 C   0  0  0  0  0  0  0  0  0  0  0  0
    3.5813    5.7237   -1.9026 N   0  0  0  0  0  0  0  0  0  0  0  0
    3.2929    7.1215   -2.1465 C   0  0  0  0  0  0  0  0  0  0  0  0
    3.8593    7.5786   -3.4437 C   0  0  0  0  0  0  0  0  0  0  0  0
    5.1279    7.5992   -3.9670 C   0  0  0  0  0  0  0  0  0  0  0  0
    4.9630    8.0564   -5.3004 C   0  0  0  0  0  0  0  0  0  0  0  0
    6.0348    8.2008   -6.2931 C   0  0  0  0  0  0  0  0  0  0  0  0
    7.1779    8.4906   -5.9344 O   0  0  0  0  0  0  0  0  0  0  0  0
    5.7584    7.9244   -7.6273 N   0  0  0  0  0  0  0  0  0  0  0  0
    4.5309    7.3910   -8.1934 C   0  0  0  0  0  0  0  0  0  0  0  0
    5.0207    6.5181   -9.3359 C   0  0  0  0  0  0  0  0  0  0  0  0
    6.2436    7.2643   -9.8534 C   0  0  0  0  0  0  0  0  0  0  0  0
    6.8195    7.9492   -8.6181 C   0  0  0  0  0  0  0  0  0  0  0  0
    3.6729    8.3581   -5.5342 N   0  0  0  0  0  0  0  0  0  0  0  0
    2.9871    8.0444   -4.3747 O   0  0  0  0  0  0  0  0  0  0  0  0
    2.9942    5.9303    0.3833 N   0  0  0  0  0  0  0  0  0  0  0  0
    2.6011    5.2794    1.4977 C   0  0  0  0  0  0  0  0  0  0  0  0
    2.3150    3.9326    1.5382 C   0  0  0  0  0  0  0  0  0  0  0  0
    1.8186    3.1150    3.1656 Br  0  0  0  0  0  0  0  0  0  0  0  0
    2.5871   -0.3619   -0.4213 N   0  0  0  0  0  0  0  0  0  0  0  0
    3.0497   -0.8991   -1.5640 N   0  0  0  0  0  0  0  0  0  0  0  0
    3.8632    0.5497   -4.5253 H   0  0  0  0  0  0  0  0  0  0  0  0
    3.1478   -1.0631   -4.3718 H   0  0  0  0  0  0  0  0  0  0  0  0
    4.8099   -0.7652   -3.8113 H   0  0  0  0  0  0  0  0  0  0  0  0
    3.0552    2.1932   -2.4686 H   0  0  0  0  0  0  0  0  0  0  0  0
    1.9784    1.4474    1.1901 H   0  0  0  0  0  0  0  0  0  0  0  0
    3.3050    5.0892   -2.6430 H   0  0  0  0  0  0  0  0  0  0  0  0
    3.7241    7.7472   -1.3552 H   0  0  0  0  0  0  0  0  0  0  0  0
    2.2079    7.2844   -2.1439 H   0  0  0  0  0  0  0  0  0  0  0  0
    6.0402    7.2770   -3.4860 H   0  0  0  0  0  0  0  0  0  0  0  0
    3.9437    8.2381   -8.5665 H   0  0  0  0  0  0  0  0  0  0  0  0
    3.9412    6.8148   -7.4789 H   0  0  0  0  0  0  0  0  0  0  0  0
    4.2588    6.3603  -10.1039 H   0  0  0  0  0  0  0  0  0  0  0  0
    5.3234    5.5379   -8.9472 H   0  0  0  0  0  0  0  0  0  0  0  0
    5.9443    8.0105  -10.5972 H   0  0  0  0  0  0  0  0  0  0  0  0
    6.9676    6.5919  -10.3247 H   0  0  0  0  0  0  0  0  0  0  0  0
    7.0931    8.9894   -8.8258 H   0  0  0  0  0  0  0  0  0  0  0  0
    7.6998    7.4248   -8.2327 H   0  0  0  0  0  0  0  0  0  0  0  0
    2.5416    5.9000    2.3876 H   0  0  0  0  0  0  0  0  0  0  0  0
    3.1809   -1.9041   -1.6017 H   0  0  0  0  0  0  0  0  0  0  0  0
  1  2  1  0  0  0  0
  1 29  1  0  0  0  0
  1 30  1  0  0  0  0
  1 31  1  0  0  0  0
  2  3  2  0  0  0  0
  2 28  1  0  0  0  0
  3  4  1  0  0  0  0
  3 32  1  0  0  0  0
  4  5  1  0  0  0  0
  4 27  2  0  0  0  0
  5  6  1  0  0  0  0
  5 33  1  0  0  0  0
  6  7  1  0  0  0  0
  6 25  2  0  0  0  0
  7  8  2  0  0  0  0
  8  9  1  0  0  0  0
  8 23  1  0  0  0  0
  9 10  1  0  0  0  0
  9 34  1  0  0  0  0
 10 11  1  0  0  0  0
 10 35  1  0  0  0  0
 10 36  1  0  0  0  0
 11 12  2  0  0  0  0
 11 22  1  0  0  0  0
 12 13  1  0  0  0  0
 12 37  1  0  0  0  0
 13 14  1  0  0  0  0
 13 21  2  0  0  0  0
 14 15  2  0  0  0  0
 14 16  1  0  0  0  0
 16 17  1  0  0  0  0
 16 20  1  0  0  0  0
 17 18  1  0  0  0  0
 17 38  1  0  0  0  0
 17 39  1  0  0  0  0
 18 19  1  0  0  0  0
 18 40  1  0  0  0  0
 18 41  1  0  0  0  0
 19 20  1  0  0  0  0
 19 42  1  0  0  0  0
 19 43  1  0  0  0  0
 20 44  1  0  0  0  0
 20 45  1  0  0  0  0
 21 22  1  0  0  0  0
 23 24  2  0  0  0  0
 24 25  1  0  0  0  0
 24 46  1  0  0  0  0
 25 26  1  0  0  0  0
 27 28  1  0  0  0  0
 28 47  1  0  0  0  0
M  END
$$$$
