CHEMBL427837
 OpenBabel04072215383D

 71 76  0  0  0  0  0  0  0  0999 V2000
    5.6367    1.6408    1.5957 C   0  0  0  0  0  0  0  0  0  0  0  0
    4.4559    1.4956    0.8047 O   0  0  0  0  0  0  0  0  0  0  0  0
    4.6416    1.3201   -0.5404 C   0  0  0  0  0  0  0  0  0  0  0  0
    5.8274    0.7795   -1.0659 C   0  0  0  0  0  0  0  0  0  0  0  0
    6.1036    0.7500   -2.4283 C   0  0  0  0  0  0  0  0  0  0  0  0
    7.3203    0.3351   -2.8164 N   0  0  0  0  0  0  0  0  0  0  0  0
    7.6311    0.4009   -4.1260 C   0  0  0  0  0  0  0  0  0  0  0  0
    6.7842    0.9121   -5.0851 C   0  0  0  0  0  0  0  0  0  0  0  0
    5.5249    1.3507   -4.6864 C   0  0  0  0  0  0  0  0  0  0  0  0
    4.7909    1.9086   -5.7220 O   0  0  0  0  0  0  0  0  0  0  0  0
    3.8846    2.9141   -5.5044 C   0  0  0  0  0  0  0  0  0  0  0  0
    4.0367    3.9240   -4.5403 C   0  0  0  0  0  0  0  0  0  0  0  0
    2.9596    4.7505   -4.1864 C   0  0  0  0  0  0  0  0  0  0  0  0
    1.7829    4.5879   -4.9177 C   0  0  0  0  0  0  0  0  0  0  0  0
    0.5358    5.1512   -4.8173 N   0  0  0  0  0  0  0  0  0  0  0  0
   -0.2207    4.7238   -5.8800 C   0  0  0  0  0  0  0  0  0  0  0  0
   -1.4536    5.2431   -6.0726 N   0  0  0  0  0  0  0  0  0  0  0  0
   -2.1543    5.2860   -7.2965 C   0  0  0  0  0  0  0  0  0  0  0  0
   -3.4887    5.7097   -7.3092 C   0  0  0  0  0  0  0  0  0  0  0  0
   -4.2237    5.7340   -8.4991 C   0  0  0  0  0  0  0  0  0  0  0  0
   -3.6361    5.3399   -9.7031 C   0  0  0  0  0  0  0  0  0  0  0  0
   -4.6305    5.3475  -11.1154 Cl  0  0  0  0  0  0  0  0  0  0  0  0
   -2.2892    4.9584   -9.7347 C   0  0  0  0  0  0  0  0  0  0  0  0
   -1.5421    4.6322  -11.0116 C   0  0  0  0  0  0  0  0  0  0  0  0
   -1.5099    5.7545  -11.9544 N   0  0  0  0  0  0  0  0  0  0  0  0
   -0.8264    6.9485  -11.4305 C   0  0  0  0  0  0  0  0  0  0  0  0
   -0.9026    8.1134  -12.4445 C   0  0  0  0  0  0  0  0  0  0  0  0
   -0.3669    7.8037  -13.7858 N   0  0  0  0  0  0  0  0  0  0  0  0
    1.0919    7.7446  -13.7764 C   0  0  0  0  0  0  0  0  0  0  0  0
   -0.9616    6.5358  -14.2604 C   0  0  0  0  0  0  0  0  0  0  0  0
   -0.9233    5.3663  -13.2461 C   0  0  0  0  0  0  0  0  0  0  0  0
   -1.5768    4.9203   -8.5204 C   0  0  0  0  0  0  0  0  0  0  0  0
    0.4396    3.8285   -6.5801 N   0  0  0  0  0  0  0  0  0  0  0  0
    1.6669    3.7105   -5.9863 C   0  0  0  0  0  0  0  0  0  0  0  0
    2.7319    2.8527   -6.2939 C   0  0  0  0  0  0  0  0  0  0  0  0
    5.1258    1.2009   -3.3288 C   0  0  0  0  0  0  0  0  0  0  0  0
    3.8489    1.5047   -2.7974 C   0  0  0  0  0  0  0  0  0  0  0  0
    3.6206    1.6615   -1.4245 C   0  0  0  0  0  0  0  0  0  0  0  0
    2.3873    2.1979   -1.1870 O   0  0  0  0  0  0  0  0  0  0  0  0
    2.0543    2.6921    0.0979 C   0  0  0  0  0  0  0  0  0  0  0  0
    5.4088    2.3157    2.4263 H   0  0  0  0  0  0  0  0  0  0  0  0
    6.4780    2.0875    1.0517 H   0  0  0  0  0  0  0  0  0  0  0  0
    5.9213    0.6684    2.0089 H   0  0  0  0  0  0  0  0  0  0  0  0
    6.6063    0.4038   -0.4070 H   0  0  0  0  0  0  0  0  0  0  0  0
    8.6242    0.0450   -4.3860 H   0  0  0  0  0  0  0  0  0  0  0  0
    7.1019    0.9816   -6.1206 H   0  0  0  0  0  0  0  0  0  0  0  0
    4.9590    4.0052   -3.9718 H   0  0  0  0  0  0  0  0  0  0  0  0
    3.0325    5.4422   -3.3543 H   0  0  0  0  0  0  0  0  0  0  0  0
    0.2441    5.8212   -4.1251 H   0  0  0  0  0  0  0  0  0  0  0  0
   -1.9498    5.6794   -5.3064 H   0  0  0  0  0  0  0  0  0  0  0  0
   -3.9792    6.0236   -6.3917 H   0  0  0  0  0  0  0  0  0  0  0  0
   -5.2590    6.0650   -8.4818 H   0  0  0  0  0  0  0  0  0  0  0  0
   -2.0376    3.7645  -11.4664 H   0  0  0  0  0  0  0  0  0  0  0  0
   -0.5181    4.3069  -10.7831 H   0  0  0  0  0  0  0  0  0  0  0  0
    0.2196    6.7245  -11.1856 H   0  0  0  0  0  0  0  0  0  0  0  0
   -1.3043    7.2965  -10.5079 H   0  0  0  0  0  0  0  0  0  0  0  0
   -0.4019    8.9970  -12.0301 H   0  0  0  0  0  0  0  0  0  0  0  0
   -1.9564    8.4027  -12.5602 H   0  0  0  0  0  0  0  0  0  0  0  0
    1.5082    8.7000  -13.4372 H   0  0  0  0  0  0  0  0  0  0  0  0
    1.4702    7.5840  -14.7915 H   0  0  0  0  0  0  0  0  0  0  0  0
    1.4919    6.9534  -13.1349 H   0  0  0  0  0  0  0  0  0  0  0  0
   -0.4880    6.2242  -15.1994 H   0  0  0  0  0  0  0  0  0  0  0  0
   -2.0120    6.7347  -14.5134 H   0  0  0  0  0  0  0  0  0  0  0  0
    0.1107    5.0219  -13.1146 H   0  0  0  0  0  0  0  0  0  0  0  0
   -1.4906    4.5303  -13.6729 H   0  0  0  0  0  0  0  0  0  0  0  0
   -0.5319    4.6205   -8.5520 H   0  0  0  0  0  0  0  0  0  0  0  0
    2.6296    2.1249   -7.0906 H   0  0  0  0  0  0  0  0  0  0  0  0
    3.0140    1.7138   -3.4603 H   0  0  0  0  0  0  0  0  0  0  0  0
    1.2322    3.4055   -0.0372 H   0  0  0  0  0  0  0  0  0  0  0  0
    2.8646    3.2465    0.5779 H   0  0  0  0  0  0  0  0  0  0  0  0
    1.6853    1.8766    0.7242 H   0  0  0  0  0  0  0  0  0  0  0  0
  1  2  1  0  0  0  0
  1 41  1  0  0  0  0
  1 42  1  0  0  0  0
  1 43  1  0  0  0  0
  2  3  1  0  0  0  0
  3  4  1  0  0  0  0
  3 38  2  0  0  0  0
  4  5  2  0  0  0  0
  4 44  1  0  0  0  0
  5  6  1  0  0  0  0
  5 36  1  0  0  0  0
  6  7  2  0  0  0  0
  7  8  1  0  0  0  0
  7 45  1  0  0  0  0
  8  9  2  0  0  0  0
  8 46  1  0  0  0  0
  9 10  1  0  0  0  0
  9 36  1  0  0  0  0
 10 11  1  0  0  0  0
 11 12  1  0  0  0  0
 11 35  2  0  0  0  0
 12 13  2  0  0  0  0
 12 47  1  0  0  0  0
 13 14  1  0  0  0  0
 13 48  1  0  0  0  0
 14 15  1  0  0  0  0
 14 34  2  0  0  0  0
 15 16  1  0  0  0  0
 15 49  1  0  0  0  0
 16 17  1  0  0  0  0
 16 33  2  0  0  0  0
 17 18  1  0  0  0  0
 17 50  1  0  0  0  0
 18 19  1  0  0  0  0
 18 32  2  0  0  0  0
 19 20  2  0  0  0  0
 19 51  1  0  0  0  0
 20 21  1  0  0  0  0
 20 52  1  0  0  0  0
 21 22  1  0  0  0  0
 21 23  2  0  0  0  0
 23 24  1  0  0  0  0
 23 32  1  0  0  0  0
 24 25  1  0  0  0  0
 24 53  1  0  0  0  0
 24 54  1  0  0  0  0
 25 26  1  0  0  0  0
 25 31  1  0  0  0  0
 26 27  1  0  0  0  0
 26 55  1  0  0  0  0
 26 56  1  0  0  0  0
 27 28  1  0  0  0  0
 27 57  1  0  0  0  0
 27 58  1  0  0  0  0
 28 29  1  0  0  0  0
 28 30  1  0  0  0  0
 29 59  1  0  0  0  0
 29 60  1  0  0  0  0
 29 61  1  0  0  0  0
 30 31  1  0  0  0  0
 30 62  1  0  0  0  0
 30 63  1  0  0  0  0
 31 64  1  0  0  0  0
 31 65  1  0  0  0  0
 32 66  1  0  0  0  0
 33 34  1  0  0  0  0
 34 35  1  0  0  0  0
 35 67  1  0  0  0  0
 36 37  2  0  0  0  0
 37 38  1  0  0  0  0
 37 68  1  0  0  0  0
 38 39  1  0  0  0  0
 39 40  1  0  0  0  0
 40 69  1  0  0  0  0
 40 70  1  0  0  0  0
 40 71  1  0  0  0  0
M  END
$$$$
