CHEMBL3986123
 OpenBabel04072215373D

 66 69  0  0  1  0  0  0  0  0999 V2000
    9.6489    4.4133    3.4456 C   0  0  0  0  0  0  0  0  0  0  0  0
   10.4946    3.2800    2.8687 C   0  0  0  0  0  0  0  0  0  0  0  0
    9.8042    2.6591    1.6608 C   0  0  0  0  0  0  0  0  0  0  0  0
   10.5475    1.5138    0.9476 C   0  0  3  0  0  0  0  0  0  0  0  0
   10.7348    0.3107    1.8794 C   0  0  0  0  0  0  0  0  0  0  0  0
    9.7055    1.0989   -0.2773 C   0  0  0  0  0  0  0  0  0  0  0  0
    8.8332    0.2330   -0.1542 O   0  0  0  0  0  0  0  0  0  0  0  0
    9.8428    1.7937   -1.4720 N   0  0  0  0  0  0  0  0  0  0  0  0
   10.8051    2.8502   -1.7868 C   0  0  0  0  0  0  0  0  0  0  0  0
   10.1001    4.2079   -1.9254 C   0  0  0  0  0  0  0  0  0  0  0  0
    8.9654    4.1524   -2.8044 O   0  0  0  0  0  0  0  0  0  0  0  0
    8.0273    3.0964   -2.4897 C   0  0  3  0  0  0  0  0  0  0  0  0
    7.2907    3.2964   -1.1573 C   0  0  0  0  0  0  0  0  0  0  0  0
    6.4531    4.4478   -1.1618 O   0  0  0  0  0  0  0  0  0  0  0  0
    5.4818    4.4610   -0.1857 C   0  0  0  0  0  0  0  0  0  0  0  0
    4.4301    5.3421   -0.4846 C   0  0  0  0  0  0  0  0  0  0  0  0
    3.3129    5.4607    0.3280 C   0  0  0  0  0  0  0  0  0  0  0  0
    2.3143    6.2751   -0.0261 N   0  0  0  0  0  0  0  0  0  0  0  0
    1.2578    6.3144    0.7992 C   0  0  0  0  0  0  0  0  0  0  0  0
    1.1177    5.6432    1.9428 N   0  0  0  0  0  0  0  0  0  0  0  0
    2.1397    4.8526    2.3049 C   0  0  0  0  0  0  0  0  0  0  0  0
    2.0942    4.1578    3.5463 N   0  0  0  0  0  0  0  0  0  0  0  0
    0.9435    3.9952    4.3381 C   0  0  0  0  0  0  0  0  0  0  0  0
   -0.2588    3.5648    3.7662 C   0  0  0  0  0  0  0  0  0  0  0  0
   -1.4195    3.4773    4.5312 C   0  0  0  0  0  0  0  0  0  0  0  0
   -1.3880    3.8142    5.8848 C   0  0  0  0  0  0  0  0  0  0  0  0
   -2.8738    3.7525    6.7618 Cl  0  0  0  0  0  0  0  0  0  0  0  0
   -0.1800    4.2005    6.4777 C   0  0  0  0  0  0  0  0  0  0  0  0
   -0.0617    4.6221    8.1496 Cl  0  0  0  0  0  0  0  0  0  0  0  0
    0.9842    4.2744    5.7079 C   0  0  0  0  0  0  0  0  0  0  0  0
    3.2702    4.7001    1.4970 C   0  0  0  0  0  0  0  0  0  0  0  0
    4.3182    3.8232    1.8171 C   0  0  0  0  0  0  0  0  0  0  0  0
    5.4293    3.6937    0.9903 C   0  0  0  0  0  0  0  0  0  0  0  0
    6.4678    2.8703    1.3351 O   0  0  0  0  0  0  0  0  0  0  0  0
    6.1861    1.8051    2.2451 C   0  0  0  0  0  0  0  0  0  0  0  0
    8.7548    1.7336   -2.4607 C   0  0  0  0  0  0  0  0  0  0  0  0
   10.1471    4.8610    4.3107 H   0  0  0  0  0  0  0  0  0  0  0  0
    8.6700    4.0451    3.7719 H   0  0  0  0  0  0  0  0  0  0  0  0
    9.4833    5.2005    2.7026 H   0  0  0  0  0  0  0  0  0  0  0  0
   10.6497    2.5380    3.6581 H   0  0  0  0  0  0  0  0  0  0  0  0
   11.4754    3.6714    2.5782 H   0  0  0  0  0  0  0  0  0  0  0  0
    9.6107    3.4630    0.9488 H   0  0  0  0  0  0  0  0  0  0  0  0
    8.8302    2.2898    1.9846 H   0  0  0  0  0  0  0  0  0  0  0  0
   11.5400    1.8462    0.6407 H   0  0  0  0  0  0  0  0  0  0  0  0
    9.7871   -0.1920    2.1025 H   0  0  0  0  0  0  0  0  0  0  0  0
   11.1895    0.5966    2.8314 H   0  0  0  0  0  0  0  0  0  0  0  0
   11.3961   -0.4264    1.4118 H   0  0  0  0  0  0  0  0  0  0  0  0
   11.2443    2.5771   -2.7548 H   0  0  0  0  0  0  0  0  0  0  0  0
   11.6174    2.9043   -1.0640 H   0  0  0  0  0  0  0  0  0  0  0  0
   10.8006    4.9387   -2.3429 H   0  0  0  0  0  0  0  0  0  0  0  0
    9.7795    4.5971   -0.9558 H   0  0  0  0  0  0  0  0  0  0  0  0
    7.2878    3.1037   -3.2982 H   0  0  0  0  0  0  0  0  0  0  0  0
    8.0120    3.4356   -0.3566 H   0  0  0  0  0  0  0  0  0  0  0  0
    6.6894    2.3959   -0.9865 H   0  0  0  0  0  0  0  0  0  0  0  0
    4.4783    5.9332   -1.3975 H   0  0  0  0  0  0  0  0  0  0  0  0
    0.4359    6.9604    0.5041 H   0  0  0  0  0  0  0  0  0  0  0  0
    2.9094    4.4181    4.0937 H   0  0  0  0  0  0  0  0  0  0  0  0
   -0.2941    3.3096    2.7090 H   0  0  0  0  0  0  0  0  0  0  0  0
   -2.3451    3.1635    4.0565 H   0  0  0  0  0  0  0  0  0  0  0  0
    1.9146    4.5872    6.1753 H   0  0  0  0  0  0  0  0  0  0  0  0
    4.2377    3.2244    2.7169 H   0  0  0  0  0  0  0  0  0  0  0  0
    7.0294    1.1094    2.2408 H   0  0  0  0  0  0  0  0  0  0  0  0
    5.2988    1.2409    1.9399 H   0  0  0  0  0  0  0  0  0  0  0  0
    6.0847    2.1884    3.2662 H   0  0  0  0  0  0  0  0  0  0  0  0
    9.2092    1.5309   -3.4371 H   0  0  0  0  0  0  0  0  0  0  0  0
    8.0491    0.9250   -2.2440 H   0  0  0  0  0  0  0  0  0  0  0  0
  1  2  1  0  0  0  0
  1 37  1  0  0  0  0
  1 38  1  0  0  0  0
  1 39  1  0  0  0  0
  2  3  1  0  0  0  0
  2 40  1  0  0  0  0
  2 41  1  0  0  0  0
  3  4  1  0  0  0  0
  3 42  1  0  0  0  0
  3 43  1  0  0  0  0
  4  5  1  0  0  0  0
  4  6  1  0  0  0  0
  4 44  1  0  0  0  0
  5 45  1  0  0  0  0
  5 46  1  0  0  0  0
  5 47  1  0  0  0  0
  6  7  2  0  0  0  0
  6  8  1  0  0  0  0
  8  9  1  0  0  0  0
  8 36  1  0  0  0  0
  9 10  1  0  0  0  0
  9 48  1  0  0  0  0
  9 49  1  0  0  0  0
 10 11  1  0  0  0  0
 10 50  1  0  0  0  0
 10 51  1  0  0  0  0
 11 12  1  0  0  0  0
 12 13  1  0  0  0  0
 12 36  1  0  0  0  0
 12 52  1  0  0  0  0
 13 14  1  0  0  0  0
 13 53  1  0  0  0  0
 13 54  1  0  0  0  0
 14 15  1  0  0  0  0
 15 16  1  0  0  0  0
 15 33  2  0  0  0  0
 16 17  2  0  0  0  0
 16 55  1  0  0  0  0
 17 18  1  0  0  0  0
 17 31  1  0  0  0  0
 18 19  2  0  0  0  0
 19 20  1  0  0  0  0
 19 56  1  0  0  0  0
 20 21  2  0  0  0  0
 21 22  1  0  0  0  0
 21 31  1  0  0  0  0
 22 23  1  0  0  0  0
 22 57  1  0  0  0  0
 23 24  1  0  0  0  0
 23 30  2  0  0  0  0
 24 25  2  0  0  0  0
 24 58  1  0  0  0  0
 25 26  1  0  0  0  0
 25 59  1  0  0  0  0
 26 27  1  0  0  0  0
 26 28  2  0  0  0  0
 28 29  1  0  0  0  0
 28 30  1  0  0  0  0
 30 60  1  0  0  0  0
 31 32  2  0  0  0  0
 32 33  1  0  0  0  0
 32 61  1  0  0  0  0
 33 34  1  0  0  0  0
 34 35  1  0  0  0  0
 35 62  1  0  0  0  0
 35 63  1  0  0  0  0
 35 64  1  0  0  0  0
 36 65  1  0  0  0  0
 36 66  1  0  0  0  0
M  END
$$$$
