CHEMBL3980252
 OpenBabel04072215373D

 71 74  0  0  1  0  0  0  0  0999 V2000
    9.0901    0.5407    5.8028 C   0  0  0  0  0  0  0  0  0  0  0  0
    7.8595    1.1891    5.6301 O   0  0  0  0  0  0  0  0  0  0  0  0
    7.5684    2.0090    4.5701 C   0  0  0  0  0  0  0  0  0  0  0  0
    8.6074    2.4822    3.7765 C   0  0  0  0  0  0  0  0  0  0  0  0
    8.3601    3.2561    2.6486 C   0  0  0  0  0  0  0  0  0  0  0  0
    9.3904    3.7818    1.9312 O   0  0  0  0  0  0  0  0  0  0  0  0
   10.7260    3.6029    2.2557 C   0  0  0  0  0  0  0  0  0  0  0  0
    7.0336    3.4760    2.2394 C   0  0  0  0  0  0  0  0  0  0  0  0
    5.9103    2.9839    2.9490 C   0  0  0  0  0  0  0  0  0  0  0  0
    4.5341    3.2073    2.3739 N   0  0  0  0  0  0  0  0  0  0  0  0
    4.2902    2.8481    0.9870 C   0  0  0  0  0  0  0  0  0  0  0  0
    5.2913    1.9923    0.1239 C   0  0  2  0  0  0  0  0  0  0  0  0
    4.7062    1.8976   -1.1477 O   0  0  0  0  0  0  0  0  0  0  0  0
    5.6945    0.5489    0.5466 C   0  0  0  0  0  0  0  0  0  0  0  0
    6.4813   -0.0644   -0.5407 N   0  0  0  0  0  0  0  0  0  0  0  0
    7.7679    0.6053   -0.8426 C   0  0  0  0  0  0  0  0  0  0  0  0
    8.8116   -0.5001   -0.9558 C   0  0  0  0  0  0  0  0  0  0  0  0
    7.9933   -1.7298   -1.2902 C   0  0  2  0  0  0  0  0  0  0  0  0
    7.5092   -1.7775   -2.6720 C   0  0  0  0  0  0  0  0  0  0  0  0
    7.1184   -1.7827   -3.7355 N   0  0  0  0  0  0  0  0  0  0  0  0
    6.8101   -1.4858   -0.3458 C   0  0  0  0  0  0  0  0  0  0  0  0
    3.5092    4.0907    3.0181 C   0  0  0  0  0  0  0  0  0  0  0  0
    4.1023    4.7764    4.0176 C   0  0  0  0  0  0  0  0  0  0  0  0
    3.4477    5.5455    4.8155 C   0  0  0  0  0  0  0  0  0  0  0  0
    2.1446    5.7431    4.7429 C   0  0  0  0  0  0  0  0  0  0  0  0
    1.7735    6.1908    5.8815 N   0  0  0  0  0  0  0  0  0  0  0  0
    0.6090    6.5564    6.1931 C   0  0  0  0  0  0  0  0  0  0  0  0
   -0.3253    6.8328    5.2693 C   0  0  0  0  0  0  0  0  0  0  0  0
   -1.2684    7.9682    6.0855 C   0  0  0  0  0  0  0  0  0  0  0  0
   -0.7241    8.5995    7.2886 C   0  0  0  0  0  0  0  0  0  0  0  0
   -1.5548    9.4863    7.8387 N   0  0  0  0  0  0  0  0  0  0  0  0
   -2.6237    9.5824    7.0861 N   0  0  0  0  0  0  0  0  0  0  0  0
   -3.7123   10.4904    7.4757 C   0  0  0  0  0  0  0  0  0  0  0  0
   -2.5321    8.6416    6.0428 C   0  0  0  0  0  0  0  0  0  0  0  0
   -0.0542    6.0815    3.9998 N   0  0  0  0  0  0  0  0  0  0  0  0
    1.2592    5.4061    3.7648 C   0  0  0  0  0  0  0  0  0  0  0  0
    2.0045    4.4448    2.7578 C   0  0  0  0  0  0  0  0  0  0  0  0
    6.2153    2.3244    4.2123 C   0  0  0  0  0  0  0  0  0  0  0  0
    0.8567   -0.0314   -0.0740 Cl  0  0  0  0  0  0  0  0  0  0  0  0
    9.0269   -0.2317    6.5957 H   0  0  0  0  0  0  0  0  0  0  0  0
    9.9021    1.2544    6.0690 H   0  0  0  0  0  0  0  0  0  0  0  0
    9.3839    0.0092    4.8636 H   0  0  0  0  0  0  0  0  0  0  0  0
    9.6282    2.2472    4.0464 H   0  0  0  0  0  0  0  0  0  0  0  0
   11.3736    4.1865    1.5756 H   0  0  0  0  0  0  0  0  0  0  0  0
   10.9859    2.5242    2.1741 H   0  0  0  0  0  0  0  0  0  0  0  0
   10.9189    3.9500    3.2977 H   0  0  0  0  0  0  0  0  0  0  0  0
    6.8759    4.0587    1.3506 H   0  0  0  0  0  0  0  0  0  0  0  0
    4.2481    3.8179    0.4505 H   0  0  0  0  0  0  0  0  0  0  0  0
    3.3212    2.3291    0.9547 H   0  0  0  0  0  0  0  0  0  0  0  0
    6.2299    2.5565   -0.0166 H   0  0  0  0  0  0  0  0  0  0  0  0
    3.8824    1.3502   -1.0368 H   0  0  0  0  0  0  0  0  0  0  0  0
    4.7722   -0.0581    0.6640 H   0  0  0  0  0  0  0  0  0  0  0  0
    6.2733    0.5007    1.4928 H   0  0  0  0  0  0  0  0  0  0  0  0
    8.1036    1.3316   -0.0738 H   0  0  0  0  0  0  0  0  0  0  0  0
    7.6685    1.1238   -1.8191 H   0  0  0  0  0  0  0  0  0  0  0  0
    9.2134   -0.6587    0.0732 H   0  0  0  0  0  0  0  0  0  0  0  0
    9.6628   -0.2968   -1.6196 H   0  0  0  0  0  0  0  0  0  0  0  0
    8.5112   -2.6817   -1.0687 H   0  0  0  0  0  0  0  0  0  0  0  0
    7.1474   -1.6361    0.7141 H   0  0  0  0  0  0  0  0  0  0  0  0
    5.9281   -2.1456   -0.5221 H   0  0  0  0  0  0  0  0  0  0  0  0
    5.1245    4.7221    4.2884 H   0  0  0  0  0  0  0  0  0  0  0  0
    3.9950    6.0030    5.6183 H   0  0  0  0  0  0  0  0  0  0  0  0
    0.5938    6.7357    7.2122 H   0  0  0  0  0  0  0  0  0  0  0  0
    0.2357    8.5220    7.8126 H   0  0  0  0  0  0  0  0  0  0  0  0
   -3.4618   11.0844    8.4050 H   0  0  0  0  0  0  0  0  0  0  0  0
   -4.6661    9.9778    7.6889 H   0  0  0  0  0  0  0  0  0  0  0  0
   -3.8565   11.2363    6.6708 H   0  0  0  0  0  0  0  0  0  0  0  0
   -3.3163    8.5288    5.3180 H   0  0  0  0  0  0  0  0  0  0  0  0
    1.5277    3.9606    1.8899 H   0  0  0  0  0  0  0  0  0  0  0  0
    5.4514    1.9770    4.8971 H   0  0  0  0  0  0  0  0  0  0  0  0
    2.2261   -0.1041    0.0154 H   0  0  0  0  0  0  0  0  0  0  0  0
  1  2  1  0  0  0  0
  1 40  1  0  0  0  0
  1 41  1  0  0  0  0
  1 42  1  0  0  0  0
  2  3  1  0  0  0  0
  3  4  1  0  0  0  0
  3 38  2  0  0  0  0
  4  5  2  0  0  0  0
  4 43  1  0  0  0  0
  5  6  1  0  0  0  0
  5  8  1  0  0  0  0
  6  7  1  0  0  0  0
  7 44  1  0  0  0  0
  7 45  1  0  0  0  0
  7 46  1  0  0  0  0
  8  9  2  0  0  0  0
  8 47  1  0  0  0  0
  9 10  1  0  0  0  0
  9 38  1  0  0  0  0
 10 11  1  0  0  0  0
 10 22  1  0  0  0  0
 11 48  1  0  0  0  0
 11 49  1  0  0  0  0
 12 14  1  0  0  0  0
 12 13  1  0  0  0  0
 12 11  1  0  0  0  0
 12 50  1  6  0  0  0
 13 51  1  0  0  0  0
 14 15  1  0  0  0  0
 14 52  1  0  0  0  0
 14 53  1  0  0  0  0
 15 16  1  0  0  0  0
 15 21  1  0  0  0  0
 16 17  1  0  0  0  0
 16 54  1  0  0  0  0
 16 55  1  0  0  0  0
 17 18  1  0  0  0  0
 17 56  1  0  0  0  0
 17 57  1  0  0  0  0
 18 19  1  0  0  0  0
 18 21  1  0  0  0  0
 18 58  1  1  0  0  0
 19 20  3  0  0  0  0
 21 59  1  0  0  0  0
 21 60  1  0  0  0  0
 22 23  1  0  0  0  0
 22 37  2  0  0  0  0
 23 24  2  0  0  0  0
 23 61  1  0  0  0  0
 24 25  1  0  0  0  0
 24 62  1  0  0  0  0
 25 26  1  0  0  0  0
 25 36  2  0  0  0  0
 26 27  2  0  0  0  0
 27 28  1  0  0  0  0
 27 63  1  0  0  0  0
 28 29  1  0  0  0  0
 28 35  2  0  0  0  0
 29 30  1  0  0  0  0
 29 34  2  0  0  0  0
 30 31  2  0  0  0  0
 30 64  1  0  0  0  0
 31 32  1  0  0  0  0
 32 33  1  0  0  0  0
 32 34  1  0  0  0  0
 33 65  1  0  0  0  0
 33 66  1  0  0  0  0
 33 67  1  0  0  0  0
 34 68  1  0  0  0  0
 35 36  1  0  0  0  0
 36 37  1  0  0  0  0
 37 69  1  0  0  0  0
 38 70  1  0  0  0  0
 39 71  1  0  0  0  0
M  END
$$$$
