CHEMBL1992723
 OpenBabel04072215363D

 25 27  0  0  0  0  0  0  0  0999 V2000
    1.3871   -0.1411    0.0857 C   0  0  0  0  0  0  0  0  0  0  0  0
    0.5867   -1.0933   -0.5449 C   0  0  0  0  0  0  0  0  0  0  0  0
   -0.7947   -0.9051   -0.6230 C   0  0  0  0  0  0  0  0  0  0  0  0
   -1.3832    0.2407   -0.0726 C   0  0  0  0  0  0  0  0  0  0  0  0
   -2.8273    0.4779   -0.2222 C   0  0  0  0  0  0  0  0  0  0  0  0
   -3.6884    0.0031    0.7034 C   0  0  0  0  0  0  0  0  0  0  0  0
   -5.1165    0.2419    0.5440 C   0  0  0  0  0  0  0  0  0  0  0  0
   -5.6037    0.9336   -0.5034 C   0  0  0  0  0  0  0  0  0  0  0  0
   -4.7141    1.4447   -1.4849 C   0  0  0  0  0  0  0  0  0  0  0  0
   -4.9454    2.1429   -2.5785 N   0  0  0  0  0  0  0  0  0  0  0  0
   -3.7148    2.3508   -3.1430 C   0  0  0  0  0  0  0  0  0  0  0  0
   -2.7207    1.7753   -2.3881 C   0  0  0  0  0  0  0  0  0  0  0  0
   -3.3540    1.1940   -1.3128 N   0  0  0  0  0  0  0  0  0  0  0  0
   -0.5765    1.1788    0.5842 C   0  0  0  0  0  0  0  0  0  0  0  0
    0.8056    0.9913    0.6562 C   0  0  0  0  0  0  0  0  0  0  0  0
    2.4647   -0.2801    0.1303 H   0  0  0  0  0  0  0  0  0  0  0  0
    1.0404   -1.9772   -0.9857 H   0  0  0  0  0  0  0  0  0  0  0  0
   -1.4054   -1.6483   -1.1307 H   0  0  0  0  0  0  0  0  0  0  0  0
   -3.3584   -0.5575    1.5742 H   0  0  0  0  0  0  0  0  0  0  0  0
   -5.7853   -0.1581    1.3011 H   0  0  0  0  0  0  0  0  0  0  0  0
   -6.6661    1.1125   -0.6246 H   0  0  0  0  0  0  0  0  0  0  0  0
   -3.6084    2.9032   -4.0669 H   0  0  0  0  0  0  0  0  0  0  0  0
   -1.6492    1.7292   -2.5176 H   0  0  0  0  0  0  0  0  0  0  0  0
   -1.0156    2.0699    1.0267 H   0  0  0  0  0  0  0  0  0  0  0  0
    1.4300    1.7311    1.1490 H   0  0  0  0  0  0  0  0  0  0  0  0
  1  2  1  0  0  0  0
  1 15  2  0  0  0  0
  1 16  1  0  0  0  0
  2  3  2  0  0  0  0
  2 17  1  0  0  0  0
  3  4  1  0  0  0  0
  3 18  1  0  0  0  0
  4  5  1  0  0  0  0
  4 14  2  0  0  0  0
  5  6  2  0  0  0  0
  5 13  1  0  0  0  0
  6  7  1  0  0  0  0
  6 19  1  0  0  0  0
  7  8  2  0  0  0  0
  7 20  1  0  0  0  0
  8  9  1  0  0  0  0
  8 21  1  0  0  0  0
  9 10  2  0  0  0  0
  9 13  1  0  0  0  0
 10 11  1  0  0  0  0
 11 12  2  0  0  0  0
 11 22  1  0  0  0  0
 12 13  1  0  0  0  0
 12 23  1  0  0  0  0
 14 15  1  0  0  0  0
 14 24  1  0  0  0  0
 15 25  1  0  0  0  0
M  END
$$$$
