CHEMBL1965570
 OpenBabel04072215363D

 49 53  0  0  0  0  0  0  0  0999 V2000
    1.2678   -0.1826   -1.7433 N   0  0  0  0  0  0  0  0  0  0  0  0
    2.6269   -0.2090   -1.4554 C   0  0  0  0  0  0  0  0  0  0  0  0
    3.3013    0.8618   -1.9170 N   0  0  0  0  0  0  0  0  0  0  0  0
    4.6154    0.9878   -1.6644 C   0  0  0  0  0  0  0  0  0  0  0  0
    5.3747    0.0915   -0.9315 C   0  0  0  0  0  0  0  0  0  0  0  0
    6.7882    0.3137   -0.6690 C   0  0  0  0  0  0  0  0  0  0  0  0
    7.8785   -0.5944   -0.5450 C   0  0  0  0  0  0  0  0  0  0  0  0
    8.9965    0.1581   -0.2757 C   0  0  0  0  0  0  0  0  0  0  0  0
    8.6816    1.4755   -0.2505 O   0  0  0  0  0  0  0  0  0  0  0  0
    7.3480    1.5653   -0.4908 C   0  0  0  0  0  0  0  0  0  0  0  0
    4.6730   -1.0392   -0.4577 C   0  0  0  0  0  0  0  0  0  0  0  0
    5.2948   -2.3184    0.5259 S   0  0  0  0  0  0  0  0  0  0  0  0
    3.8439   -3.1671    0.4962 C   0  0  0  0  0  0  0  0  0  0  0  0
    2.8235   -2.4896   -0.1424 C   0  0  0  0  0  0  0  0  0  0  0  0
    1.4794   -3.0787   -0.1006 C   0  0  0  0  0  0  0  0  0  0  0  0
    1.0522   -3.6815    1.0870 C   0  0  0  0  0  0  0  0  0  0  0  0
   -0.2016   -4.2744    1.1796 C   0  0  0  0  0  0  0  0  0  0  0  0
   -1.0994   -4.2284    0.1165 C   0  0  0  0  0  0  0  0  0  0  0  0
   -2.3934   -4.7880    0.1919 N   0  0  0  0  0  0  0  0  0  0  0  0
   -2.9704   -5.2999    1.3439 C   0  0  0  0  0  0  0  0  0  0  0  0
   -2.4929   -5.2079    2.4706 O   0  0  0  0  0  0  0  0  0  0  0  0
   -4.1501   -5.9703    1.0822 N   0  0  0  0  0  0  0  0  0  0  0  0
   -4.8981   -6.5600    2.1375 C   0  0  0  0  0  0  0  0  0  0  0  0
   -5.0313   -5.9450    3.3886 C   0  0  0  0  0  0  0  0  0  0  0  0
   -5.7184   -6.5852    4.4204 C   0  0  0  0  0  0  0  0  0  0  0  0
   -6.2872   -7.8414    4.2081 C   0  0  0  0  0  0  0  0  0  0  0  0
   -6.1665   -8.4544    2.9573 C   0  0  0  0  0  0  0  0  0  0  0  0
   -5.4915   -7.8031    1.9309 C   0  0  0  0  0  0  0  0  0  0  0  0
   -5.3544   -8.4170    0.7434 F   0  0  0  0  0  0  0  0  0  0  0  0
   -0.6865   -3.6300   -1.0769 C   0  0  0  0  0  0  0  0  0  0  0  0
    0.6094   -3.0929   -1.1931 C   0  0  0  0  0  0  0  0  0  0  0  0
    3.2969   -1.2292   -0.7233 C   0  0  0  0  0  0  0  0  0  0  0  0
    1.0258    0.7433   -2.0815 H   0  0  0  0  0  0  0  0  0  0  0  0
    0.6904   -0.5205   -0.9837 H   0  0  0  0  0  0  0  0  0  0  0  0
    5.0577    1.8834   -2.0935 H   0  0  0  0  0  0  0  0  0  0  0  0
    7.8664   -1.6715   -0.6294 H   0  0  0  0  0  0  0  0  0  0  0  0
   10.0341   -0.0821   -0.0926 H   0  0  0  0  0  0  0  0  0  0  0  0
    6.9551    2.5732   -0.4931 H   0  0  0  0  0  0  0  0  0  0  0  0
    3.7943   -4.1240    1.0015 H   0  0  0  0  0  0  0  0  0  0  0  0
    1.6889   -3.7159    1.9709 H   0  0  0  0  0  0  0  0  0  0  0  0
   -0.4287   -4.7657    2.1183 H   0  0  0  0  0  0  0  0  0  0  0  0
   -3.0016   -4.6823   -0.6047 H   0  0  0  0  0  0  0  0  0  0  0  0
   -4.1833   -6.4667    0.2037 H   0  0  0  0  0  0  0  0  0  0  0  0
   -4.5920   -4.9684    3.5830 H   0  0  0  0  0  0  0  0  0  0  0  0
   -5.7984   -6.1048    5.3921 H   0  0  0  0  0  0  0  0  0  0  0  0
   -6.8072   -8.3419    5.0141 H   0  0  0  0  0  0  0  0  0  0  0  0
   -6.5807   -9.4458    2.7889 H   0  0  0  0  0  0  0  0  0  0  0  0
   -1.3507   -3.5772   -1.9360 H   0  0  0  0  0  0  0  0  0  0  0  0
    0.9146   -2.6759   -2.1521 H   0  0  0  0  0  0  0  0  0  0  0  0
  1  2  1  0  0  0  0
  1 33  1  0  0  0  0
  1 34  1  0  0  0  0
  2  3  1  0  0  0  0
  2 32  2  0  0  0  0
  3  4  2  0  0  0  0
  4  5  1  0  0  0  0
  4 35  1  0  0  0  0
  5  6  1  0  0  0  0
  5 11  2  0  0  0  0
  6  7  1  0  0  0  0
  6 10  2  0  0  0  0
  7  8  2  0  0  0  0
  7 36  1  0  0  0  0
  8  9  1  0  0  0  0
  8 37  1  0  0  0  0
  9 10  1  0  0  0  0
 10 38  1  0  0  0  0
 11 12  1  0  0  0  0
 11 32  1  0  0  0  0
 12 13  1  0  0  0  0
 13 14  2  0  0  0  0
 13 39  1  0  0  0  0
 14 15  1  0  0  0  0
 14 32  1  0  0  0  0
 15 16  1  0  0  0  0
 15 31  2  0  0  0  0
 16 17  2  0  0  0  0
 16 40  1  0  0  0  0
 17 18  1  0  0  0  0
 17 41  1  0  0  0  0
 18 19  1  0  0  0  0
 18 30  2  0  0  0  0
 19 20  1  0  0  0  0
 19 42  1  0  0  0  0
 20 21  2  0  0  0  0
 20 22  1  0  0  0  0
 22 23  1  0  0  0  0
 22 43  1  0  0  0  0
 23 24  1  0  0  0  0
 23 28  2  0  0  0  0
 24 25  2  0  0  0  0
 24 44  1  0  0  0  0
 25 26  1  0  0  0  0
 25 45  1  0  0  0  0
 26 27  2  0  0  0  0
 26 46  1  0  0  0  0
 27 28  1  0  0  0  0
 27 47  1  0  0  0  0
 28 29  1  0  0  0  0
 30 31  1  0  0  0  0
 30 48  1  0  0  0  0
 31 49  1  0  0  0  0
M  END
$$$$
