CHEMBL461293
 OpenBabel04072215383D

 65 69  0  0  0  0  0  0  0  0999 V2000
    5.1568    0.3237    1.6292 C   0  0  0  0  0  0  0  0  0  0  0  0
    6.2629    1.1501    1.2696 O   0  0  0  0  0  0  0  0  0  0  0  0
    6.0372    1.9658    0.1937 C   0  0  0  0  0  0  0  0  0  0  0  0
    4.7829    2.4086   -0.1966 C   0  0  0  0  0  0  0  0  0  0  0  0
    4.6574    3.2113   -1.3223 C   0  0  0  0  0  0  0  0  0  0  0  0
    5.7896    3.6879   -2.0182 C   0  0  0  0  0  0  0  0  0  0  0  0
    5.7402    4.6345   -3.0709 C   0  0  0  0  0  0  0  0  0  0  0  0
    4.5931    5.2549   -3.5403 O   0  0  0  0  0  0  0  0  0  0  0  0
    3.7027    5.8479   -2.6663 C   0  0  0  0  0  0  0  0  0  0  0  0
    4.0007    6.2263   -1.3589 C   0  0  0  0  0  0  0  0  0  0  0  0
    2.9778    6.6411   -0.4962 C   0  0  0  0  0  0  0  0  0  0  0  0
    1.6550    6.7757   -0.9398 C   0  0  0  0  0  0  0  0  0  0  0  0
    0.5919    7.1565   -0.0802 N   0  0  0  0  0  0  0  0  0  0  0  0
    0.6142    7.0592    1.3039 C   0  0  0  0  0  0  0  0  0  0  0  0
    1.5071    6.5004    1.9377 O   0  0  0  0  0  0  0  0  0  0  0  0
   -0.5364    7.6532    2.0307 C   0  0  0  0  0  0  0  0  0  0  0  0
   -0.6392    7.9293    3.3509 C   0  0  0  0  0  0  0  0  0  0  0  0
    0.3759    7.6608    4.4187 C   0  0  0  0  0  0  0  0  0  0  0  0
   -1.8509    8.5591    3.6624 N   0  0  0  0  0  0  0  0  0  0  0  0
   -2.4467    8.7381    4.9954 C   0  0  0  0  0  0  0  0  0  0  0  0
   -3.7229    7.9587    5.2805 C   0  0  0  0  0  0  0  0  0  0  0  0
   -3.8268    6.5227    4.8422 C   0  0  0  0  0  0  0  0  0  0  0  0
   -4.6355    8.4660    5.9429 O   0  0  0  0  0  0  0  0  0  0  0  0
   -2.6203    8.5704    2.4931 N   0  0  0  0  0  0  0  0  0  0  0  0
   -3.7848    9.3473    2.3197 C   0  0  0  0  0  0  0  0  0  0  0  0
   -4.8753    8.7674    1.6693 C   0  0  0  0  0  0  0  0  0  0  0  0
   -6.0832    9.4530    1.5568 C   0  0  0  0  0  0  0  0  0  0  0  0
   -6.1939   10.7511    2.0508 C   0  0  0  0  0  0  0  0  0  0  0  0
   -5.0990   11.3595    2.6641 C   0  0  0  0  0  0  0  0  0  0  0  0
   -3.8991   10.6538    2.8157 C   0  0  0  0  0  0  0  0  0  0  0  0
   -1.8302    8.0957    1.4365 C   0  0  0  0  0  0  0  0  0  0  0  0
   -2.0666    8.0524    0.2376 O   0  0  0  0  0  0  0  0  0  0  0  0
    1.3830    6.5273   -2.2866 C   0  0  0  0  0  0  0  0  0  0  0  0
    2.3974    6.0472   -3.1274 C   0  0  0  0  0  0  0  0  0  0  0  0
    2.0828    5.7357   -4.3936 F   0  0  0  0  0  0  0  0  0  0  0  0
    6.9036    4.9614   -3.7621 C   0  0  0  0  0  0  0  0  0  0  0  0
    8.0900    4.3987   -3.3381 C   0  0  0  0  0  0  0  0  0  0  0  0
    8.1892    3.5626   -2.2820 N   0  0  0  0  0  0  0  0  0  0  0  0
    7.0639    3.2175   -1.6307 C   0  0  0  0  0  0  0  0  0  0  0  0
    7.1613    2.3708   -0.5299 C   0  0  0  0  0  0  0  0  0  0  0  0
    5.4930   -0.3858    2.3896 H   0  0  0  0  0  0  0  0  0  0  0  0
    4.8012   -0.2497    0.7651 H   0  0  0  0  0  0  0  0  0  0  0  0
    4.3443    0.9133    2.0672 H   0  0  0  0  0  0  0  0  0  0  0  0
    3.8831    2.1701    0.3592 H   0  0  0  0  0  0  0  0  0  0  0  0
    3.6541    3.4942   -1.6241 H   0  0  0  0  0  0  0  0  0  0  0  0
    5.0065    6.1389   -0.9577 H   0  0  0  0  0  0  0  0  0  0  0  0
    3.2554    6.8548    0.5327 H   0  0  0  0  0  0  0  0  0  0  0  0
   -0.2873    7.4414   -0.5141 H   0  0  0  0  0  0  0  0  0  0  0  0
    1.3047    7.2242    4.0518 H   0  0  0  0  0  0  0  0  0  0  0  0
   -0.0273    6.9621    5.1593 H   0  0  0  0  0  0  0  0  0  0  0  0
    0.6484    8.5916    4.9249 H   0  0  0  0  0  0  0  0  0  0  0  0
   -2.6677    9.7996    5.1431 H   0  0  0  0  0  0  0  0  0  0  0  0
   -1.7348    8.4689    5.7833 H   0  0  0  0  0  0  0  0  0  0  0  0
   -2.8386    6.0686    4.7488 H   0  0  0  0  0  0  0  0  0  0  0  0
   -4.3624    6.4674    3.8925 H   0  0  0  0  0  0  0  0  0  0  0  0
   -4.3814    5.9591    5.6002 H   0  0  0  0  0  0  0  0  0  0  0  0
   -4.8075    7.7475    1.2927 H   0  0  0  0  0  0  0  0  0  0  0  0
   -6.9407    8.9708    1.0943 H   0  0  0  0  0  0  0  0  0  0  0  0
   -7.1345   11.2892    1.9567 H   0  0  0  0  0  0  0  0  0  0  0  0
   -5.1828   12.3786    3.0290 H   0  0  0  0  0  0  0  0  0  0  0  0
   -3.0534   11.1503    3.2799 H   0  0  0  0  0  0  0  0  0  0  0  0
    0.3824    6.6381   -2.6930 H   0  0  0  0  0  0  0  0  0  0  0  0
    6.8846    5.6397   -4.6071 H   0  0  0  0  0  0  0  0  0  0  0  0
    9.0272    4.6153   -3.8449 H   0  0  0  0  0  0  0  0  0  0  0  0
    8.1450    2.0191   -0.2247 H   0  0  0  0  0  0  0  0  0  0  0  0
  1  2  1  0  0  0  0
  1 41  1  0  0  0  0
  1 42  1  0  0  0  0
  1 43  1  0  0  0  0
  2  3  1  0  0  0  0
  3  4  1  0  0  0  0
  3 40  2  0  0  0  0
  4  5  2  0  0  0  0
  4 44  1  0  0  0  0
  5  6  1  0  0  0  0
  5 45  1  0  0  0  0
  6  7  1  0  0  0  0
  6 39  2  0  0  0  0
  7  8  1  0  0  0  0
  7 36  2  0  0  0  0
  8  9  1  0  0  0  0
  9 10  1  0  0  0  0
  9 34  2  0  0  0  0
 10 11  2  0  0  0  0
 10 46  1  0  0  0  0
 11 12  1  0  0  0  0
 11 47  1  0  0  0  0
 12 13  1  0  0  0  0
 12 33  2  0  0  0  0
 13 14  1  0  0  0  0
 13 48  1  0  0  0  0
 14 15  2  0  0  0  0
 14 16  1  0  0  0  0
 16 17  2  0  0  0  0
 16 31  1  0  0  0  0
 17 18  1  0  0  0  0
 17 19  1  0  0  0  0
 18 49  1  0  0  0  0
 18 50  1  0  0  0  0
 18 51  1  0  0  0  0
 19 20  1  0  0  0  0
 19 24  1  0  0  0  0
 20 21  1  0  0  0  0
 20 52  1  0  0  0  0
 20 53  1  0  0  0  0
 21 22  1  0  0  0  0
 21 23  2  0  0  0  0
 22 54  1  0  0  0  0
 22 55  1  0  0  0  0
 22 56  1  0  0  0  0
 24 25  1  0  0  0  0
 24 31  1  0  0  0  0
 25 26  1  0  0  0  0
 25 30  2  0  0  0  0
 26 27  2  0  0  0  0
 26 57  1  0  0  0  0
 27 28  1  0  0  0  0
 27 58  1  0  0  0  0
 28 29  2  0  0  0  0
 28 59  1  0  0  0  0
 29 30  1  0  0  0  0
 29 60  1  0  0  0  0
 30 61  1  0  0  0  0
 31 32  2  0  0  0  0
 33 34  1  0  0  0  0
 33 62  1  0  0  0  0
 34 35  1  0  0  0  0
 36 37  1  0  0  0  0
 36 63  1  0  0  0  0
 37 38  2  0  0  0  0
 37 64  1  0  0  0  0
 38 39  1  0  0  0  0
 39 40  1  0  0  0  0
 40 65  1  0  0  0  0
M  END
$$$$
