CHEMBL1968130
 OpenBabel04072215363D

 15 16  0  0  0  0  0  0  0  0999 V2000
    1.0648   -0.0893    0.0032 N   0  0  0  0  0  0  0  0  0  0  0  0
    2.4070   -0.0729   -0.0069 C   0  0  0  0  0  0  0  0  0  0  0  0
    3.1890    0.9891   -0.0114 N   0  0  0  0  0  0  0  0  0  0  0  0
    4.5047    0.5720   -0.0170 N   0  0  0  0  0  0  0  0  0  0  0  0
    4.4777   -0.7362   -0.0162 C   0  0  0  0  0  0  0  0  0  0  0  0
    5.5684   -1.6603   -0.0202 C   0  0  0  0  0  0  0  0  0  0  0  0
    5.3634   -2.9513   -0.0211 N   0  0  0  0  0  0  0  0  0  0  0  0
    4.0441   -3.3905   -0.0180 C   0  0  0  0  0  0  0  0  0  0  0  0
    2.9634   -2.5806   -0.0131 C   0  0  0  0  0  0  0  0  0  0  0  0
    1.3744   -3.2467   -0.0104 Cl  0  0  0  0  0  0  0  0  0  0  0  0
    3.1915   -1.2093   -0.0118 N   0  0  0  0  0  0  0  0  0  0  0  0
    0.5543    0.7881   -0.0177 H   0  0  0  0  0  0  0  0  0  0  0  0
    0.5045   -0.9346   -0.0208 H   0  0  0  0  0  0  0  0  0  0  0  0
    6.5995   -1.2721   -0.0224 H   0  0  0  0  0  0  0  0  0  0  0  0
    3.9234   -4.4722   -0.0200 H   0  0  0  0  0  0  0  0  0  0  0  0
  1  2  1  0  0  0  0
  1 12  1  0  0  0  0
  1 13  1  0  0  0  0
  2  3  2  0  0  0  0
  2 11  1  0  0  0  0
  3  4  1  0  0  0  0
  4  5  2  0  0  0  0
  5  6  1  0  0  0  0
  5 11  1  0  0  0  0
  6  7  2  0  0  0  0
  6 14  1  0  0  0  0
  7  8  1  0  0  0  0
  8  9  2  0  0  0  0
  8 15  1  0  0  0  0
  9 10  1  0  0  0  0
  9 11  1  0  0  0  0
M  END
$$$$
