CHEMBL3911858
 OpenBabel04072215373D

 46 49  0  0  0  0  0  0  0  0999 V2000
    2.8370    0.7512   -2.3236 C   0  0  0  0  0  0  0  0  0  0  0  0
    1.4253    0.4989   -1.8769 C   0  0  0  0  0  0  0  0  0  0  0  0
    0.9023   -0.7957   -1.9542 C   0  0  0  0  0  0  0  0  0  0  0  0
   -0.3890   -1.0484   -1.5219 C   0  0  0  0  0  0  0  0  0  0  0  0
   -1.1772   -0.0125   -1.0230 C   0  0  0  0  0  0  0  0  0  0  0  0
   -2.3582   -0.3731   -0.5110 F   0  0  0  0  0  0  0  0  0  0  0  0
   -0.7105    1.3117   -0.9805 C   0  0  0  0  0  0  0  0  0  0  0  0
   -1.4793    2.4283   -0.5441 N   0  0  0  0  0  0  0  0  0  0  0  0
   -2.8575    2.4655   -0.4492 C   0  0  0  0  0  0  0  0  0  0  0  0
   -3.6172    1.5588   -0.7695 O   0  0  0  0  0  0  0  0  0  0  0  0
   -3.3379    3.6983   -0.0139 N   0  0  0  0  0  0  0  0  0  0  0  0
   -4.7386    3.8591    0.1590 C   0  0  0  0  0  0  0  0  0  0  0  0
   -5.4788    2.9743    0.9448 C   0  0  0  0  0  0  0  0  0  0  0  0
   -6.8789    3.0514    0.9864 C   0  0  0  0  0  0  0  0  0  0  0  0
   -7.5813    4.0179    0.2487 C   0  0  0  0  0  0  0  0  0  0  0  0
   -9.0662    4.0014    0.1695 C   0  0  0  0  0  0  0  0  0  0  0  0
   -9.8798    3.6010    1.2454 C   0  0  0  0  0  0  0  0  0  0  0  0
  -11.2592    3.5842    1.1165 C   0  0  0  0  0  0  0  0  0  0  0  0
  -11.9383    3.9560    0.0201 N   0  0  0  0  0  0  0  0  0  0  0  0
  -11.1809    4.3245   -1.0420 C   0  0  0  0  0  0  0  0  0  0  0  0
  -11.7058    4.7762   -2.2938 C   0  0  0  0  0  0  0  0  0  0  0  0
  -10.7233    5.0860   -3.2107 C   0  0  0  0  0  0  0  0  0  0  0  0
  -10.8837    5.6257   -4.5467 C   0  0  0  0  0  0  0  0  0  0  0  0
  -11.9547    5.8673   -5.0875 O   0  0  0  0  0  0  0  0  0  0  0  0
   -9.6999    5.8752   -5.1697 O   0  0  0  0  0  0  0  0  0  0  0  0
   -9.1855    4.7200   -2.5905 S   0  0  0  0  0  0  0  0  0  0  0  0
   -9.7798    4.3301   -1.0163 C   0  0  0  0  0  0  0  0  0  0  0  0
   -6.7965    4.9670   -0.4400 C   0  0  0  0  0  0  0  0  0  0  0  0
   -5.3979    4.8843   -0.5053 C   0  0  0  0  0  0  0  0  0  0  0  0
    0.6159    1.5478   -1.3889 C   0  0  0  0  0  0  0  0  0  0  0  0
    3.3183   -0.1769   -2.6551 H   0  0  0  0  0  0  0  0  0  0  0  0
    3.4318    1.1515   -1.4977 H   0  0  0  0  0  0  0  0  0  0  0  0
    2.8552    1.4500   -3.1656 H   0  0  0  0  0  0  0  0  0  0  0  0
    1.5025   -1.6197   -2.3341 H   0  0  0  0  0  0  0  0  0  0  0  0
   -0.8061   -2.0498   -1.5498 H   0  0  0  0  0  0  0  0  0  0  0  0
   -0.9902    3.2967   -0.4017 H   0  0  0  0  0  0  0  0  0  0  0  0
   -2.8579    4.4836   -0.4249 H   0  0  0  0  0  0  0  0  0  0  0  0
   -4.9769    2.1860    1.5014 H   0  0  0  0  0  0  0  0  0  0  0  0
   -7.4067    2.3017    1.5716 H   0  0  0  0  0  0  0  0  0  0  0  0
   -9.4467    3.2932    2.1929 H   0  0  0  0  0  0  0  0  0  0  0  0
  -11.8834    3.2531    1.9449 H   0  0  0  0  0  0  0  0  0  0  0  0
  -12.7658    4.8822   -2.4944 H   0  0  0  0  0  0  0  0  0  0  0  0
   -8.9375    5.6240   -4.6130 H   0  0  0  0  0  0  0  0  0  0  0  0
   -7.2643    5.7824   -0.9846 H   0  0  0  0  0  0  0  0  0  0  0  0
   -4.8616    5.5751   -1.1490 H   0  0  0  0  0  0  0  0  0  0  0  0
    1.0285    2.5548   -1.3551 H   0  0  0  0  0  0  0  0  0  0  0  0
  1  2  1  0  0  0  0
  1 31  1  0  0  0  0
  1 32  1  0  0  0  0
  1 33  1  0  0  0  0
  2  3  1  0  0  0  0
  2 30  2  0  0  0  0
  3  4  2  0  0  0  0
  3 34  1  0  0  0  0
  4  5  1  0  0  0  0
  4 35  1  0  0  0  0
  5  6  1  0  0  0  0
  5  7  2  0  0  0  0
  7  8  1  0  0  0  0
  7 30  1  0  0  0  0
  8  9  1  0  0  0  0
  8 36  1  0  0  0  0
  9 10  2  0  0  0  0
  9 11  1  0  0  0  0
 11 12  1  0  0  0  0
 11 37  1  0  0  0  0
 12 13  1  0  0  0  0
 12 29  2  0  0  0  0
 13 14  2  0  0  0  0
 13 38  1  0  0  0  0
 14 15  1  0  0  0  0
 14 39  1  0  0  0  0
 15 16  1  0  0  0  0
 15 28  2  0  0  0  0
 16 17  1  0  0  0  0
 16 27  2  0  0  0  0
 17 18  2  0  0  0  0
 17 40  1  0  0  0  0
 18 19  1  0  0  0  0
 18 41  1  0  0  0  0
 19 20  2  0  0  0  0
 20 21  1  0  0  0  0
 20 27  1  0  0  0  0
 21 22  2  0  0  0  0
 21 42  1  0  0  0  0
 22 23  1  0  0  0  0
 22 26  1  0  0  0  0
 23 24  2  0  0  0  0
 23 25  1  0  0  0  0
 25 43  1  0  0  0  0
 26 27  1  0  0  0  0
 28 29  1  0  0  0  0
 28 44  1  0  0  0  0
 29 45  1  0  0  0  0
 30 46  1  0  0  0  0
M  END
$$$$
