CHEMBL370951
 OpenBabel04072215373D

 39 41  0  0  0  0  0  0  0  0999 V2000
    4.7129   -3.7592    2.7264 O   0  0  0  0  0  0  0  0  0  0  0  0
    5.9424   -3.7055    2.7233 C   0  0  0  0  0  0  0  0  0  0  0  0
    6.7429   -4.8696    3.3077 C   0  0  0  0  0  0  0  0  0  0  0  0
    6.0141   -6.0866    3.2175 O   0  0  0  0  0  0  0  0  0  0  0  0
    6.7102   -2.6588    2.2414 N   0  0  0  0  0  0  0  0  0  0  0  0
    6.2078   -1.3994    1.8323 C   0  0  0  0  0  0  0  0  0  0  0  0
    4.9104   -0.9644    2.0856 C   0  0  0  0  0  0  0  0  0  0  0  0
    4.4331    0.2491    1.7261 N   0  0  0  0  0  0  0  0  0  0  0  0
    5.2797    1.0692    1.0711 C   0  0  0  0  0  0  0  0  0  0  0  0
    6.6069    0.7688    0.7650 C   0  0  0  0  0  0  0  0  0  0  0  0
    7.4589    1.7208    0.0340 C   0  0  0  0  0  0  0  0  0  0  0  0
    7.3324    3.1048    0.1203 C   0  0  0  0  0  0  0  0  0  0  0  0
    8.0736    3.9669   -0.6139 N   0  0  0  0  0  0  0  0  0  0  0  0
    8.9673    3.3823   -1.4471 C   0  0  0  0  0  0  0  0  0  0  0  0
    9.1553    2.0012   -1.5432 C   0  0  0  0  0  0  0  0  0  0  0  0
   10.1466    1.4889   -2.4066 N   0  0  0  0  0  0  0  0  0  0  0  0
   10.7327    0.2076   -2.4341 C   0  0  0  0  0  0  0  0  0  0  0  0
   11.9993    0.0521   -3.0196 C   0  0  0  0  0  0  0  0  0  0  0  0
   12.6683   -1.1761   -2.9855 C   0  0  0  0  0  0  0  0  0  0  0  0
   12.0759   -2.2751   -2.3684 C   0  0  0  0  0  0  0  0  0  0  0  0
   10.8067   -2.1457   -1.8183 C   0  0  0  0  0  0  0  0  0  0  0  0
   10.0639   -3.4886   -1.0366 Cl  0  0  0  0  0  0  0  0  0  0  0  0
   10.1354   -0.9243   -1.8716 C   0  0  0  0  0  0  0  0  0  0  0  0
    8.3907    1.1773   -0.7888 N   0  0  0  0  0  0  0  0  0  0  0  0
    7.0590   -0.5069    1.1656 C   0  0  0  0  0  0  0  0  0  0  0  0
    6.9241   -4.6579    4.3661 H   0  0  0  0  0  0  0  0  0  0  0  0
    7.6979   -4.9958    2.7931 H   0  0  0  0  0  0  0  0  0  0  0  0
    5.0681   -5.8390    3.2987 H   0  0  0  0  0  0  0  0  0  0  0  0
    7.6979   -2.8300    2.0877 H   0  0  0  0  0  0  0  0  0  0  0  0
    4.1855   -1.5689    2.6200 H   0  0  0  0  0  0  0  0  0  0  0  0
    4.8210    2.0076    0.7741 H   0  0  0  0  0  0  0  0  0  0  0  0
    6.6263    3.5779    0.7944 H   0  0  0  0  0  0  0  0  0  0  0  0
    9.5604    4.0769   -2.0328 H   0  0  0  0  0  0  0  0  0  0  0  0
   10.6995    2.2033   -2.8615 H   0  0  0  0  0  0  0  0  0  0  0  0
   12.4959    0.8978   -3.4898 H   0  0  0  0  0  0  0  0  0  0  0  0
   13.6574   -1.2688   -3.4263 H   0  0  0  0  0  0  0  0  0  0  0  0
   12.6038   -3.2230   -2.3201 H   0  0  0  0  0  0  0  0  0  0  0  0
    9.1356   -0.8750   -1.4528 H   0  0  0  0  0  0  0  0  0  0  0  0
    8.0828   -0.7982    0.9363 H   0  0  0  0  0  0  0  0  0  0  0  0
  1  2  2  0  0  0  0
  2  3  1  0  0  0  0
  2  5  1  0  0  0  0
  3  4  1  0  0  0  0
  3 26  1  0  0  0  0
  3 27  1  0  0  0  0
  4 28  1  0  0  0  0
  5  6  1  0  0  0  0
  5 29  1  0  0  0  0
  6  7  1  0  0  0  0
  6 25  2  0  0  0  0
  7  8  2  0  0  0  0
  7 30  1  0  0  0  0
  8  9  1  0  0  0  0
  9 10  2  0  0  0  0
  9 31  1  0  0  0  0
 10 11  1  0  0  0  0
 10 25  1  0  0  0  0
 11 12  1  0  0  0  0
 11 24  2  0  0  0  0
 12 13  2  0  0  0  0
 12 32  1  0  0  0  0
 13 14  1  0  0  0  0
 14 15  2  0  0  0  0
 14 33  1  0  0  0  0
 15 16  1  0  0  0  0
 15 24  1  0  0  0  0
 16 17  1  0  0  0  0
 16 34  1  0  0  0  0
 17 18  1  0  0  0  0
 17 23  2  0  0  0  0
 18 19  2  0  0  0  0
 18 35  1  0  0  0  0
 19 20  1  0  0  0  0
 19 36  1  0  0  0  0
 20 21  2  0  0  0  0
 20 37  1  0  0  0  0
 21 22  1  0  0  0  0
 21 23  1  0  0  0  0
 23 38  1  0  0  0  0
 25 39  1  0  0  0  0
M  END
$$$$
