CHEMBL3690417
 OpenBabel04072215373D

 67 71  0  0  0  0  0  0  0  0999 V2000
    3.7829    1.5973    1.5304 C   0  0  0  0  0  0  0  0  0  0  0  0
    2.7887    2.0195    0.4438 C   0  0  0  0  0  0  0  0  0  0  0  0
    1.7282    0.9405    0.1822 C   0  0  0  0  0  0  0  0  0  0  0  0
    2.0573    3.2848    0.9312 C   0  0  0  0  0  0  0  0  0  0  0  0
    3.4979    2.4003   -0.7690 O   0  0  0  0  0  0  0  0  0  0  0  0
    4.1728    1.4635   -1.4969 C   0  0  0  0  0  0  0  0  0  0  0  0
    4.2305    0.2783   -1.2144 O   0  0  0  0  0  0  0  0  0  0  0  0
    4.7831    1.9949   -2.6228 N   0  0  0  0  0  0  0  0  0  0  0  0
    5.0006    3.4369   -2.8207 C   0  0  0  0  0  0  0  0  0  0  0  0
    4.4997    3.9086   -4.1903 C   0  0  0  0  0  0  0  0  0  0  0  0
    4.8429    2.9150   -5.2468 C   0  0  0  0  0  0  0  0  0  0  0  0
    4.7378    3.2385   -6.5708 N   0  0  0  0  0  0  0  0  0  0  0  0
    4.9865    2.1927   -7.3464 C   0  0  0  0  0  0  0  0  0  0  0  0
    4.8492    2.2023   -8.7909 C   0  0  0  0  0  0  0  0  0  0  0  0
    4.8562    1.0229   -9.6784 C   0  0  0  0  0  0  0  0  0  0  0  0
    4.3922    1.1171  -10.9390 C   0  0  0  0  0  0  0  0  0  0  0  0
    4.2033    2.3811  -11.4970 N   0  0  0  0  0  0  0  0  0  0  0  0
    4.0880    2.7741  -12.8270 C   0  0  0  0  0  0  0  0  0  0  0  0
    4.2044    1.9403  -14.0379 C   0  0  0  0  0  0  0  0  0  0  0  0
    3.4653    2.2891  -15.1732 C   0  0  0  0  0  0  0  0  0  0  0  0
    3.6297    1.5960  -16.3719 C   0  0  0  0  0  0  0  0  0  0  0  0
    4.5381    0.5468  -16.4647 C   0  0  0  0  0  0  0  0  0  0  0  0
    5.3020    0.1850  -15.3583 C   0  0  0  0  0  0  0  0  0  0  0  0
    6.2653   -0.8780  -15.3878 N   0  0  0  0  0  0  0  0  0  0  0  0
    6.6280   -1.6061  -16.4935 C   0  0  0  0  0  0  0  0  0  0  0  0
    6.2364   -1.4626  -17.6444 O   0  0  0  0  0  0  0  0  0  0  0  0
    7.5285   -2.6144  -16.1887 N   0  0  0  0  0  0  0  0  0  0  0  0
    8.0383   -3.4564  -17.2832 C   0  0  0  0  0  0  0  0  0  0  0  0
    9.1299   -2.8355  -18.1696 C   0  0  0  0  0  0  0  0  0  0  0  0
    9.5650   -1.6484  -17.6892 F   0  0  0  0  0  0  0  0  0  0  0  0
   10.2101   -3.6571  -18.2130 F   0  0  0  0  0  0  0  0  0  0  0  0
    8.7179   -2.6534  -19.4410 F   0  0  0  0  0  0  0  0  0  0  0  0
    5.1253    0.8777  -14.1501 C   0  0  0  0  0  0  0  0  0  0  0  0
    3.9987    4.1587  -12.7498 C   0  0  0  0  0  0  0  0  0  0  0  0
    4.1085    4.6200  -11.4686 N   0  0  0  0  0  0  0  0  0  0  0  0
    4.2895    3.5449  -10.7354 C   0  0  0  0  0  0  0  0  0  0  0  0
    4.5714    3.4105   -9.3497 C   0  0  0  0  0  0  0  0  0  0  0  0
    5.4323    0.7678   -6.4290 S   0  0  0  0  0  0  0  0  0  0  0  0
    5.2315    1.6283   -4.9674 C   0  0  0  0  0  0  0  0  0  0  0  0
    5.4273    1.0778   -3.5845 C   0  0  0  0  0  0  0  0  0  0  0  0
    3.2724    1.3734    2.4732 H   0  0  0  0  0  0  0  0  0  0  0  0
    4.5127    2.3944    1.7142 H   0  0  0  0  0  0  0  0  0  0  0  0
    4.3548    0.7117    1.2409 H   0  0  0  0  0  0  0  0  0  0  0  0
    1.1397    0.7363    1.0836 H   0  0  0  0  0  0  0  0  0  0  0  0
    2.1656   -0.0091   -0.1347 H   0  0  0  0  0  0  0  0  0  0  0  0
    1.0445    1.2534   -0.6150 H   0  0  0  0  0  0  0  0  0  0  0  0
    1.5255    3.1022    1.8732 H   0  0  0  0  0  0  0  0  0  0  0  0
    1.3249    3.6282    0.1910 H   0  0  0  0  0  0  0  0  0  0  0  0
    2.7563    4.1124    1.0874 H   0  0  0  0  0  0  0  0  0  0  0  0
    6.0830    3.6014   -2.7387 H   0  0  0  0  0  0  0  0  0  0  0  0
    4.5321    4.0327   -2.0317 H   0  0  0  0  0  0  0  0  0  0  0  0
    4.9299    4.8855   -4.4325 H   0  0  0  0  0  0  0  0  0  0  0  0
    3.4097    4.0191   -4.1636 H   0  0  0  0  0  0  0  0  0  0  0  0
    5.2609    0.0819   -9.3224 H   0  0  0  0  0  0  0  0  0  0  0  0
    4.2538    0.2606  -11.5843 H   0  0  0  0  0  0  0  0  0  0  0  0
    2.7665    3.1222  -15.1475 H   0  0  0  0  0  0  0  0  0  0  0  0
    3.0540    1.8834  -17.2488 H   0  0  0  0  0  0  0  0  0  0  0  0
    4.6278    0.0446  -17.4182 H   0  0  0  0  0  0  0  0  0  0  0  0
    6.7389   -1.1050  -14.5207 H   0  0  0  0  0  0  0  0  0  0  0  0
    8.1445   -2.4525  -15.4102 H   0  0  0  0  0  0  0  0  0  0  0  0
    7.1920   -3.7508  -17.9152 H   0  0  0  0  0  0  0  0  0  0  0  0
    8.4190   -4.3678  -16.8117 H   0  0  0  0  0  0  0  0  0  0  0  0
    5.7559    0.6257  -13.2979 H   0  0  0  0  0  0  0  0  0  0  0  0
    3.9279    4.8562  -13.5755 H   0  0  0  0  0  0  0  0  0  0  0  0
    4.4986    4.3188   -8.7502 H   0  0  0  0  0  0  0  0  0  0  0  0
    6.4958    1.0510   -3.3414 H   0  0  0  0  0  0  0  0  0  0  0  0
    5.0209    0.0661   -3.4850 H   0  0  0  0  0  0  0  0  0  0  0  0
  1  2  1  0  0  0  0
  1 41  1  0  0  0  0
  1 42  1  0  0  0  0
  1 43  1  0  0  0  0
  2  3  1  0  0  0  0
  2  4  1  0  0  0  0
  2  5  1  0  0  0  0
  3 44  1  0  0  0  0
  3 45  1  0  0  0  0
  3 46  1  0  0  0  0
  4 47  1  0  0  0  0
  4 48  1  0  0  0  0
  4 49  1  0  0  0  0
  5  6  1  0  0  0  0
  6  7  2  0  0  0  0
  6  8  1  0  0  0  0
  8  9  1  0  0  0  0
  8 40  1  0  0  0  0
  9 10  1  0  0  0  0
  9 50  1  0  0  0  0
  9 51  1  0  0  0  0
 10 11  1  0  0  0  0
 10 52  1  0  0  0  0
 10 53  1  0  0  0  0
 11 12  1  0  0  0  0
 11 39  2  0  0  0  0
 12 13  2  0  0  0  0
 13 14  1  0  0  0  0
 13 38  1  0  0  0  0
 14 15  1  0  0  0  0
 14 37  2  0  0  0  0
 15 16  2  0  0  0  0
 15 54  1  0  0  0  0
 16 17  1  0  0  0  0
 16 55  1  0  0  0  0
 17 18  1  0  0  0  0
 17 36  1  0  0  0  0
 18 19  1  0  0  0  0
 18 34  2  0  0  0  0
 19 20  1  0  0  0  0
 19 33  2  0  0  0  0
 20 21  2  0  0  0  0
 20 56  1  0  0  0  0
 21 22  1  0  0  0  0
 21 57  1  0  0  0  0
 22 23  2  0  0  0  0
 22 58  1  0  0  0  0
 23 24  1  0  0  0  0
 23 33  1  0  0  0  0
 24 25  1  0  0  0  0
 24 59  1  0  0  0  0
 25 26  2  0  0  0  0
 25 27  1  0  0  0  0
 27 28  1  0  0  0  0
 27 60  1  0  0  0  0
 28 29  1  0  0  0  0
 28 61  1  0  0  0  0
 28 62  1  0  0  0  0
 29 30  1  0  0  0  0
 29 31  1  0  0  0  0
 29 32  1  0  0  0  0
 33 63  1  0  0  0  0
 34 35  1  0  0  0  0
 34 64  1  0  0  0  0
 35 36  2  0  0  0  0
 36 37  1  0  0  0  0
 37 65  1  0  0  0  0
 38 39  1  0  0  0  0
 39 40  1  0  0  0  0
 40 66  1  0  0  0  0
 40 67  1  0  0  0  0
M  END
$$$$
