CHEMBL3780637
 OpenBabel04072215373D

 54 58  0  0  0  0  0  0  0  0999 V2000
    1.2957    0.7753   -0.4551 C   0  0  0  0  0  0  0  0  0  0  0  0
    2.3713   -0.0706   -0.0676 O   0  0  0  0  0  0  0  0  0  0  0  0
    3.0800    0.3097    1.0363 C   0  0  0  0  0  0  0  0  0  0  0  0
    2.8744    1.4672    1.7825 C   0  0  0  0  0  0  0  0  0  0  0  0
    3.6658    1.7248    2.9062 C   0  0  0  0  0  0  0  0  0  0  0  0
    4.6817    0.8406    3.3179 C   0  0  0  0  0  0  0  0  0  0  0  0
    5.4923    1.1336    4.5100 C   0  0  0  0  0  0  0  0  0  0  0  0
    6.1072    0.1607    5.2879 C   0  0  0  0  0  0  0  0  0  0  0  0
    6.8781    0.4463    6.3629 N   0  0  0  0  0  0  0  0  0  0  0  0
    6.9914    1.7621    6.6907 C   0  0  0  0  0  0  0  0  0  0  0  0
    7.7340    2.1996    7.7963 C   0  0  0  0  0  0  0  0  0  0  0  0
    8.4137    1.2126    8.5501 N   0  0  0  0  0  0  0  0  0  0  0  0
    8.7725    1.1878    9.9033 C   0  0  0  0  0  0  0  0  0  0  0  0
    8.3543    2.1532   10.8166 C   0  0  0  0  0  0  0  0  0  0  0  0
    8.7328    2.0963   12.1610 C   0  0  0  0  0  0  0  0  0  0  0  0
    9.5799    1.0962   12.6406 C   0  0  0  0  0  0  0  0  0  0  0  0
    9.9544    1.0114   13.9645 N   0  0  0  0  0  0  0  0  0  0  0  0
    9.1110    1.4919   15.0671 C   0  0  0  0  0  0  0  0  0  0  0  0
    9.7939    2.6432   15.8174 C   0  0  0  0  0  0  0  0  0  0  0  0
   11.1225    2.2881   16.2372 O   0  0  0  0  0  0  0  0  0  0  0  0
   11.9279    1.9616   15.0925 C   0  0  0  0  0  0  0  0  0  0  0  0
   11.3584    0.7621   14.3179 C   0  0  0  0  0  0  0  0  0  0  0  0
   10.0330    0.1516   11.7040 C   0  0  0  0  0  0  0  0  0  0  0  0
    9.6437    0.1963   10.3600 C   0  0  0  0  0  0  0  0  0  0  0  0
    7.8058    3.5026    8.1688 N   0  0  0  0  0  0  0  0  0  0  0  0
    7.1549    4.4099    7.4250 C   0  0  0  0  0  0  0  0  0  0  0  0
    6.4376    4.0808    6.2988 C   0  0  0  0  0  0  0  0  0  0  0  0
    6.3460    2.7552    5.9289 C   0  0  0  0  0  0  0  0  0  0  0  0
    5.6131    2.4444    4.8439 N   0  0  0  0  0  0  0  0  0  0  0  0
    4.8882   -0.3063    2.5401 C   0  0  0  0  0  0  0  0  0  0  0  0
    4.0948   -0.5676    1.4146 C   0  0  0  0  0  0  0  0  0  0  0  0
    0.7848    0.3032   -1.3001 H   0  0  0  0  0  0  0  0  0  0  0  0
    1.6680    1.7494   -0.7895 H   0  0  0  0  0  0  0  0  0  0  0  0
    0.5648    0.8872    0.3530 H   0  0  0  0  0  0  0  0  0  0  0  0
    2.1110    2.1921    1.5246 H   0  0  0  0  0  0  0  0  0  0  0  0
    3.4823    2.6376    3.4733 H   0  0  0  0  0  0  0  0  0  0  0  0
    5.9871   -0.8981    5.0853 H   0  0  0  0  0  0  0  0  0  0  0  0
    8.4355    0.3199    8.0654 H   0  0  0  0  0  0  0  0  0  0  0  0
    7.6986    2.9613   10.5079 H   0  0  0  0  0  0  0  0  0  0  0  0
    8.3661    2.8785   12.8176 H   0  0  0  0  0  0  0  0  0  0  0  0
    8.9738    0.6517   15.7587 H   0  0  0  0  0  0  0  0  0  0  0  0
    8.1086    1.7918   14.7441 H   0  0  0  0  0  0  0  0  0  0  0  0
    9.2202    2.8872   16.7173 H   0  0  0  0  0  0  0  0  0  0  0  0
    9.8453    3.5467   15.1990 H   0  0  0  0  0  0  0  0  0  0  0  0
   12.9342    1.7242   15.4510 H   0  0  0  0  0  0  0  0  0  0  0  0
   12.0030    2.8462   14.4484 H   0  0  0  0  0  0  0  0  0  0  0  0
   11.3946   -0.1349   14.9467 H   0  0  0  0  0  0  0  0  0  0  0  0
   11.9944    0.5835   13.4436 H   0  0  0  0  0  0  0  0  0  0  0  0
   10.6773   -0.6632   12.0240 H   0  0  0  0  0  0  0  0  0  0  0  0
   10.0243   -0.5601    9.6799 H   0  0  0  0  0  0  0  0  0  0  0  0
    7.2264    5.4361    7.7722 H   0  0  0  0  0  0  0  0  0  0  0  0
    5.9411    4.8492    5.7159 H   0  0  0  0  0  0  0  0  0  0  0  0
    5.6792   -1.0150    2.7715 H   0  0  0  0  0  0  0  0  0  0  0  0
    4.2733   -1.4658    0.8272 H   0  0  0  0  0  0  0  0  0  0  0  0
  1  2  1  0  0  0  0
  1 32  1  0  0  0  0
  1 33  1  0  0  0  0
  1 34  1  0  0  0  0
  2  3  1  0  0  0  0
  3  4  1  0  0  0  0
  3 31  2  0  0  0  0
  4  5  2  0  0  0  0
  4 35  1  0  0  0  0
  5  6  1  0  0  0  0
  5 36  1  0  0  0  0
  6  7  1  0  0  0  0
  6 30  2  0  0  0  0
  7  8  1  0  0  0  0
  7 29  2  0  0  0  0
  8  9  2  0  0  0  0
  8 37  1  0  0  0  0
  9 10  1  0  0  0  0
 10 11  1  0  0  0  0
 10 28  2  0  0  0  0
 11 12  1  0  0  0  0
 11 25  2  0  0  0  0
 12 13  1  0  0  0  0
 12 38  1  0  0  0  0
 13 14  1  0  0  0  0
 13 24  2  0  0  0  0
 14 15  2  0  0  0  0
 14 39  1  0  0  0  0
 15 16  1  0  0  0  0
 15 40  1  0  0  0  0
 16 17  1  0  0  0  0
 16 23  2  0  0  0  0
 17 18  1  0  0  0  0
 17 22  1  0  0  0  0
 18 19  1  0  0  0  0
 18 41  1  0  0  0  0
 18 42  1  0  0  0  0
 19 20  1  0  0  0  0
 19 43  1  0  0  0  0
 19 44  1  0  0  0  0
 20 21  1  0  0  0  0
 21 22  1  0  0  0  0
 21 45  1  0  0  0  0
 21 46  1  0  0  0  0
 22 47  1  0  0  0  0
 22 48  1  0  0  0  0
 23 24  1  0  0  0  0
 23 49  1  0  0  0  0
 24 50  1  0  0  0  0
 25 26  1  0  0  0  0
 26 27  2  0  0  0  0
 26 51  1  0  0  0  0
 27 28  1  0  0  0  0
 27 52  1  0  0  0  0
 28 29  1  0  0  0  0
 30 31  1  0  0  0  0
 30 53  1  0  0  0  0
 31 54  1  0  0  0  0
M  END
$$$$
