CHEMBL3702667
 OpenBabel04072215373D

 49 52  0  0  0  0  0  0  0  0999 V2000
    2.4559   -0.0643    0.0413 C   0  0  0  0  0  0  0  0  0  0  0  0
    0.9549   -0.0109    0.0694 C   0  0  0  0  0  0  0  0  0  0  0  0
    0.2759    1.2156    0.0905 C   0  0  0  0  0  0  0  0  0  0  0  0
   -1.1187    1.2237    0.0930 C   0  0  0  0  0  0  0  0  0  0  0  0
   -1.9287    2.4692    0.1836 C   0  0  0  0  0  0  0  0  0  0  0  0
   -2.9811    2.3981    0.8146 O   0  0  0  0  0  0  0  0  0  0  0  0
   -1.4668    3.5782   -0.5119 N   0  0  0  0  0  0  0  0  0  0  0  0
   -2.1365    4.8273   -0.5818 C   0  0  0  0  0  0  0  0  0  0  0  0
   -3.1561    5.1878    0.3034 C   0  0  0  0  0  0  0  0  0  0  0  0
   -3.8359    6.4008    0.1696 C   0  0  0  0  0  0  0  0  0  0  0  0
   -3.4992    7.2760   -0.8557 C   0  0  0  0  0  0  0  0  0  0  0  0
   -2.4660    6.9553   -1.7465 C   0  0  0  0  0  0  0  0  0  0  0  0
   -2.1149    7.8924   -2.8732 C   0  0  0  0  0  0  0  0  0  0  0  0
   -2.9144    8.9951   -2.9378 F   0  0  0  0  0  0  0  0  0  0  0  0
   -0.8390    8.3618   -2.7861 F   0  0  0  0  0  0  0  0  0  0  0  0
   -2.2096    7.2966   -4.0959 F   0  0  0  0  0  0  0  0  0  0  0  0
   -1.7737    5.7331   -1.5869 C   0  0  0  0  0  0  0  0  0  0  0  0
   -1.8255    0.0106    0.0488 C   0  0  0  0  0  0  0  0  0  0  0  0
   -1.1788   -1.2275   -0.0123 C   0  0  0  0  0  0  0  0  0  0  0  0
   -1.8742   -2.4027   -0.2215 N   0  0  0  0  0  0  0  0  0  0  0  0
   -3.0681   -2.4036   -1.0699 C   0  0  0  0  0  0  0  0  0  0  0  0
   -2.9332   -3.5580   -2.0574 C   0  0  0  0  0  0  0  0  0  0  0  0
   -2.6258   -4.8439   -1.3410 C   0  0  0  0  0  0  0  0  0  0  0  0
   -2.9002   -5.9862   -2.0188 N   0  0  0  0  0  0  0  0  0  0  0  0
   -2.6060   -7.1325   -1.3931 C   0  0  0  0  0  0  0  0  0  0  0  0
   -2.0869   -7.2453   -0.1619 N   0  0  0  0  0  0  0  0  0  0  0  0
   -1.8234   -6.0832    0.4687 C   0  0  0  0  0  0  0  0  0  0  0  0
   -2.0469   -4.8338   -0.0835 C   0  0  0  0  0  0  0  0  0  0  0  0
   -1.7265   -3.5643    0.6592 C   0  0  0  0  0  0  0  0  0  0  0  0
    0.2206   -1.2140    0.0397 C   0  0  0  0  0  0  0  0  0  0  0  0
    2.8940    0.9390    0.0575 H   0  0  0  0  0  0  0  0  0  0  0  0
    2.7971   -0.5611   -0.8722 H   0  0  0  0  0  0  0  0  0  0  0  0
    2.8325   -0.6119    0.9105 H   0  0  0  0  0  0  0  0  0  0  0  0
    0.8346    2.1453    0.1373 H   0  0  0  0  0  0  0  0  0  0  0  0
   -0.6930    3.4383   -1.1488 H   0  0  0  0  0  0  0  0  0  0  0  0
   -3.4544    4.5460    1.1253 H   0  0  0  0  0  0  0  0  0  0  0  0
   -4.6338    6.6489    0.8638 H   0  0  0  0  0  0  0  0  0  0  0  0
   -4.0519    8.2095   -0.9592 H   0  0  0  0  0  0  0  0  0  0  0  0
   -0.9765    5.4883   -2.2863 H   0  0  0  0  0  0  0  0  0  0  0  0
   -2.9142    0.0468    0.0633 H   0  0  0  0  0  0  0  0  0  0  0  0
   -3.1771   -1.4798   -1.6495 H   0  0  0  0  0  0  0  0  0  0  0  0
   -3.9670   -2.5134   -0.4496 H   0  0  0  0  0  0  0  0  0  0  0  0
   -2.1111   -3.3538   -2.7550 H   0  0  0  0  0  0  0  0  0  0  0  0
   -3.8548   -3.6567   -2.6406 H   0  0  0  0  0  0  0  0  0  0  0  0
   -2.8070   -8.0497   -1.9290 H   0  0  0  0  0  0  0  0  0  0  0  0
   -1.4074   -6.1946    1.4695 H   0  0  0  0  0  0  0  0  0  0  0  0
   -0.7133   -3.6360    1.0702 H   0  0  0  0  0  0  0  0  0  0  0  0
   -2.4250   -3.4649    1.5023 H   0  0  0  0  0  0  0  0  0  0  0  0
    0.7634   -2.1561   -0.0158 H   0  0  0  0  0  0  0  0  0  0  0  0
  1  2  1  0  0  0  0
  1 31  1  0  0  0  0
  1 32  1  0  0  0  0
  1 33  1  0  0  0  0
  2  3  1  0  0  0  0
  2 30  2  0  0  0  0
  3  4  2  0  0  0  0
  3 34  1  0  0  0  0
  4  5  1  0  0  0  0
  4 18  1  0  0  0  0
  5  6  2  0  0  0  0
  5  7  1  0  0  0  0
  7  8  1  0  0  0  0
  7 35  1  0  0  0  0
  8  9  1  0  0  0  0
  8 17  2  0  0  0  0
  9 10  2  0  0  0  0
  9 36  1  0  0  0  0
 10 11  1  0  0  0  0
 10 37  1  0  0  0  0
 11 12  2  0  0  0  0
 11 38  1  0  0  0  0
 12 13  1  0  0  0  0
 12 17  1  0  0  0  0
 13 14  1  0  0  0  0
 13 15  1  0  0  0  0
 13 16  1  0  0  0  0
 17 39  1  0  0  0  0
 18 19  2  0  0  0  0
 18 40  1  0  0  0  0
 19 20  1  0  0  0  0
 19 30  1  0  0  0  0
 20 21  1  0  0  0  0
 20 29  1  0  0  0  0
 21 22  1  0  0  0  0
 21 41  1  0  0  0  0
 21 42  1  0  0  0  0
 22 23  1  0  0  0  0
 22 43  1  0  0  0  0
 22 44  1  0  0  0  0
 23 24  1  0  0  0  0
 23 28  2  0  0  0  0
 24 25  2  0  0  0  0
 25 26  1  0  0  0  0
 25 45  1  0  0  0  0
 26 27  2  0  0  0  0
 27 28  1  0  0  0  0
 27 46  1  0  0  0  0
 28 29  1  0  0  0  0
 29 47  1  0  0  0  0
 29 48  1  0  0  0  0
 30 49  1  0  0  0  0
M  END
$$$$
