CHEMBL380503
 OpenBabel04072215373D

 52 56  0  0  0  0  0  0  0  0999 V2000
    0.7905    0.0652   -0.3882 O   0  0  0  0  0  0  0  0  0  0  0  0
    1.9842    0.2985   -0.2661 C   0  0  0  0  0  0  0  0  0  0  0  0
    2.5185    1.3112    0.5377 N   0  0  0  0  0  0  0  0  0  0  0  0
    1.8019    2.2666    1.2965 C   0  0  0  0  0  0  0  0  0  0  0  0
    0.4107    2.3674    1.3033 C   0  0  0  0  0  0  0  0  0  0  0  0
   -0.2376    3.2625    2.1625 C   0  0  0  0  0  0  0  0  0  0  0  0
    0.4986    4.0335    3.0606 C   0  0  0  0  0  0  0  0  0  0  0  0
   -0.0752    4.8385    4.0178 O   0  0  0  0  0  0  0  0  0  0  0  0
   -1.1311    4.3594    4.7721 C   0  0  0  0  0  0  0  0  0  0  0  0
   -1.4405    3.0078    4.9664 C   0  0  0  0  0  0  0  0  0  0  0  0
   -2.5637    2.6393    5.7118 C   0  0  0  0  0  0  0  0  0  0  0  0
   -3.3509    3.6157    6.3198 C   0  0  0  0  0  0  0  0  0  0  0  0
   -3.0111    4.9610    6.1854 C   0  0  0  0  0  0  0  0  0  0  0  0
   -1.9067    5.3288    5.4125 C   0  0  0  0  0  0  0  0  0  0  0  0
    1.8901    4.0285    2.9771 C   0  0  0  0  0  0  0  0  0  0  0  0
    2.5381    3.1509    2.0984 C   0  0  0  0  0  0  0  0  0  0  0  0
    2.9813   -0.5550   -1.0167 C   0  0  0  0  0  0  0  0  0  0  0  0
    4.2374    0.0111   -1.3318 C   0  0  0  0  0  0  0  0  0  0  0  0
    5.2143   -0.7096   -2.0211 C   0  0  0  0  0  0  0  0  0  0  0  0
    4.9621   -2.0160   -2.4062 C   0  0  0  0  0  0  0  0  0  0  0  0
    3.7170   -2.5828   -2.1427 C   0  0  0  0  0  0  0  0  0  0  0  0
    2.6904   -1.8633   -1.4839 C   0  0  0  0  0  0  0  0  0  0  0  0
    1.3291   -2.5425   -1.4265 C   0  0  0  0  0  0  0  0  0  0  0  0
    1.1974   -3.5284   -0.3338 N   0  0  0  0  0  0  0  0  0  0  0  0
    0.5629   -3.1819    0.8663 C   0  0  0  0  0  0  0  0  0  0  0  0
    0.2988   -4.0273    1.8768 C   0  0  0  0  0  0  0  0  0  0  0  0
    0.7235   -5.4177    1.6756 C   0  0  0  0  0  0  0  0  0  0  0  0
    0.6387   -6.4591    2.4426 N   0  0  0  0  0  0  0  0  0  0  0  0
    1.2086   -7.4645    1.6674 C   0  0  0  0  0  0  0  0  0  0  0  0
    1.6332   -7.1389    0.4767 N   0  0  0  0  0  0  0  0  0  0  0  0
    1.3573   -5.8056    0.4149 C   0  0  0  0  0  0  0  0  0  0  0  0
    1.5521   -4.8721   -0.5176 C   0  0  0  0  0  0  0  0  0  0  0  0
    3.5185    1.3202    0.6744 H   0  0  0  0  0  0  0  0  0  0  0  0
   -0.2137    1.7523    0.6648 H   0  0  0  0  0  0  0  0  0  0  0  0
   -1.3235    3.3122    2.1518 H   0  0  0  0  0  0  0  0  0  0  0  0
   -0.8305    2.2198    4.5359 H   0  0  0  0  0  0  0  0  0  0  0  0
   -2.8215    1.5885    5.8169 H   0  0  0  0  0  0  0  0  0  0  0  0
   -4.2212    3.3257    6.9017 H   0  0  0  0  0  0  0  0  0  0  0  0
   -3.6102    5.7224    6.6804 H   0  0  0  0  0  0  0  0  0  0  0  0
   -1.6509    6.3825    5.3109 H   0  0  0  0  0  0  0  0  0  0  0  0
    2.4718    4.6945    3.6125 H   0  0  0  0  0  0  0  0  0  0  0  0
    3.6240    3.1617    2.0692 H   0  0  0  0  0  0  0  0  0  0  0  0
    4.4699    1.0456   -1.0935 H   0  0  0  0  0  0  0  0  0  0  0  0
    6.1651   -0.2436   -2.2686 H   0  0  0  0  0  0  0  0  0  0  0  0
    5.7174   -2.5857   -2.9423 H   0  0  0  0  0  0  0  0  0  0  0  0
    3.5343   -3.5978   -2.4928 H   0  0  0  0  0  0  0  0  0  0  0  0
    1.1821   -3.0623   -2.3860 H   0  0  0  0  0  0  0  0  0  0  0  0
    0.4967   -1.8372   -1.4213 H   0  0  0  0  0  0  0  0  0  0  0  0
    0.2652   -2.1378    0.9292 H   0  0  0  0  0  0  0  0  0  0  0  0
   -0.2028   -3.7487    2.7905 H   0  0  0  0  0  0  0  0  0  0  0  0
    1.2893   -8.4904    2.0619 H   0  0  0  0  0  0  0  0  0  0  0  0
    1.9969   -5.1257   -1.4725 H   0  0  0  0  0  0  0  0  0  0  0  0
  1  2  2  0  0  0  0
  2  3  1  0  0  0  0
  2 17  1  0  0  0  0
  3  4  1  0  0  0  0
  3 33  1  0  0  0  0
  4  5  1  0  0  0  0
  4 16  2  0  0  0  0
  5  6  2  0  0  0  0
  5 34  1  0  0  0  0
  6  7  1  0  0  0  0
  6 35  1  0  0  0  0
  7  8  1  0  0  0  0
  7 15  2  0  0  0  0
  8  9  1  0  0  0  0
  9 10  1  0  0  0  0
  9 14  2  0  0  0  0
 10 11  2  0  0  0  0
 10 36  1  0  0  0  0
 11 12  1  0  0  0  0
 11 37  1  0  0  0  0
 12 13  2  0  0  0  0
 12 38  1  0  0  0  0
 13 14  1  0  0  0  0
 13 39  1  0  0  0  0
 14 40  1  0  0  0  0
 15 16  1  0  0  0  0
 15 41  1  0  0  0  0
 16 42  1  0  0  0  0
 17 18  1  0  0  0  0
 17 22  2  0  0  0  0
 18 19  2  0  0  0  0
 18 43  1  0  0  0  0
 19 20  1  0  0  0  0
 19 44  1  0  0  0  0
 20 21  2  0  0  0  0
 20 45  1  0  0  0  0
 21 22  1  0  0  0  0
 21 46  1  0  0  0  0
 22 23  1  0  0  0  0
 23 24  1  0  0  0  0
 23 47  1  0  0  0  0
 23 48  1  0  0  0  0
 24 25  1  0  0  0  0
 24 32  1  0  0  0  0
 25 26  2  0  0  0  0
 25 49  1  0  0  0  0
 26 27  1  0  0  0  0
 26 50  1  0  0  0  0
 27 28  2  0  0  0  0
 27 31  1  0  0  0  0
 28 29  1  0  0  0  0
 29 30  2  0  0  0  0
 29 51  1  0  0  0  0
 30 31  1  0  0  0  0
 31 32  2  0  0  0  0
 32 52  1  0  0  0  0
M  END
$$$$
