CHEMBL3099455
 OpenBabel04072215363D

 83 86  0  0  0  0  0  0  0  0999 V2000
   -0.2444   -1.0483   -1.3187 C   0  0  0  0  0  0  0  0  0  0  0  0
    0.6370   -0.3820   -0.4232 O   0  0  0  0  0  0  0  0  0  0  0  0
    1.3404   -1.1378    0.4781 C   0  0  0  0  0  0  0  0  0  0  0  0
    1.5521   -2.5168    0.3354 C   0  0  0  0  0  0  0  0  0  0  0  0
    2.4647   -3.2503    1.1387 C   0  0  0  0  0  0  0  0  0  0  0  0
    2.7629   -4.6902    0.8282 C   0  0  0  0  0  0  0  0  0  0  0  0
    2.7046   -5.0786   -0.5285 C   0  0  0  0  0  0  0  0  0  0  0  0
    2.9496   -6.3729   -0.9877 C   0  0  0  0  0  0  0  0  0  0  0  0
    2.8531   -6.6959   -2.3647 N   0  0  0  0  0  0  0  0  0  0  0  0
    2.9796   -5.7571   -3.3719 C   0  0  0  0  0  0  0  0  0  0  0  0
    3.3509   -4.6012   -3.1967 O   0  0  0  0  0  0  0  0  0  0  0  0
    2.5976   -6.2496   -4.6091 N   0  0  0  0  0  0  0  0  0  0  0  0
    2.6563   -5.3906   -5.7381 C   0  0  0  0  0  0  0  0  0  0  0  0
    3.8060   -4.6064   -5.9423 C   0  0  0  0  0  0  0  0  0  0  0  0
    3.8514   -3.6514   -6.9561 C   0  0  0  0  0  0  0  0  0  0  0  0
    2.7599   -3.4997   -7.8032 C   0  0  0  0  0  0  0  0  0  0  0  0
    2.6702   -2.5781   -8.8039 O   0  0  0  0  0  0  0  0  0  0  0  0
    3.9042   -2.1178   -9.3531 C   0  0  0  0  0  0  0  0  0  0  0  0
    3.6576   -1.6966  -10.8008 C   0  0  0  0  0  0  0  0  0  0  0  0
    3.1191   -2.8819  -11.6162 C   0  0  0  0  0  0  0  0  0  0  0  0
    2.8777   -2.5877  -13.0389 N   0  0  0  0  0  0  0  0  0  0  0  0
    2.2987   -3.7776  -13.7162 C   0  0  0  0  0  0  0  0  0  0  0  0
    3.3098   -4.9158  -13.9490 C   0  0  0  0  0  0  0  0  0  0  0  0
    4.4719   -4.4617  -14.6581 O   0  0  0  0  0  0  0  0  0  0  0  0
    5.0874   -3.3595  -13.9807 C   0  0  0  0  0  0  0  0  0  0  0  0
    4.0935   -2.2037  -13.7873 C   0  0  0  0  0  0  0  0  0  0  0  0
    1.6263   -4.2975   -7.6214 C   0  0  0  0  0  0  0  0  0  0  0  0
    1.5571   -5.2563   -6.5964 C   0  0  0  0  0  0  0  0  0  0  0  0
    0.2712   -5.9995   -6.3812 C   0  0  0  0  0  0  0  0  0  0  0  0
    3.2494   -7.3567   -0.0579 C   0  0  0  0  0  0  0  0  0  0  0  0
    3.3670   -7.0222    1.3052 C   0  0  0  0  0  0  0  0  0  0  0  0
    3.6277   -8.0151    2.2202 O   0  0  0  0  0  0  0  0  0  0  0  0
    4.7387   -8.8449    1.8812 C   0  0  0  0  0  0  0  0  0  0  0  0
    3.1199   -5.6979    1.7581 C   0  0  0  0  0  0  0  0  0  0  0  0
    3.1331   -5.3202    3.0814 O   0  0  0  0  0  0  0  0  0  0  0  0
    4.0333   -5.9945    3.9522 C   0  0  0  0  0  0  0  0  0  0  0  0
    3.1308   -2.5281    2.1366 C   0  0  0  0  0  0  0  0  0  0  0  0
    2.8665   -1.1658    2.3503 C   0  0  0  0  0  0  0  0  0  0  0  0
    1.9568   -0.4696    1.5399 C   0  0  0  0  0  0  0  0  0  0  0  0
    1.6555    0.9585    1.8788 C   0  0  0  0  0  0  0  0  0  0  0  0
    0.2514    1.4917    1.6399 C   0  0  0  0  0  0  0  0  0  0  0  0
    2.5882    1.6891    2.4236 N   0  0  0  0  0  0  0  0  0  0  0  0
    2.1230    2.9782    2.7052 O   0  0  0  0  0  0  0  0  0  0  0  0
   -0.7521   -0.2811   -1.9119 H   0  0  0  0  0  0  0  0  0  0  0  0
   -1.0067   -1.6023   -0.7631 H   0  0  0  0  0  0  0  0  0  0  0  0
    0.2956   -1.6958   -2.0153 H   0  0  0  0  0  0  0  0  0  0  0  0
    1.0221   -3.0415   -0.4524 H   0  0  0  0  0  0  0  0  0  0  0  0
    2.4481   -4.3147   -1.2552 H   0  0  0  0  0  0  0  0  0  0  0  0
    2.9814   -7.6591   -2.6362 H   0  0  0  0  0  0  0  0  0  0  0  0
    1.8252   -6.8980   -4.5686 H   0  0  0  0  0  0  0  0  0  0  0  0
    4.6626   -4.6974   -5.2805 H   0  0  0  0  0  0  0  0  0  0  0  0
    4.7300   -3.0190   -7.0286 H   0  0  0  0  0  0  0  0  0  0  0  0
    4.6717   -2.9029   -9.3494 H   0  0  0  0  0  0  0  0  0  0  0  0
    4.2631   -1.2620   -8.7703 H   0  0  0  0  0  0  0  0  0  0  0  0
    4.6042   -1.3281  -11.2071 H   0  0  0  0  0  0  0  0  0  0  0  0
    2.9309   -0.8765  -10.8311 H   0  0  0  0  0  0  0  0  0  0  0  0
    2.1587   -3.1819  -11.1764 H   0  0  0  0  0  0  0  0  0  0  0  0
    3.7958   -3.7342  -11.4878 H   0  0  0  0  0  0  0  0  0  0  0  0
    1.9215   -3.4446  -14.6932 H   0  0  0  0  0  0  0  0  0  0  0  0
    1.4277   -4.1489  -13.1652 H   0  0  0  0  0  0  0  0  0  0  0  0
    2.8416   -5.7002  -14.5519 H   0  0  0  0  0  0  0  0  0  0  0  0
    3.6253   -5.3818  -13.0076 H   0  0  0  0  0  0  0  0  0  0  0  0
    5.9239   -3.0223  -14.6011 H   0  0  0  0  0  0  0  0  0  0  0  0
    5.5063   -3.7017  -13.0275 H   0  0  0  0  0  0  0  0  0  0  0  0
    3.7688   -1.8591  -14.7782 H   0  0  0  0  0  0  0  0  0  0  0  0
    4.5898   -1.3422  -13.3315 H   0  0  0  0  0  0  0  0  0  0  0  0
    0.7737   -4.1381   -8.2791 H   0  0  0  0  0  0  0  0  0  0  0  0
   -0.4643   -5.7689   -7.1617 H   0  0  0  0  0  0  0  0  0  0  0  0
   -0.1703   -5.7122   -5.4203 H   0  0  0  0  0  0  0  0  0  0  0  0
    0.4421   -7.0811   -6.3970 H   0  0  0  0  0  0  0  0  0  0  0  0
    3.3924   -8.3818   -0.3818 H   0  0  0  0  0  0  0  0  0  0  0  0
    5.1766   -9.2145    2.8144 H   0  0  0  0  0  0  0  0  0  0  0  0
    5.5242   -8.2968    1.3424 H   0  0  0  0  0  0  0  0  0  0  0  0
    4.4033   -9.7081    1.2987 H   0  0  0  0  0  0  0  0  0  0  0  0
    4.2268   -5.3388    4.8061 H   0  0  0  0  0  0  0  0  0  0  0  0
    5.0002   -6.2019    3.4772 H   0  0  0  0  0  0  0  0  0  0  0  0
    3.5748   -6.9061    4.3470 H   0  0  0  0  0  0  0  0  0  0  0  0
    3.8802   -3.0070    2.7617 H   0  0  0  0  0  0  0  0  0  0  0  0
    3.3852   -0.6490    3.1551 H   0  0  0  0  0  0  0  0  0  0  0  0
   -0.4539    0.7227    1.3185 H   0  0  0  0  0  0  0  0  0  0  0  0
    0.2866    2.2842    0.8858 H   0  0  0  0  0  0  0  0  0  0  0  0
   -0.1465    1.8984    2.5732 H   0  0  0  0  0  0  0  0  0  0  0  0
    2.9029    3.3973    3.1145 H   0  0  0  0  0  0  0  0  0  0  0  0
  1  2  1  0  0  0  0
  1 44  1  0  0  0  0
  1 45  1  0  0  0  0
  1 46  1  0  0  0  0
  2  3  1  0  0  0  0
  3  4  1  0  0  0  0
  3 39  2  0  0  0  0
  4  5  2  0  0  0  0
  4 47  1  0  0  0  0
  5  6  1  0  0  0  0
  5 37  1  0  0  0  0
  6  7  1  0  0  0  0
  6 34  2  0  0  0  0
  7  8  2  0  0  0  0
  7 48  1  0  0  0  0
  8  9  1  0  0  0  0
  8 30  1  0  0  0  0
  9 10  1  0  0  0  0
  9 49  1  0  0  0  0
 10 11  2  0  0  0  0
 10 12  1  0  0  0  0
 12 13  1  0  0  0  0
 12 50  1  0  0  0  0
 13 14  1  0  0  0  0
 13 28  2  0  0  0  0
 14 15  2  0  0  0  0
 14 51  1  0  0  0  0
 15 16  1  0  0  0  0
 15 52  1  0  0  0  0
 16 17  1  0  0  0  0
 16 27  2  0  0  0  0
 17 18  1  0  0  0  0
 18 19  1  0  0  0  0
 18 53  1  0  0  0  0
 18 54  1  0  0  0  0
 19 20  1  0  0  0  0
 19 55  1  0  0  0  0
 19 56  1  0  0  0  0
 20 21  1  0  0  0  0
 20 57  1  0  0  0  0
 20 58  1  0  0  0  0
 21 22  1  0  0  0  0
 21 26  1  0  0  0  0
 22 23  1  0  0  0  0
 22 59  1  0  0  0  0
 22 60  1  0  0  0  0
 23 24  1  0  0  0  0
 23 61  1  0  0  0  0
 23 62  1  0  0  0  0
 24 25  1  0  0  0  0
 25 26  1  0  0  0  0
 25 63  1  0  0  0  0
 25 64  1  0  0  0  0
 26 65  1  0  0  0  0
 26 66  1  0  0  0  0
 27 28  1  0  0  0  0
 27 67  1  0  0  0  0
 28 29  1  0  0  0  0
 29 68  1  0  0  0  0
 29 69  1  0  0  0  0
 29 70  1  0  0  0  0
 30 31  2  0  0  0  0
 30 71  1  0  0  0  0
 31 32  1  0  0  0  0
 31 34  1  0  0  0  0
 32 33  1  0  0  0  0
 33 72  1  0  0  0  0
 33 73  1  0  0  0  0
 33 74  1  0  0  0  0
 34 35  1  0  0  0  0
 35 36  1  0  0  0  0
 36 75  1  0  0  0  0
 36 76  1  0  0  0  0
 36 77  1  0  0  0  0
 37 38  2  0  0  0  0
 37 78  1  0  0  0  0
 38 39  1  0  0  0  0
 38 79  1  0  0  0  0
 39 40  1  0  0  0  0
 40 41  1  0  0  0  0
 40 42  2  0  0  0  0
 41 80  1  0  0  0  0
 41 81  1  0  0  0  0
 41 82  1  0  0  0  0
 42 43  1  0  0  0  0
 43 83  1  0  0  0  0
M  END
$$$$
