CHEMBL4204920
 OpenBabel04072215383D

 64 68  0  0  0  0  0  0  0  0999 V2000
    9.4127   -6.8011    0.7949 C   0  0  0  0  0  0  0  0  0  0  0  0
    7.9898   -6.2950    0.6095 C   0  0  0  0  0  0  0  0  0  0  0  0
    7.5918   -5.2608    1.6612 C   0  0  0  0  0  0  0  0  0  0  0  0
    8.3863   -4.0542    1.5974 N   0  0  0  0  0  0  0  0  0  0  0  0
    8.0864   -3.0166    0.7414 C   0  0  0  0  0  0  0  0  0  0  0  0
    7.1288   -3.0217   -0.0241 O   0  0  0  0  0  0  0  0  0  0  0  0
    9.0292   -1.8528    0.7976 C   0  0  0  0  0  0  0  0  0  0  0  0
    8.7501   -0.7312    0.0348 C   0  0  0  0  0  0  0  0  0  0  0  0
    9.6851    0.2933    0.0220 C   0  0  0  0  0  0  0  0  0  0  0  0
    9.5766    1.4343   -0.7447 O   0  0  0  0  0  0  0  0  0  0  0  0
    9.0127    1.3203   -1.9963 C   0  0  0  0  0  0  0  0  0  0  0  0
    8.2780    2.4112   -2.4415 C   0  0  0  0  0  0  0  0  0  0  0  0
    7.6085    2.3363   -3.6630 C   0  0  0  0  0  0  0  0  0  0  0  0
    7.6608    1.1733   -4.4394 C   0  0  0  0  0  0  0  0  0  0  0  0
    6.9503    0.9935   -5.6375 N   0  0  0  0  0  0  0  0  0  0  0  0
    6.1261    1.9111   -6.2126 C   0  0  0  0  0  0  0  0  0  0  0  0
    5.8363    3.0189   -5.7629 O   0  0  0  0  0  0  0  0  0  0  0  0
    5.5307    1.4792   -7.5144 C   0  0  0  0  0  0  0  0  0  0  0  0
    4.9464    2.4654   -8.2049 C   0  0  0  0  0  0  0  0  0  0  0  0
    4.2077    2.1578   -9.4127 C   0  0  0  0  0  0  0  0  0  0  0  0
    3.4084    3.1764   -9.9164 C   0  0  0  0  0  0  0  0  0  0  0  0
    2.0698    2.9344   -9.8128 C   0  0  0  0  0  0  0  0  0  0  0  0
    1.6793    1.6035   -9.9082 C   0  0  0  0  0  0  0  0  0  0  0  0
    2.5590    0.5659   -9.9821 N   0  0  0  0  0  0  0  0  0  0  0  0
    3.8252    0.8362   -9.5953 C   0  0  0  0  0  0  0  0  0  0  0  0
    4.6741   -0.1855   -9.1083 N   0  0  0  0  0  0  0  0  0  0  0  0
    4.6303   -1.4531   -9.7638 C   0  0  0  0  0  0  0  0  0  0  0  0
    4.7642   -2.6540   -9.0505 C   0  0  0  0  0  0  0  0  0  0  0  0
    4.7436   -3.8853   -9.7144 C   0  0  0  0  0  0  0  0  0  0  0  0
    4.6258   -3.9204  -11.0988 C   0  0  0  0  0  0  0  0  0  0  0  0
    4.6035   -5.0997  -11.7329 F   0  0  0  0  0  0  0  0  0  0  0  0
    4.5440   -2.7480  -11.8331 C   0  0  0  0  0  0  0  0  0  0  0  0
    4.5358   -1.5180  -11.1667 C   0  0  0  0  0  0  0  0  0  0  0  0
    5.5605    0.0877   -8.0632 C   0  0  0  0  0  0  0  0  0  0  0  0
    6.3587   -0.7187   -7.5744 O   0  0  0  0  0  0  0  0  0  0  0  0
    8.4651    0.1129   -4.0194 C   0  0  0  0  0  0  0  0  0  0  0  0
    9.1687    0.2024   -2.8195 C   0  0  0  0  0  0  0  0  0  0  0  0
   10.8081    0.2187    0.8432 C   0  0  0  0  0  0  0  0  0  0  0  0
   10.9873   -0.9297    1.5929 C   0  0  0  0  0  0  0  0  0  0  0  0
   10.1332   -1.9810    1.5850 N   0  0  0  0  0  0  0  0  0  0  0  0
    9.6442   -7.5613    0.0420 H   0  0  0  0  0  0  0  0  0  0  0  0
    9.5412   -7.2525    1.7837 H   0  0  0  0  0  0  0  0  0  0  0  0
   10.1401   -5.9907    0.6879 H   0  0  0  0  0  0  0  0  0  0  0  0
    7.3021   -7.1463    0.6741 H   0  0  0  0  0  0  0  0  0  0  0  0
    7.8855   -5.8740   -0.3973 H   0  0  0  0  0  0  0  0  0  0  0  0
    7.6982   -5.6718    2.6699 H   0  0  0  0  0  0  0  0  0  0  0  0
    6.5391   -4.9915    1.5173 H   0  0  0  0  0  0  0  0  0  0  0  0
    9.2344   -3.9599    2.1499 H   0  0  0  0  0  0  0  0  0  0  0  0
    7.8441   -0.6904   -0.5603 H   0  0  0  0  0  0  0  0  0  0  0  0
    8.1952    3.3131   -1.8414 H   0  0  0  0  0  0  0  0  0  0  0  0
    7.0282    3.2045   -3.9547 H   0  0  0  0  0  0  0  0  0  0  0  0
    7.0545    0.0956   -6.1071 H   0  0  0  0  0  0  0  0  0  0  0  0
    4.8667    3.4765   -7.8162 H   0  0  0  0  0  0  0  0  0  0  0  0
    3.6805    3.4082  -10.9658 H   0  0  0  0  0  0  0  0  0  0  0  0
    1.3648    3.7273   -9.5959 H   0  0  0  0  0  0  0  0  0  0  0  0
    0.6351    1.3351   -9.9066 H   0  0  0  0  0  0  0  0  0  0  0  0
    4.8583   -2.6536   -7.9663 H   0  0  0  0  0  0  0  0  0  0  0  0
    4.8214   -4.8165   -9.1608 H   0  0  0  0  0  0  0  0  0  0  0  0
    4.4956   -2.7911  -12.9165 H   0  0  0  0  0  0  0  0  0  0  0  0
    4.5107   -0.6114  -11.7663 H   0  0  0  0  0  0  0  0  0  0  0  0
    8.5371   -0.8031   -4.6011 H   0  0  0  0  0  0  0  0  0  0  0  0
    9.7945   -0.6326   -2.5230 H   0  0  0  0  0  0  0  0  0  0  0  0
   11.5283    1.0296    0.8758 H   0  0  0  0  0  0  0  0  0  0  0  0
   11.8572   -1.0386    2.2331 H   0  0  0  0  0  0  0  0  0  0  0  0
  1  2  1  0  0  0  0
  1 41  1  0  0  0  0
  1 42  1  0  0  0  0
  1 43  1  0  0  0  0
  2  3  1  0  0  0  0
  2 44  1  0  0  0  0
  2 45  1  0  0  0  0
  3  4  1  0  0  0  0
  3 46  1  0  0  0  0
  3 47  1  0  0  0  0
  4  5  1  0  0  0  0
  4 48  1  0  0  0  0
  5  6  2  0  0  0  0
  5  7  1  0  0  0  0
  7  8  1  0  0  0  0
  7 40  2  0  0  0  0
  8  9  2  0  0  0  0
  8 49  1  0  0  0  0
  9 10  1  0  0  0  0
  9 38  1  0  0  0  0
 10 11  1  0  0  0  0
 11 12  1  0  0  0  0
 11 37  2  0  0  0  0
 12 13  2  0  0  0  0
 12 50  1  0  0  0  0
 13 14  1  0  0  0  0
 13 51  1  0  0  0  0
 14 15  1  0  0  0  0
 14 36  2  0  0  0  0
 15 16  1  0  0  0  0
 15 52  1  0  0  0  0
 16 17  2  0  0  0  0
 16 18  1  0  0  0  0
 18 19  2  0  0  0  0
 18 34  1  0  0  0  0
 19 20  1  0  0  0  0
 19 53  1  0  0  0  0
 20 21  1  0  0  0  0
 20 25  2  0  0  0  0
 21 22  2  0  0  0  0
 21 54  1  0  0  0  0
 22 23  1  0  0  0  0
 22 55  1  0  0  0  0
 23 24  2  0  0  0  0
 23 56  1  0  0  0  0
 24 25  1  0  0  0  0
 25 26  1  0  0  0  0
 26 27  1  0  0  0  0
 26 34  1  0  0  0  0
 27 28  1  0  0  0  0
 27 33  2  0  0  0  0
 28 29  2  0  0  0  0
 28 57  1  0  0  0  0
 29 30  1  0  0  0  0
 29 58  1  0  0  0  0
 30 31  1  0  0  0  0
 30 32  2  0  0  0  0
 32 33  1  0  0  0  0
 32 59  1  0  0  0  0
 33 60  1  0  0  0  0
 34 35  2  0  0  0  0
 36 37  1  0  0  0  0
 36 61  1  0  0  0  0
 37 62  1  0  0  0  0
 38 39  2  0  0  0  0
 38 63  1  0  0  0  0
 39 40  1  0  0  0  0
 39 64  1  0  0  0  0
M  END
$$$$
