CHEMBL3910894
 OpenBabel04072215373D

 54 57  0  0  0  0  0  0  0  0999 V2000
    3.2251   -6.2316   -2.7309 C   0  0  0  0  0  0  0  0  0  0  0  0
    2.4714   -5.2871   -3.6527 C   0  0  0  0  0  0  0  0  0  0  0  0
    2.2806   -5.9235   -4.8439 F   0  0  0  0  0  0  0  0  0  0  0  0
    1.2225   -5.1028   -3.1350 F   0  0  0  0  0  0  0  0  0  0  0  0
    3.2213   -3.9879   -3.8136 C   0  0  0  0  0  0  0  0  0  0  0  0
    2.9708   -2.9144   -2.9569 C   0  0  0  0  0  0  0  0  0  0  0  0
    3.6956   -1.7535   -3.1278 C   0  0  0  0  0  0  0  0  0  0  0  0
    4.6288   -1.5978   -4.0928 N   0  0  0  0  0  0  0  0  0  0  0  0
    4.8525   -2.6274   -4.9334 C   0  0  0  0  0  0  0  0  0  0  0  0
    5.7688   -2.4783   -5.9789 N   0  0  0  0  0  0  0  0  0  0  0  0
    6.3021   -1.3134   -6.4596 C   0  0  0  0  0  0  0  0  0  0  0  0
    7.0526   -1.3616   -7.4322 O   0  0  0  0  0  0  0  0  0  0  0  0
    5.9308   -0.1692   -5.8111 N   0  0  0  0  0  0  0  0  0  0  0  0
    6.3529    1.1125   -6.1811 C   0  0  0  0  0  0  0  0  0  0  0  0
    6.2368    1.5740   -7.4923 C   0  0  0  0  0  0  0  0  0  0  0  0
    6.6473    2.8738   -7.8072 C   0  0  0  0  0  0  0  0  0  0  0  0
    7.2054    3.6971   -6.8217 C   0  0  0  0  0  0  0  0  0  0  0  0
    7.6430    4.9398   -7.2347 O   0  0  0  0  0  0  0  0  0  0  0  0
    7.5690    6.0087   -6.3664 C   0  0  0  0  0  0  0  0  0  0  0  0
    6.5553    6.1637   -5.4278 C   0  0  0  0  0  0  0  0  0  0  0  0
    6.6048    7.2670   -4.6094 C   0  0  0  0  0  0  0  0  0  0  0  0
    7.5485    8.2192   -4.7115 N   0  0  0  0  0  0  0  0  0  0  0  0
    8.4965    8.1051   -5.6602 C   0  0  0  0  0  0  0  0  0  0  0  0
    9.4669    9.1135   -5.7839 N   0  0  0  0  0  0  0  0  0  0  0  0
    9.4688   10.2670   -5.0156 C   0  0  0  0  0  0  0  0  0  0  0  0
    8.6416   10.6104   -4.1843 O   0  0  0  0  0  0  0  0  0  0  0  0
   10.6560   11.1466   -5.2458 C   0  0  0  0  0  0  0  0  0  0  0  0
   11.5840   11.4042   -4.0757 C   0  0  0  0  0  0  0  0  0  0  0  0
   10.7247   12.5174   -4.5944 C   0  0  0  0  0  0  0  0  0  0  0  0
    8.5444    7.0032   -6.5055 C   0  0  0  0  0  0  0  0  0  0  0  0
    7.3519    3.2145   -5.5194 C   0  0  0  0  0  0  0  0  0  0  0  0
    6.8757    1.9513   -5.1983 C   0  0  0  0  0  0  0  0  0  0  0  0
    6.9808    1.5159   -3.9342 F   0  0  0  0  0  0  0  0  0  0  0  0
    4.1909   -3.8428   -4.8149 C   0  0  0  0  0  0  0  0  0  0  0  0
    2.6893   -7.1815   -2.6483 H   0  0  0  0  0  0  0  0  0  0  0  0
    3.3179   -5.8120   -1.7236 H   0  0  0  0  0  0  0  0  0  0  0  0
    4.2278   -6.4472   -3.1148 H   0  0  0  0  0  0  0  0  0  0  0  0
    2.2219   -2.9770   -2.1728 H   0  0  0  0  0  0  0  0  0  0  0  0
    3.5442   -0.8914   -2.4874 H   0  0  0  0  0  0  0  0  0  0  0  0
    6.0235   -3.2852   -6.5284 H   0  0  0  0  0  0  0  0  0  0  0  0
    5.7243   -0.3259   -4.8246 H   0  0  0  0  0  0  0  0  0  0  0  0
    5.7976    0.9429   -8.2621 H   0  0  0  0  0  0  0  0  0  0  0  0
    6.5327    3.2390   -8.8250 H   0  0  0  0  0  0  0  0  0  0  0  0
    5.7517    5.4470   -5.3102 H   0  0  0  0  0  0  0  0  0  0  0  0
    5.8730    7.4287   -3.8245 H   0  0  0  0  0  0  0  0  0  0  0  0
   10.1989    8.9785   -6.4592 H   0  0  0  0  0  0  0  0  0  0  0  0
   11.1063   11.0804   -6.2277 H   0  0  0  0  0  0  0  0  0  0  0  0
   12.6508   11.4536   -4.2657 H   0  0  0  0  0  0  0  0  0  0  0  0
   11.3198   10.9852   -3.1081 H   0  0  0  0  0  0  0  0  0  0  0  0
   11.2070   13.3235   -5.1294 H   0  0  0  0  0  0  0  0  0  0  0  0
    9.8853   12.8384   -3.9834 H   0  0  0  0  0  0  0  0  0  0  0  0
    9.3113    6.9022   -7.2645 H   0  0  0  0  0  0  0  0  0  0  0  0
    7.8263    3.8002   -4.7384 H   0  0  0  0  0  0  0  0  0  0  0  0
    4.3850   -4.6535   -5.5093 H   0  0  0  0  0  0  0  0  0  0  0  0
  1  2  1  0  0  0  0
  1 35  1  0  0  0  0
  1 36  1  0  0  0  0
  1 37  1  0  0  0  0
  2  3  1  0  0  0  0
  2  4  1  0  0  0  0
  2  5  1  0  0  0  0
  5  6  1  0  0  0  0
  5 34  2  0  0  0  0
  6  7  2  0  0  0  0
  6 38  1  0  0  0  0
  7  8  1  0  0  0  0
  7 39  1  0  0  0  0
  8  9  2  0  0  0  0
  9 10  1  0  0  0  0
  9 34  1  0  0  0  0
 10 11  1  0  0  0  0
 10 40  1  0  0  0  0
 11 12  2  0  0  0  0
 11 13  1  0  0  0  0
 13 14  1  0  0  0  0
 13 41  1  0  0  0  0
 14 15  1  0  0  0  0
 14 32  2  0  0  0  0
 15 16  2  0  0  0  0
 15 42  1  0  0  0  0
 16 17  1  0  0  0  0
 16 43  1  0  0  0  0
 17 18  1  0  0  0  0
 17 31  2  0  0  0  0
 18 19  1  0  0  0  0
 19 20  1  0  0  0  0
 19 30  2  0  0  0  0
 20 21  2  0  0  0  0
 20 44  1  0  0  0  0
 21 22  1  0  0  0  0
 21 45  1  0  0  0  0
 22 23  2  0  0  0  0
 23 24  1  0  0  0  0
 23 30  1  0  0  0  0
 24 25  1  0  0  0  0
 24 46  1  0  0  0  0
 25 26  2  0  0  0  0
 25 27  1  0  0  0  0
 27 28  1  0  0  0  0
 27 29  1  0  0  0  0
 27 47  1  0  0  0  0
 28 29  1  0  0  0  0
 28 48  1  0  0  0  0
 28 49  1  0  0  0  0
 29 50  1  0  0  0  0
 29 51  1  0  0  0  0
 30 52  1  0  0  0  0
 31 32  1  0  0  0  0
 31 53  1  0  0  0  0
 32 33  1  0  0  0  0
 34 54  1  0  0  0  0
M  END
$$$$
