CHEMBL3648103
 OpenBabel04072215373D

 46 47  0  0  1  0  0  0  0  0999 V2000
    2.3489   -2.5873    3.5275 C   0  0  0  0  0  0  0  0  0  0  0  0
    2.0172   -1.5448    4.5878 C   0  0  0  0  0  0  0  0  0  0  0  0
    2.6581   -0.1577    4.3746 C   0  0  3  0  0  0  0  0  0  0  0  0
    2.4233    0.5455    2.6689 S   0  0  0  0  0  0  0  0  0  0  0  0
    0.6561    0.8165    2.6329 C   0  0  0  0  0  0  0  0  0  0  0  0
   -0.0787   -0.3225    2.6767 N   0  0  0  0  0  0  0  0  0  0  0  0
   -1.4093   -0.2092    2.6885 C   0  0  0  0  0  0  0  0  0  0  0  0
   -2.1444   -1.3874    2.7742 N   0  0  0  0  0  0  0  0  0  0  0  0
   -3.4488   -1.5830    3.2424 C   0  0  0  0  0  0  0  0  0  0  0  0
   -4.2045   -2.6638    2.7708 C   0  0  0  0  0  0  0  0  0  0  0  0
   -5.5529   -2.8023    3.1229 C   0  0  0  0  0  0  0  0  0  0  0  0
   -6.1536   -1.8548    3.9582 C   0  0  0  0  0  0  0  0  0  0  0  0
   -7.8929   -1.9991    4.3167 S   0  0  3  0  0  0  0  0  0  0  0  0
   -8.0928   -1.3827    5.9700 C   0  0  0  0  0  0  0  0  0  0  0  0
   -8.5858   -1.0089    3.3629 N   0  0  0  0  0  0  0  0  0  0  0  0
   -8.1693   -3.4217    4.3851 O   0  0  0  0  0  0  0  0  0  0  0  0
   -5.4105   -0.7937    4.4649 C   0  0  0  0  0  0  0  0  0  0  0  0
   -4.0718   -0.6631    4.0990 C   0  0  0  0  0  0  0  0  0  0  0  0
   -2.0399    0.9737    2.6021 N   0  0  0  0  0  0  0  0  0  0  0  0
   -1.2824    2.0844    2.5064 C   0  0  0  0  0  0  0  0  0  0  0  0
    0.0892    2.0708    2.5266 C   0  0  0  0  0  0  0  0  0  0  0  0
    1.0289    3.7025    2.4316 Br  0  0  0  0  0  0  0  0  0  0  0  0
    2.2557    0.8652    5.4752 C   0  0  3  0  0  0  0  0  0  0  0  0
    2.5751    0.3909    6.8917 C   0  0  0  0  0  0  0  0  0  0  0  0
    2.9378    2.1115    5.2952 O   0  0  0  0  0  0  0  0  0  0  0  0
    1.9596   -3.5633    3.8363 H   0  0  0  0  0  0  0  0  0  0  0  0
    3.4311   -2.6828    3.3970 H   0  0  0  0  0  0  0  0  0  0  0  0
    1.8988   -2.3519    2.5594 H   0  0  0  0  0  0  0  0  0  0  0  0
    2.3686   -1.9499    5.5438 H   0  0  0  0  0  0  0  0  0  0  0  0
    0.9302   -1.4577    4.6893 H   0  0  0  0  0  0  0  0  0  0  0  0
    3.7461   -0.2902    4.4336 H   0  0  0  0  0  0  0  0  0  0  0  0
   -1.5641   -2.2031    2.6544 H   0  0  0  0  0  0  0  0  0  0  0  0
   -3.7633   -3.3824    2.0833 H   0  0  0  0  0  0  0  0  0  0  0  0
   -6.1342   -3.6278    2.7156 H   0  0  0  0  0  0  0  0  0  0  0  0
   -7.8298   -0.3254    6.0129 H   0  0  0  0  0  0  0  0  0  0  0  0
   -7.4672   -1.9670    6.6475 H   0  0  0  0  0  0  0  0  0  0  0  0
   -9.1431   -1.5011    6.2470 H   0  0  0  0  0  0  0  0  0  0  0  0
   -8.2360   -0.0553    3.4467 H   0  0  0  0  0  0  0  0  0  0  0  0
   -5.8397   -0.0365    5.1105 H   0  0  0  0  0  0  0  0  0  0  0  0
   -3.5099    0.1808    4.4943 H   0  0  0  0  0  0  0  0  0  0  0  0
   -1.8474    3.0096    2.4160 H   0  0  0  0  0  0  0  0  0  0  0  0
    1.1830    1.0760    5.4215 H   0  0  0  0  0  0  0  0  0  0  0  0
    3.6400    0.1559    6.9955 H   0  0  0  0  0  0  0  0  0  0  0  0
    1.9894   -0.4879    7.1736 H   0  0  0  0  0  0  0  0  0  0  0  0
    2.3578    1.1851    7.6145 H   0  0  0  0  0  0  0  0  0  0  0  0
    3.8953    1.9379    5.3017 H   0  0  0  0  0  0  0  0  0  0  0  0
  1  2  1  0  0  0  0
  1 26  1  0  0  0  0
  1 27  1  0  0  0  0
  1 28  1  0  0  0  0
  2  3  1  0  0  0  0
  2 29  1  0  0  0  0
  2 30  1  0  0  0  0
  3  4  1  0  0  0  0
  3 23  1  0  0  0  0
  3 31  1  0  0  0  0
  4  5  1  0  0  0  0
  5  6  1  0  0  0  0
  5 21  2  0  0  0  0
  6  7  2  0  0  0  0
  7  8  1  0  0  0  0
  7 19  1  0  0  0  0
  8  9  1  0  0  0  0
  8 32  1  0  0  0  0
  9 10  1  0  0  0  0
  9 18  2  0  0  0  0
 10 11  2  0  0  0  0
 10 33  1  0  0  0  0
 11 12  1  0  0  0  0
 11 34  1  0  0  0  0
 12 13  1  0  0  0  0
 12 17  2  0  0  0  0
 13 14  1  0  0  0  0
 13 15  2  0  0  0  0
 13 16  2  0  0  0  0
 14 35  1  0  0  0  0
 14 36  1  0  0  0  0
 14 37  1  0  0  0  0
 15 38  1  0  0  0  0
 17 18  1  0  0  0  0
 17 39  1  0  0  0  0
 18 40  1  0  0  0  0
 19 20  2  0  0  0  0
 20 21  1  0  0  0  0
 20 41  1  0  0  0  0
 21 22  1  0  0  0  0
 23 24  1  0  0  0  0
 23 25  1  0  0  0  0
 23 42  1  0  0  0  0
 24 43  1  0  0  0  0
 24 44  1  0  0  0  0
 24 45  1  0  0  0  0
 25 46  1  0  0  0  0
M  END
$$$$
