CHEMBL3702618
 OpenBabel04072215373D

 54 57  0  0  0  0  0  0  0  0999 V2000
    4.7166    3.3459   -3.0611 N   0  0  0  0  0  0  0  0  0  0  0  0
    5.4392    2.3005   -2.5261 C   0  0  0  0  0  0  0  0  0  0  0  0
    6.5092    1.8821   -3.2056 N   0  0  0  0  0  0  0  0  0  0  0  0
    7.1916    0.8520   -2.6703 C   0  0  0  0  0  0  0  0  0  0  0  0
    6.8553    0.2393   -1.4815 C   0  0  0  0  0  0  0  0  0  0  0  0
    5.7407    0.7614   -0.8492 C   0  0  0  0  0  0  0  0  0  0  0  0
    5.0356    1.8009   -1.3544 N   0  0  0  0  0  0  0  0  0  0  0  0
    5.2821    0.2121    0.4765 C   0  0  0  0  0  0  0  0  0  0  0  0
    5.8026   -1.2038    0.7035 C   0  0  0  0  0  0  0  0  0  0  0  0
    7.2381   -1.2672    0.4159 N   0  0  0  0  0  0  0  0  0  0  0  0
    8.1924   -1.4099    1.4076 C   0  0  0  0  0  0  0  0  0  0  0  0
    9.4243   -2.0273    1.1435 C   0  0  0  0  0  0  0  0  0  0  0  0
   10.4011   -2.1901    2.1342 C   0  0  0  0  0  0  0  0  0  0  0  0
   10.1717   -1.7292    3.4303 C   0  0  0  0  0  0  0  0  0  0  0  0
    8.9552   -1.1118    3.7291 C   0  0  0  0  0  0  0  0  0  0  0  0
    8.6138   -0.6344    5.0992 C   0  0  0  0  0  0  0  0  0  0  0  0
    7.4357   -0.5999    5.4462 O   0  0  0  0  0  0  0  0  0  0  0  0
    9.6539   -0.2264    5.9117 N   0  0  0  0  0  0  0  0  0  0  0  0
    9.4135    0.2979    7.2485 C   0  0  0  0  0  0  0  0  0  0  0  0
   10.1315   -0.5153    8.3395 C   0  0  0  0  0  0  0  0  0  0  0  0
    9.6771   -1.9845    8.3364 C   0  0  0  0  0  0  0  0  0  0  0  0
   10.3219   -2.7863    9.4643 C   0  0  0  0  0  0  0  0  0  0  0  0
   10.0701   -2.1473   10.8247 C   0  0  0  0  0  0  0  0  0  0  0  0
   10.5299   -0.6936   10.8471 C   0  0  0  0  0  0  0  0  0  0  0  0
    9.8883    0.1177    9.7224 C   0  0  0  0  0  0  0  0  0  0  0  0
    7.9801   -0.9708    2.7229 C   0  0  0  0  0  0  0  0  0  0  0  0
    7.6229   -0.9412   -0.9618 C   0  0  0  0  0  0  0  0  0  0  0  0
    5.3047    3.8812   -3.6833 H   0  0  0  0  0  0  0  0  0  0  0  0
    4.2401    3.8439   -2.3230 H   0  0  0  0  0  0  0  0  0  0  0  0
    8.0454    0.5234   -3.2566 H   0  0  0  0  0  0  0  0  0  0  0  0
    4.1866    0.2075    0.5152 H   0  0  0  0  0  0  0  0  0  0  0  0
    5.6441    0.8784    1.2678 H   0  0  0  0  0  0  0  0  0  0  0  0
    5.2882   -1.8974    0.0232 H   0  0  0  0  0  0  0  0  0  0  0  0
    5.5537   -1.5507    1.7131 H   0  0  0  0  0  0  0  0  0  0  0  0
    9.6273   -2.4391    0.1577 H   0  0  0  0  0  0  0  0  0  0  0  0
   11.3303   -2.6989    1.8915 H   0  0  0  0  0  0  0  0  0  0  0  0
   10.9247   -1.8963    4.1916 H   0  0  0  0  0  0  0  0  0  0  0  0
   10.5833   -0.1340    5.5255 H   0  0  0  0  0  0  0  0  0  0  0  0
    8.3378    0.3360    7.4534 H   0  0  0  0  0  0  0  0  0  0  0  0
    9.7809    1.3305    7.2491 H   0  0  0  0  0  0  0  0  0  0  0  0
   11.2110   -0.4910    8.1355 H   0  0  0  0  0  0  0  0  0  0  0  0
    9.9322   -2.4576    7.3813 H   0  0  0  0  0  0  0  0  0  0  0  0
    8.5852   -2.0344    8.4359 H   0  0  0  0  0  0  0  0  0  0  0  0
   11.4023   -2.8588    9.2888 H   0  0  0  0  0  0  0  0  0  0  0  0
    9.9280   -3.8087    9.4586 H   0  0  0  0  0  0  0  0  0  0  0  0
   10.5948   -2.7144   11.6020 H   0  0  0  0  0  0  0  0  0  0  0  0
    8.9999   -2.1970   11.0602 H   0  0  0  0  0  0  0  0  0  0  0  0
   11.6217   -0.6540   10.7496 H   0  0  0  0  0  0  0  0  0  0  0  0
   10.2802   -0.2452   11.8159 H   0  0  0  0  0  0  0  0  0  0  0  0
   10.2873    1.1388    9.7435 H   0  0  0  0  0  0  0  0  0  0  0  0
    8.8097    0.1959    9.9113 H   0  0  0  0  0  0  0  0  0  0  0  0
    7.0470   -0.4791    2.9896 H   0  0  0  0  0  0  0  0  0  0  0  0
    7.4125   -1.8081   -1.5998 H   0  0  0  0  0  0  0  0  0  0  0  0
    8.6916   -0.7117   -1.0435 H   0  0  0  0  0  0  0  0  0  0  0  0
  1  2  1  0  0  0  0
  1 28  1  0  0  0  0
  1 29  1  0  0  0  0
  2  3  1  0  0  0  0
  2  7  2  0  0  0  0
  3  4  2  0  0  0  0
  4  5  1  0  0  0  0
  4 30  1  0  0  0  0
  5  6  2  0  0  0  0
  5 27  1  0  0  0  0
  6  7  1  0  0  0  0
  6  8  1  0  0  0  0
  8  9  1  0  0  0  0
  8 31  1  0  0  0  0
  8 32  1  0  0  0  0
  9 10  1  0  0  0  0
  9 33  1  0  0  0  0
  9 34  1  0  0  0  0
 10 11  1  0  0  0  0
 10 27  1  0  0  0  0
 11 12  1  0  0  0  0
 11 26  2  0  0  0  0
 12 13  2  0  0  0  0
 12 35  1  0  0  0  0
 13 14  1  0  0  0  0
 13 36  1  0  0  0  0
 14 15  2  0  0  0  0
 14 37  1  0  0  0  0
 15 16  1  0  0  0  0
 15 26  1  0  0  0  0
 16 17  2  0  0  0  0
 16 18  1  0  0  0  0
 18 19  1  0  0  0  0
 18 38  1  0  0  0  0
 19 20  1  0  0  0  0
 19 39  1  0  0  0  0
 19 40  1  0  0  0  0
 20 21  1  0  0  0  0
 20 25  1  0  0  0  0
 20 41  1  0  0  0  0
 21 22  1  0  0  0  0
 21 42  1  0  0  0  0
 21 43  1  0  0  0  0
 22 23  1  0  0  0  0
 22 44  1  0  0  0  0
 22 45  1  0  0  0  0
 23 24  1  0  0  0  0
 23 46  1  0  0  0  0
 23 47  1  0  0  0  0
 24 25  1  0  0  0  0
 24 48  1  0  0  0  0
 24 49  1  0  0  0  0
 25 50  1  0  0  0  0
 25 51  1  0  0  0  0
 26 52  1  0  0  0  0
 27 53  1  0  0  0  0
 27 54  1  0  0  0  0
M  END
$$$$
