CHEMBL3976788
 OpenBabel04072215373D

 51 55  0  0  1  0  0  0  0  0999 V2000
   -3.6530   -4.9806   -0.8021 C   0  0  0  0  0  0  0  0  0  0  0  0
   -2.5017   -4.1428   -0.7061 O   0  0  0  0  0  0  0  0  0  0  0  0
   -1.3246   -4.6569   -1.1905 C   0  0  0  0  0  0  0  0  0  0  0  0
   -1.2362   -5.8762   -1.8656 C   0  0  0  0  0  0  0  0  0  0  0  0
   -0.0003   -6.3705   -2.3266 C   0  0  0  0  0  0  0  0  0  0  0  0
    0.1588   -7.5698   -3.0451 C   0  0  0  0  0  0  0  0  0  0  0  0
   -0.9925   -8.2759   -3.4716 N   0  0  0  0  0  0  0  0  0  0  0  0
   -1.1918   -9.6602   -3.5803 C   0  0  0  0  0  0  0  0  0  0  0  0
   -2.3822  -10.1477   -4.1405 C   0  0  0  0  0  0  0  0  0  0  0  0
   -2.7269  -11.5001   -4.0437 C   0  0  0  0  0  0  0  0  0  0  0  0
   -1.8902  -12.3894   -3.3668 C   0  0  0  0  0  0  0  0  0  0  0  0
   -2.5004  -14.1716   -3.1337 Br  0  0  0  0  0  0  0  0  0  0  0  0
   -0.6773  -11.9338   -2.8463 C   0  0  0  0  0  0  0  0  0  0  0  0
    0.4272  -12.9639   -2.0039 Cl  0  0  0  0  0  0  0  0  0  0  0  0
   -0.3374  -10.5844   -2.9530 C   0  0  0  0  0  0  0  0  0  0  0  0
    1.3702   -8.0573   -3.3558 N   0  0  0  0  0  0  0  0  0  0  0  0
    2.4220   -7.3269   -2.9771 C   0  0  0  0  0  0  0  0  0  0  0  0
    2.3821   -6.1420   -2.3536 N   0  0  0  0  0  0  0  0  0  0  0  0
    1.1754   -5.6701   -2.0330 C   0  0  0  0  0  0  0  0  0  0  0  0
    1.0748   -4.4410   -1.3919 C   0  0  0  0  0  0  0  0  0  0  0  0
   -0.1598   -3.8992   -1.0085 C   0  0  0  0  0  0  0  0  0  0  0  0
   -0.2973   -2.6491   -0.4464 O   0  0  0  0  0  0  0  0  0  0  0  0
    0.6727   -1.6465   -0.7994 C   0  0  1  0  0  0  0  0  0  0  0  0
    0.6644   -1.3114   -2.2986 C   0  0  0  0  0  0  0  0  0  0  0  0
    0.4338    0.0976   -2.4728 O   0  0  0  0  0  0  0  0  0  0  0  0
    0.5951    0.7184   -1.2017 C   0  0  2  0  0  0  0  0  0  0  0  0
    2.0497    1.0948   -0.9273 C   0  0  1  0  0  0  0  0  0  0  0  0
    2.4452    2.3984   -1.4694 N   0  0  0  0  0  0  0  0  0  0  0  0
    2.1240    0.9624    0.5890 C   0  0  0  0  0  0  0  0  0  0  0  0
    1.1409   -0.0145    0.9875 O   0  0  0  0  0  0  0  0  0  0  0  0
    0.3008   -0.3169   -0.1412 C   0  0  2  0  0  0  0  0  0  0  0  0
   -4.4746   -4.5042   -0.2589 H   0  0  0  0  0  0  0  0  0  0  0  0
   -3.4830   -5.9594   -0.3410 H   0  0  0  0  0  0  0  0  0  0  0  0
   -3.9595   -5.0875   -1.8484 H   0  0  0  0  0  0  0  0  0  0  0  0
   -2.1187   -6.4875   -2.0268 H   0  0  0  0  0  0  0  0  0  0  0  0
   -1.5527   -7.7153   -4.1070 H   0  0  0  0  0  0  0  0  0  0  0  0
   -3.0750   -9.4695   -4.6367 H   0  0  0  0  0  0  0  0  0  0  0  0
   -3.6713  -11.8408   -4.4630 H   0  0  0  0  0  0  0  0  0  0  0  0
    0.5906  -10.2430   -2.5068 H   0  0  0  0  0  0  0  0  0  0  0  0
    3.4026   -7.7334   -3.2006 H   0  0  0  0  0  0  0  0  0  0  0  0
    2.0043   -3.9201   -1.1853 H   0  0  0  0  0  0  0  0  0  0  0  0
    1.6640   -1.9580   -0.4511 H   0  0  0  0  0  0  0  0  0  0  0  0
   -0.0911   -1.8550   -2.8710 H   0  0  0  0  0  0  0  0  0  0  0  0
    1.6458   -1.5313   -2.7345 H   0  0  0  0  0  0  0  0  0  0  0  0
   -0.0696    1.5870   -1.1199 H   0  0  0  0  0  0  0  0  0  0  0  0
    2.7174    0.3520   -1.3817 H   0  0  0  0  0  0  0  0  0  0  0  0
    1.8524    3.1332   -1.0821 H   0  0  0  0  0  0  0  0  0  0  0  0
    2.2514    2.3990   -2.4729 H   0  0  0  0  0  0  0  0  0  0  0  0
    1.8889    1.9023    1.1004 H   0  0  0  0  0  0  0  0  0  0  0  0
    3.1121    0.6281    0.9204 H   0  0  0  0  0  0  0  0  0  0  0  0
   -0.7467   -0.3029    0.1782 H   0  0  0  0  0  0  0  0  0  0  0  0
  1  2  1  0  0  0  0
  1 32  1  0  0  0  0
  1 33  1  0  0  0  0
  1 34  1  0  0  0  0
  2  3  1  0  0  0  0
  3  4  1  0  0  0  0
  3 21  2  0  0  0  0
  4  5  2  0  0  0  0
  4 35  1  0  0  0  0
  5  6  1  0  0  0  0
  5 19  1  0  0  0  0
  6  7  1  0  0  0  0
  6 16  2  0  0  0  0
  7  8  1  0  0  0  0
  7 36  1  0  0  0  0
  8  9  1  0  0  0  0
  8 15  2  0  0  0  0
  9 10  2  0  0  0  0
  9 37  1  0  0  0  0
 10 11  1  0  0  0  0
 10 38  1  0  0  0  0
 11 12  1  0  0  0  0
 11 13  2  0  0  0  0
 13 14  1  0  0  0  0
 13 15  1  0  0  0  0
 15 39  1  0  0  0  0
 16 17  1  0  0  0  0
 17 18  2  0  0  0  0
 17 40  1  0  0  0  0
 18 19  1  0  0  0  0
 19 20  2  0  0  0  0
 20 21  1  0  0  0  0
 20 41  1  0  0  0  0
 21 22  1  0  0  0  0
 23 24  1  0  0  0  0
 23 31  1  0  0  0  0
 23 22  1  0  0  0  0
 23 42  1  1  0  0  0
 24 25  1  0  0  0  0
 24 43  1  0  0  0  0
 24 44  1  0  0  0  0
 25 26  1  0  0  0  0
 26 27  1  0  0  0  0
 26 31  1  0  0  0  0
 26 45  1  1  0  0  0
 27 28  1  0  0  0  0
 27 29  1  0  0  0  0
 27 46  1  6  0  0  0
 28 47  1  0  0  0  0
 28 48  1  0  0  0  0
 29 30  1  0  0  0  0
 29 49  1  0  0  0  0
 29 50  1  0  0  0  0
 30 31  1  0  0  0  0
 31 51  1  1  0  0  0
M  END
$$$$
