CHEMBL369908
 OpenBabel04072215373D

 56 60  0  0  0  0  0  0  0  0999 V2000
    2.3548   -0.4334    1.5554 C   0  0  0  0  0  0  0  0  0  0  0  0
    0.8577   -0.3173    1.5419 C   0  0  0  0  0  0  0  0  0  0  0  0
    0.2491    0.8583    1.9943 C   0  0  0  0  0  0  0  0  0  0  0  0
   -1.1342    0.9731    1.9923 C   0  0  0  0  0  0  0  0  0  0  0  0
   -1.9232   -0.0817    1.5300 C   0  0  0  0  0  0  0  0  0  0  0  0
   -1.3443   -1.2608    1.0509 C   0  0  0  0  0  0  0  0  0  0  0  0
   -2.1040   -2.3541    0.5631 N   0  0  0  0  0  0  0  0  0  0  0  0
   -3.4735   -2.3511    0.3328 C   0  0  0  0  0  0  0  0  0  0  0  0
   -4.2159   -1.3782    0.4311 O   0  0  0  0  0  0  0  0  0  0  0  0
   -3.9379   -3.6263    0.0118 N   0  0  0  0  0  0  0  0  0  0  0  0
   -5.3280   -3.8146   -0.1786 C   0  0  0  0  0  0  0  0  0  0  0  0
   -6.0627   -3.0560   -1.0919 C   0  0  0  0  0  0  0  0  0  0  0  0
   -7.4593   -3.1917   -1.1756 C   0  0  0  0  0  0  0  0  0  0  0  0
   -8.1619   -3.9805   -0.2607 C   0  0  0  0  0  0  0  0  0  0  0  0
   -9.6490   -3.9657   -0.2131 C   0  0  0  0  0  0  0  0  0  0  0  0
  -10.3912   -5.1386   -0.0084 C   0  0  0  0  0  0  0  0  0  0  0  0
   -9.9774   -6.5818    0.1895 C   0  0  0  0  0  0  0  0  0  0  0  0
   -9.6747   -7.0083    1.6199 C   0  0  0  0  0  0  0  0  0  0  0  0
   -9.8647   -6.1849    2.7379 C   0  0  0  0  0  0  0  0  0  0  0  0
   -9.4127   -6.6170    3.9760 C   0  0  0  0  0  0  0  0  0  0  0  0
   -8.8280   -7.8142    4.1863 N   0  0  0  0  0  0  0  0  0  0  0  0
   -8.7004   -8.6192    3.1123 C   0  0  0  0  0  0  0  0  0  0  0  0
   -9.0996   -8.2685    1.8312 C   0  0  0  0  0  0  0  0  0  0  0  0
  -12.0803   -4.8470   -0.0316 S   0  0  0  0  0  0  0  0  0  0  0  0
  -11.8760   -3.1957   -0.3011 C   0  0  0  0  0  0  0  0  0  0  0  0
  -12.9710   -2.4286   -0.4319 N   0  0  0  0  0  0  0  0  0  0  0  0
  -12.6923   -1.1607   -0.6481 C   0  0  0  0  0  0  0  0  0  0  0  0
  -11.4733   -0.6167   -0.7298 N   0  0  0  0  0  0  0  0  0  0  0  0
  -10.3825   -1.4014   -0.5762 C   0  0  0  0  0  0  0  0  0  0  0  0
   -9.1957   -0.7158   -0.6727 N   0  0  0  0  0  0  0  0  0  0  0  0
  -10.5454   -2.7963   -0.3656 C   0  0  0  0  0  0  0  0  0  0  0  0
   -7.3887   -4.7514    0.6231 C   0  0  0  0  0  0  0  0  0  0  0  0
   -5.9894   -4.7287    0.6235 C   0  0  0  0  0  0  0  0  0  0  0  0
    0.0546   -1.3744    1.0722 C   0  0  0  0  0  0  0  0  0  0  0  0
    2.8205    0.4725    1.9610 H   0  0  0  0  0  0  0  0  0  0  0  0
    2.7338   -0.5735    0.5385 H   0  0  0  0  0  0  0  0  0  0  0  0
    2.6661   -1.2738    2.1827 H   0  0  0  0  0  0  0  0  0  0  0  0
    0.8466    1.6918    2.3540 H   0  0  0  0  0  0  0  0  0  0  0  0
   -1.6121    1.8855    2.3445 H   0  0  0  0  0  0  0  0  0  0  0  0
   -2.9984    0.0580    1.5632 H   0  0  0  0  0  0  0  0  0  0  0  0
   -1.5914   -3.1485    0.2139 H   0  0  0  0  0  0  0  0  0  0  0  0
   -3.4717   -4.3482    0.5440 H   0  0  0  0  0  0  0  0  0  0  0  0
   -5.5604   -2.3346   -1.7330 H   0  0  0  0  0  0  0  0  0  0  0  0
   -7.9866   -2.6173   -1.9345 H   0  0  0  0  0  0  0  0  0  0  0  0
   -9.0911   -6.7747   -0.4295 H   0  0  0  0  0  0  0  0  0  0  0  0
  -10.7582   -7.2515   -0.1963 H   0  0  0  0  0  0  0  0  0  0  0  0
  -10.2976   -5.1926    2.6601 H   0  0  0  0  0  0  0  0  0  0  0  0
   -9.4927   -5.9789    4.8523 H   0  0  0  0  0  0  0  0  0  0  0  0
   -8.2388   -9.5829    3.3103 H   0  0  0  0  0  0  0  0  0  0  0  0
   -8.9417   -8.9609    1.0103 H   0  0  0  0  0  0  0  0  0  0  0  0
  -13.5249   -0.4807   -0.7837 H   0  0  0  0  0  0  0  0  0  0  0  0
   -9.2834    0.2776   -0.8364 H   0  0  0  0  0  0  0  0  0  0  0  0
   -8.3135   -1.0883   -0.3608 H   0  0  0  0  0  0  0  0  0  0  0  0
   -7.8405   -5.3725    1.3791 H   0  0  0  0  0  0  0  0  0  0  0  0
   -5.4543   -5.3499    1.3363 H   0  0  0  0  0  0  0  0  0  0  0  0
    0.5381   -2.2825    0.7201 H   0  0  0  0  0  0  0  0  0  0  0  0
  1  2  1  0  0  0  0
  1 35  1  0  0  0  0
  1 36  1  0  0  0  0
  1 37  1  0  0  0  0
  2  3  1  0  0  0  0
  2 34  2  0  0  0  0
  3  4  2  0  0  0  0
  3 38  1  0  0  0  0
  4  5  1  0  0  0  0
  4 39  1  0  0  0  0
  5  6  2  0  0  0  0
  5 40  1  0  0  0  0
  6  7  1  0  0  0  0
  6 34  1  0  0  0  0
  7  8  1  0  0  0  0
  7 41  1  0  0  0  0
  8  9  2  0  0  0  0
  8 10  1  0  0  0  0
 10 11  1  0  0  0  0
 10 42  1  0  0  0  0
 11 12  1  0  0  0  0
 11 33  2  0  0  0  0
 12 13  2  0  0  0  0
 12 43  1  0  0  0  0
 13 14  1  0  0  0  0
 13 44  1  0  0  0  0
 14 15  1  0  0  0  0
 14 32  2  0  0  0  0
 15 16  2  0  0  0  0
 15 31  1  0  0  0  0
 16 17  1  0  0  0  0
 16 24  1  0  0  0  0
 17 18  1  0  0  0  0
 17 45  1  0  0  0  0
 17 46  1  0  0  0  0
 18 19  1  0  0  0  0
 18 23  2  0  0  0  0
 19 20  2  0  0  0  0
 19 47  1  0  0  0  0
 20 21  1  0  0  0  0
 20 48  1  0  0  0  0
 21 22  2  0  0  0  0
 22 23  1  0  0  0  0
 22 49  1  0  0  0  0
 23 50  1  0  0  0  0
 24 25  1  0  0  0  0
 25 26  1  0  0  0  0
 25 31  2  0  0  0  0
 26 27  2  0  0  0  0
 27 28  1  0  0  0  0
 27 51  1  0  0  0  0
 28 29  2  0  0  0  0
 29 30  1  0  0  0  0
 29 31  1  0  0  0  0
 30 52  1  0  0  0  0
 30 53  1  0  0  0  0
 32 33  1  0  0  0  0
 32 54  1  0  0  0  0
 33 55  1  0  0  0  0
 34 56  1  0  0  0  0
M  END
$$$$
