CHEMBL3947303
 OpenBabel04072215373D

 52 55  0  0  0  0  0  0  0  0999 V2000
    7.0293    2.9908   -1.8052 C   0  0  0  0  0  0  0  0  0  0  0  0
    6.3841    1.8850   -1.1876 O   0  0  0  0  0  0  0  0  0  0  0  0
    5.1635    2.1074   -0.6013 C   0  0  0  0  0  0  0  0  0  0  0  0
    4.5280    3.3557   -0.5553 C   0  0  0  0  0  0  0  0  0  0  0  0
    3.2656    3.5185    0.0451 C   0  0  0  0  0  0  0  0  0  0  0  0
    2.5987    4.8379    0.0796 C   0  0  0  0  0  0  0  0  0  0  0  0
    1.8072    5.2026    1.1807 C   0  0  0  0  0  0  0  0  0  0  0  0
    1.1617    6.4377    1.2541 C   0  0  0  0  0  0  0  0  0  0  0  0
    1.2857    7.3466    0.1880 C   0  0  0  0  0  0  0  0  0  0  0  0
    0.7974    8.6534   -0.1207 C   0  0  0  0  0  0  0  0  0  0  0  0
   -0.0713    9.4981    0.7058 C   0  0  0  0  0  0  0  0  0  0  0  0
    0.0408   10.8892    0.6535 C   0  0  0  0  0  0  0  0  0  0  0  0
   -0.7043   11.7079    1.5117 C   0  0  0  0  0  0  0  0  0  0  0  0
   -0.6113   13.0754    1.4753 O   0  0  0  0  0  0  0  0  0  0  0  0
    0.2702   13.6821    0.5406 C   0  0  0  0  0  0  0  0  0  0  0  0
   -1.5732   11.1160    2.4552 C   0  0  0  0  0  0  0  0  0  0  0  0
   -2.3425   11.7674    3.3926 O   0  0  0  0  0  0  0  0  0  0  0  0
   -2.2985   13.1822    3.4667 C   0  0  0  0  0  0  0  0  0  0  0  0
   -1.7101    9.7094    2.4872 C   0  0  0  0  0  0  0  0  0  0  0  0
   -2.5654    9.1809    3.4300 O   0  0  0  0  0  0  0  0  0  0  0  0
   -2.6589    7.7636    3.5197 C   0  0  0  0  0  0  0  0  0  0  0  0
   -0.9872    8.9240    1.5907 C   0  0  0  0  0  0  0  0  0  0  0  0
    1.2933    9.0900   -1.2916 N   0  0  0  0  0  0  0  0  0  0  0  0
    2.0525    8.0737   -1.7264 N   0  0  0  0  0  0  0  0  0  0  0  0
    2.0855    6.9965   -0.8884 C   0  0  0  0  0  0  0  0  0  0  0  0
    2.7483    5.7651   -0.9754 C   0  0  0  0  0  0  0  0  0  0  0  0
    2.6656    2.3783    0.6193 C   0  0  0  0  0  0  0  0  0  0  0  0
    3.2981    1.1356    0.5982 C   0  0  0  0  0  0  0  0  0  0  0  0
    4.5351    1.0064   -0.0184 C   0  0  0  0  0  0  0  0  0  0  0  0
    5.1497   -0.2148   -0.0580 O   0  0  0  0  0  0  0  0  0  0  0  0
    7.9782    2.6380   -2.2201 H   0  0  0  0  0  0  0  0  0  0  0  0
    7.2583    3.7736   -1.0750 H   0  0  0  0  0  0  0  0  0  0  0  0
    6.4319    3.3863   -2.6336 H   0  0  0  0  0  0  0  0  0  0  0  0
    5.0148    4.2299   -0.9730 H   0  0  0  0  0  0  0  0  0  0  0  0
    1.6913    4.5287    2.0295 H   0  0  0  0  0  0  0  0  0  0  0  0
    0.5837    6.6708    2.1413 H   0  0  0  0  0  0  0  0  0  0  0  0
    0.7359   11.3100   -0.0648 H   0  0  0  0  0  0  0  0  0  0  0  0
    0.1843   14.7660    0.6633 H   0  0  0  0  0  0  0  0  0  0  0  0
   -0.0150   13.4418   -0.4887 H   0  0  0  0  0  0  0  0  0  0  0  0
    1.3098   13.4064    0.7444 H   0  0  0  0  0  0  0  0  0  0  0  0
   -2.9646   13.4965    4.2754 H   0  0  0  0  0  0  0  0  0  0  0  0
   -2.6787   13.6372    2.5457 H   0  0  0  0  0  0  0  0  0  0  0  0
   -1.2954   13.5370    3.7231 H   0  0  0  0  0  0  0  0  0  0  0  0
   -3.3562    7.5190    4.3274 H   0  0  0  0  0  0  0  0  0  0  0  0
   -1.6913    7.3137    3.7706 H   0  0  0  0  0  0  0  0  0  0  0  0
   -3.0643    7.3387    2.5956 H   0  0  0  0  0  0  0  0  0  0  0  0
   -1.1315    7.8524    1.5691 H   0  0  0  0  0  0  0  0  0  0  0  0
    2.5402    8.1833   -2.6082 H   0  0  0  0  0  0  0  0  0  0  0  0
    3.3530    5.5357   -1.8479 H   0  0  0  0  0  0  0  0  0  0  0  0
    1.6867    2.4494    1.0922 H   0  0  0  0  0  0  0  0  0  0  0  0
    2.8018    0.2870    1.0616 H   0  0  0  0  0  0  0  0  0  0  0  0
    4.5744   -0.8731    0.3595 H   0  0  0  0  0  0  0  0  0  0  0  0
  1  2  1  0  0  0  0
  1 31  1  0  0  0  0
  1 32  1  0  0  0  0
  1 33  1  0  0  0  0
  2  3  1  0  0  0  0
  3  4  1  0  0  0  0
  3 29  2  0  0  0  0
  4  5  2  0  0  0  0
  4 34  1  0  0  0  0
  5  6  1  0  0  0  0
  5 27  1  0  0  0  0
  6  7  1  0  0  0  0
  6 26  2  0  0  0  0
  7  8  2  0  0  0  0
  7 35  1  0  0  0  0
  8  9  1  0  0  0  0
  8 36  1  0  0  0  0
  9 10  1  0  0  0  0
  9 25  2  0  0  0  0
 10 11  1  0  0  0  0
 10 23  2  0  0  0  0
 11 12  1  0  0  0  0
 11 22  2  0  0  0  0
 12 13  2  0  0  0  0
 12 37  1  0  0  0  0
 13 14  1  0  0  0  0
 13 16  1  0  0  0  0
 14 15  1  0  0  0  0
 15 38  1  0  0  0  0
 15 39  1  0  0  0  0
 15 40  1  0  0  0  0
 16 17  1  0  0  0  0
 16 19  2  0  0  0  0
 17 18  1  0  0  0  0
 18 41  1  0  0  0  0
 18 42  1  0  0  0  0
 18 43  1  0  0  0  0
 19 20  1  0  0  0  0
 19 22  1  0  0  0  0
 20 21  1  0  0  0  0
 21 44  1  0  0  0  0
 21 45  1  0  0  0  0
 21 46  1  0  0  0  0
 22 47  1  0  0  0  0
 23 24  1  0  0  0  0
 24 25  1  0  0  0  0
 24 48  1  0  0  0  0
 25 26  1  0  0  0  0
 26 49  1  0  0  0  0
 27 28  2  0  0  0  0
 27 50  1  0  0  0  0
 28 29  1  0  0  0  0
 28 51  1  0  0  0  0
 29 30  1  0  0  0  0
 30 52  1  0  0  0  0
M  END
$$$$
