CHEMBL378403
 OpenBabel04072215373D

 36 39  0  0  0  0  0  0  0  0999 V2000
    1.2307   -0.2027   -1.0970 C   0  0  0  0  0  0  0  0  0  0  0  0
    2.5537   -0.0421   -0.5380 N   0  0  0  0  0  0  0  0  0  0  0  0
    3.3370    1.0597   -0.7177 C   0  0  0  0  0  0  0  0  0  0  0  0
    4.4872    0.9017    0.0199 C   0  0  0  0  0  0  0  0  0  0  0  0
    5.5379    1.8660    0.0987 C   0  0  0  0  0  0  0  0  0  0  0  0
    5.5028    3.2085    0.0714 C   0  0  0  0  0  0  0  0  0  0  0  0
    4.3690    4.1481   -0.1116 C   0  0  0  0  0  0  0  0  0  0  0  0
    3.1715    3.9504   -0.0985 O   0  0  0  0  0  0  0  0  0  0  0  0
    5.0043    5.3667   -0.3118 N   0  0  0  0  0  0  0  0  0  0  0  0
    6.3700    5.3586   -0.1438 N   0  0  0  0  0  0  0  0  0  0  0  0
    6.6891    4.1145    0.1273 C   0  0  0  0  0  0  0  0  0  0  0  0
    8.0466    3.6776    0.4747 C   0  0  0  0  0  0  0  0  0  0  0  0
    9.1553    4.3778    0.0275 C   0  0  0  0  0  0  0  0  0  0  0  0
   10.4246    3.9729    0.2981 N   0  0  0  0  0  0  0  0  0  0  0  0
   10.5313    2.8540    1.0528 C   0  0  0  0  0  0  0  0  0  0  0  0
    9.4250    2.1784    1.5331 C   0  0  0  0  0  0  0  0  0  0  0  0
    8.1652    2.5795    1.2610 N   0  0  0  0  0  0  0  0  0  0  0  0
    4.4504   -0.4206    0.6012 C   0  0  0  0  0  0  0  0  0  0  0  0
    5.2903   -1.2435    1.3969 C   0  0  0  0  0  0  0  0  0  0  0  0
    6.8288   -0.6569    1.8598 Cl  0  0  0  0  0  0  0  0  0  0  0  0
    4.9013   -2.5225    1.8065 C   0  0  0  0  0  0  0  0  0  0  0  0
    3.6606   -3.0197    1.4390 C   0  0  0  0  0  0  0  0  0  0  0  0
    2.7967   -2.2556    0.6530 C   0  0  0  0  0  0  0  0  0  0  0  0
    3.2071   -0.9730    0.2410 C   0  0  0  0  0  0  0  0  0  0  0  0
    0.9638    0.6921   -1.6654 H   0  0  0  0  0  0  0  0  0  0  0  0
    0.5248   -0.3410   -0.2742 H   0  0  0  0  0  0  0  0  0  0  0  0
    1.2368   -1.0727   -1.7570 H   0  0  0  0  0  0  0  0  0  0  0  0
    2.9952    1.8747   -1.3418 H   0  0  0  0  0  0  0  0  0  0  0  0
    6.5161    1.4077    0.1699 H   0  0  0  0  0  0  0  0  0  0  0  0
    4.5029    6.2358   -0.4524 H   0  0  0  0  0  0  0  0  0  0  0  0
    9.0659    5.2754   -0.5746 H   0  0  0  0  0  0  0  0  0  0  0  0
   11.5374    2.5078    1.2614 H   0  0  0  0  0  0  0  0  0  0  0  0
    9.5167    1.2866    2.1436 H   0  0  0  0  0  0  0  0  0  0  0  0
    5.5684   -3.1290    2.4139 H   0  0  0  0  0  0  0  0  0  0  0  0
    3.3559   -4.0109    1.7669 H   0  0  0  0  0  0  0  0  0  0  0  0
    1.8267   -2.6532    0.3691 H   0  0  0  0  0  0  0  0  0  0  0  0
  1  2  1  0  0  0  0
  1 25  1  0  0  0  0
  1 26  1  0  0  0  0
  1 27  1  0  0  0  0
  2  3  1  0  0  0  0
  2 24  1  0  0  0  0
  3  4  2  0  0  0  0
  3 28  1  0  0  0  0
  4  5  1  0  0  0  0
  4 18  1  0  0  0  0
  5  6  2  0  0  0  0
  5 29  1  0  0  0  0
  6  7  1  0  0  0  0
  6 11  1  0  0  0  0
  7  8  2  0  0  0  0
  7  9  1  0  0  0  0
  9 10  1  0  0  0  0
  9 30  1  0  0  0  0
 10 11  2  0  0  0  0
 11 12  1  0  0  0  0
 12 13  1  0  0  0  0
 12 17  2  0  0  0  0
 13 14  2  0  0  0  0
 13 31  1  0  0  0  0
 14 15  1  0  0  0  0
 15 16  2  0  0  0  0
 15 32  1  0  0  0  0
 16 17  1  0  0  0  0
 16 33  1  0  0  0  0
 18 19  1  0  0  0  0
 18 24  2  0  0  0  0
 19 20  1  0  0  0  0
 19 21  2  0  0  0  0
 21 22  1  0  0  0  0
 21 34  1  0  0  0  0
 22 23  2  0  0  0  0
 22 35  1  0  0  0  0
 23 24  1  0  0  0  0
 23 36  1  0  0  0  0
M  END
$$$$
