CHEMBL3694705
 OpenBabel04072215373D

 56 59  0  0  0  0  0  0  0  0999 V2000
    7.9638    8.5671    1.4473 C   0  0  0  0  0  0  0  0  0  0  0  0
    8.9460    7.7960    0.5823 C   0  0  0  0  0  0  0  0  0  0  0  0
    8.3722    6.5222    0.2448 O   0  0  0  0  0  0  0  0  0  0  0  0
    8.5468    5.5672    1.2002 C   0  0  0  0  0  0  0  0  0  0  0  0
    9.2677    5.7114    2.1744 O   0  0  0  0  0  0  0  0  0  0  0  0
    7.7761    4.4853    0.8861 N   0  0  0  0  0  0  0  0  0  0  0  0
    7.5972    3.3820    1.7309 C   0  0  0  0  0  0  0  0  0  0  0  0
    8.1219    3.3999    2.9687 N   0  0  0  0  0  0  0  0  0  0  0  0
    7.9413    2.3230    3.7490 C   0  0  0  0  0  0  0  0  0  0  0  0
    8.5868    2.3452    5.0909 C   0  0  0  0  0  0  0  0  0  0  0  0
    9.4075    3.4748    5.5600 C   0  0  0  0  0  0  0  0  0  0  0  0
   10.0001    3.4320    6.7671 C   0  0  0  0  0  0  0  0  0  0  0  0
    9.8088    2.3257    7.6011 N   0  0  0  0  0  0  0  0  0  0  0  0
   10.2299    2.0593    8.9083 C   0  0  0  0  0  0  0  0  0  0  0  0
   10.8914    2.9831    9.8479 C   0  0  0  0  0  0  0  0  0  0  0  0
   10.5952    4.3503    9.8160 C   0  0  0  0  0  0  0  0  0  0  0  0
   11.1842    5.2330   10.7116 C   0  0  0  0  0  0  0  0  0  0  0  0
   12.0248    4.7542   11.7089 C   0  0  0  0  0  0  0  0  0  0  0  0
   12.2893    3.3890   11.8349 C   0  0  0  0  0  0  0  0  0  0  0  0
   13.0605    2.8622   12.9019 N   0  0  0  0  0  0  0  0  0  0  0  0
   13.5424    3.5759   13.9832 C   0  0  0  0  0  0  0  0  0  0  0  0
   13.3878    4.7709   14.2093 O   0  0  0  0  0  0  0  0  0  0  0  0
   14.3070    2.8140   14.8386 N   0  0  0  0  0  0  0  0  0  0  0  0
   14.8742    3.4713   16.0276 C   0  0  0  0  0  0  0  0  0  0  0  0
   13.9146    3.7021   17.2066 C   0  0  0  0  0  0  0  0  0  0  0  0
   12.7268    3.0804   17.0273 F   0  0  0  0  0  0  0  0  0  0  0  0
   14.4541    3.1901   18.3427 F   0  0  0  0  0  0  0  0  0  0  0  0
   13.6783    5.0104   17.4345 F   0  0  0  0  0  0  0  0  0  0  0  0
   11.7478    2.5122   10.8727 C   0  0  0  0  0  0  0  0  0  0  0  0
    9.7991    0.7588    9.1322 C   0  0  0  0  0  0  0  0  0  0  0  0
    9.0923    0.2557    8.0772 N   0  0  0  0  0  0  0  0  0  0  0  0
    9.0730    1.2190    7.1846 C   0  0  0  0  0  0  0  0  0  0  0  0
    8.4494    1.2694    5.9033 C   0  0  0  0  0  0  0  0  0  0  0  0
    7.2542    1.2270    3.3657 N   0  0  0  0  0  0  0  0  0  0  0  0
    6.7350    1.2466    2.1207 C   0  0  0  0  0  0  0  0  0  0  0  0
    6.8716    2.3083    1.2619 C   0  0  0  0  0  0  0  0  0  0  0  0
    6.3431    2.2857    0.0312 F   0  0  0  0  0  0  0  0  0  0  0  0
    8.3773    9.5327    1.7482 H   0  0  0  0  0  0  0  0  0  0  0  0
    7.7019    8.0022    2.3486 H   0  0  0  0  0  0  0  0  0  0  0  0
    7.0297    8.7341    0.9008 H   0  0  0  0  0  0  0  0  0  0  0  0
    9.9155    7.6828    1.0826 H   0  0  0  0  0  0  0  0  0  0  0  0
    9.1320    8.3365   -0.3509 H   0  0  0  0  0  0  0  0  0  0  0  0
    7.2965    4.5086   -0.0018 H   0  0  0  0  0  0  0  0  0  0  0  0
    9.5313    4.3347    4.9037 H   0  0  0  0  0  0  0  0  0  0  0  0
   10.6334    4.2385    7.1118 H   0  0  0  0  0  0  0  0  0  0  0  0
    9.8754    4.7590    9.1136 H   0  0  0  0  0  0  0  0  0  0  0  0
   10.9661    6.2961   10.6576 H   0  0  0  0  0  0  0  0  0  0  0  0
   12.4465    5.4892   12.3843 H   0  0  0  0  0  0  0  0  0  0  0  0
   13.2426    1.8722   12.8924 H   0  0  0  0  0  0  0  0  0  0  0  0
   14.0575    1.8394   14.9272 H   0  0  0  0  0  0  0  0  0  0  0  0
   15.2941    4.4376   15.7216 H   0  0  0  0  0  0  0  0  0  0  0  0
   15.7132    2.8485   16.3520 H   0  0  0  0  0  0  0  0  0  0  0  0
   11.9684    1.4486   10.9335 H   0  0  0  0  0  0  0  0  0  0  0  0
    9.9267    0.1761   10.0345 H   0  0  0  0  0  0  0  0  0  0  0  0
    7.8606    0.4033    5.6178 H   0  0  0  0  0  0  0  0  0  0  0  0
    6.1988    0.3522    1.8222 H   0  0  0  0  0  0  0  0  0  0  0  0
  1  2  1  0  0  0  0
  1 38  1  0  0  0  0
  1 39  1  0  0  0  0
  1 40  1  0  0  0  0
  2  3  1  0  0  0  0
  2 41  1  0  0  0  0
  2 42  1  0  0  0  0
  3  4  1  0  0  0  0
  4  5  2  0  0  0  0
  4  6  1  0  0  0  0
  6  7  1  0  0  0  0
  6 43  1  0  0  0  0
  7  8  1  0  0  0  0
  7 36  2  0  0  0  0
  8  9  2  0  0  0  0
  9 10  1  0  0  0  0
  9 34  1  0  0  0  0
 10 11  1  0  0  0  0
 10 33  2  0  0  0  0
 11 12  2  0  0  0  0
 11 44  1  0  0  0  0
 12 13  1  0  0  0  0
 12 45  1  0  0  0  0
 13 14  1  0  0  0  0
 13 32  1  0  0  0  0
 14 15  1  0  0  0  0
 14 30  2  0  0  0  0
 15 16  1  0  0  0  0
 15 29  2  0  0  0  0
 16 17  2  0  0  0  0
 16 46  1  0  0  0  0
 17 18  1  0  0  0  0
 17 47  1  0  0  0  0
 18 19  2  0  0  0  0
 18 48  1  0  0  0  0
 19 20  1  0  0  0  0
 19 29  1  0  0  0  0
 20 21  1  0  0  0  0
 20 49  1  0  0  0  0
 21 22  2  0  0  0  0
 21 23  1  0  0  0  0
 23 24  1  0  0  0  0
 23 50  1  0  0  0  0
 24 25  1  0  0  0  0
 24 51  1  0  0  0  0
 24 52  1  0  0  0  0
 25 26  1  0  0  0  0
 25 27  1  0  0  0  0
 25 28  1  0  0  0  0
 29 53  1  0  0  0  0
 30 31  1  0  0  0  0
 30 54  1  0  0  0  0
 31 32  2  0  0  0  0
 32 33  1  0  0  0  0
 33 55  1  0  0  0  0
 34 35  2  0  0  0  0
 35 36  1  0  0  0  0
 35 56  1  0  0  0  0
 36 37  1  0  0  0  0
M  END
$$$$
