CHEMBL182283
 OpenBabel04072215363D

 37 40  0  0  0  0  0  0  0  0999 V2000
    2.3723   -0.1249   -0.7032 C   0  0  0  0  0  0  0  0  0  0  0  0
    0.8960   -0.0757   -0.4457 C   0  0  0  0  0  0  0  0  0  0  0  0
    0.3341   -0.6911    0.6756 C   0  0  0  0  0  0  0  0  0  0  0  0
   -1.0503   -0.6615    0.8811 C   0  0  0  0  0  0  0  0  0  0  0  0
   -1.9021   -0.0250   -0.0336 C   0  0  0  0  0  0  0  0  0  0  0  0
   -3.3518   -0.0768    0.1370 C   0  0  0  0  0  0  0  0  0  0  0  0
   -4.1934   -0.6599    1.0681 C   0  0  0  0  0  0  0  0  0  0  0  0
   -5.5238   -0.4101    0.6355 C   0  0  0  0  0  0  0  0  0  0  0  0
   -6.8253   -0.7034    1.0555 C   0  0  0  0  0  0  0  0  0  0  0  0
   -7.0463   -1.4182    2.2394 N   0  0  0  0  0  0  0  0  0  0  0  0
   -8.2954   -1.7302    2.7380 C   0  0  0  0  0  0  0  0  0  0  0  0
   -9.3821   -1.4663    2.2448 O   0  0  0  0  0  0  0  0  0  0  0  0
   -8.2403   -2.4314    4.0590 C   0  0  0  0  0  0  0  0  0  0  0  0
   -9.4894   -3.0036    4.6944 C   0  0  0  0  0  0  0  0  0  0  0  0
   -8.8696   -1.7593    5.2585 C   0  0  0  0  0  0  0  0  0  0  0  0
   -7.8526   -0.2683    0.2981 N   0  0  0  0  0  0  0  0  0  0  0  0
   -7.5992    0.4343   -0.8185 C   0  0  0  0  0  0  0  0  0  0  0  0
   -6.4047    0.7796   -1.3095 N   0  0  0  0  0  0  0  0  0  0  0  0
   -5.4110    0.3254   -0.5375 C   0  0  0  0  0  0  0  0  0  0  0  0
   -4.0987    0.5331   -0.8295 O   0  0  0  0  0  0  0  0  0  0  0  0
   -1.3252    0.6182   -1.1369 C   0  0  0  0  0  0  0  0  0  0  0  0
    0.0571    0.5916   -1.3432 C   0  0  0  0  0  0  0  0  0  0  0  0
    2.8960   -0.7066    0.0621 H   0  0  0  0  0  0  0  0  0  0  0  0
    2.7880    0.8874   -0.7044 H   0  0  0  0  0  0  0  0  0  0  0  0
    2.5680   -0.5955   -1.6726 H   0  0  0  0  0  0  0  0  0  0  0  0
    0.9651   -1.2121    1.3927 H   0  0  0  0  0  0  0  0  0  0  0  0
   -1.4487   -1.1601    1.7602 H   0  0  0  0  0  0  0  0  0  0  0  0
   -3.8788   -1.2200    1.9359 H   0  0  0  0  0  0  0  0  0  0  0  0
   -6.2353   -1.6888    2.7734 H   0  0  0  0  0  0  0  0  0  0  0  0
   -7.3283   -2.9913    4.2442 H   0  0  0  0  0  0  0  0  0  0  0  0
   -9.4039   -3.9170    5.2714 H   0  0  0  0  0  0  0  0  0  0  0  0
  -10.4361   -2.9029    4.1726 H   0  0  0  0  0  0  0  0  0  0  0  0
   -8.3562   -1.8295    6.2088 H   0  0  0  0  0  0  0  0  0  0  0  0
   -9.4032   -0.8265    5.1045 H   0  0  0  0  0  0  0  0  0  0  0  0
   -8.4685    0.7543   -1.3834 H   0  0  0  0  0  0  0  0  0  0  0  0
   -1.9492    1.1354   -1.8640 H   0  0  0  0  0  0  0  0  0  0  0  0
    0.4716    1.0836   -2.2204 H   0  0  0  0  0  0  0  0  0  0  0  0
  1  2  1  0  0  0  0
  1 23  1  0  0  0  0
  1 24  1  0  0  0  0
  1 25  1  0  0  0  0
  2  3  1  0  0  0  0
  2 22  2  0  0  0  0
  3  4  2  0  0  0  0
  3 26  1  0  0  0  0
  4  5  1  0  0  0  0
  4 27  1  0  0  0  0
  5  6  1  0  0  0  0
  5 21  2  0  0  0  0
  6  7  2  0  0  0  0
  6 20  1  0  0  0  0
  7  8  1  0  0  0  0
  7 28  1  0  0  0  0
  8  9  1  0  0  0  0
  8 19  2  0  0  0  0
  9 10  1  0  0  0  0
  9 16  2  0  0  0  0
 10 11  1  0  0  0  0
 10 29  1  0  0  0  0
 11 12  2  0  0  0  0
 11 13  1  0  0  0  0
 13 14  1  0  0  0  0
 13 15  1  0  0  0  0
 13 30  1  0  0  0  0
 14 15  1  0  0  0  0
 14 31  1  0  0  0  0
 14 32  1  0  0  0  0
 15 33  1  0  0  0  0
 15 34  1  0  0  0  0
 16 17  1  0  0  0  0
 17 18  2  0  0  0  0
 17 35  1  0  0  0  0
 18 19  1  0  0  0  0
 19 20  1  0  0  0  0
 21 22  1  0  0  0  0
 21 36  1  0  0  0  0
 22 37  1  0  0  0  0
M  END
$$$$
