CHEMBL1080403
 OpenBabel04072215353D

 40 43  0  0  0  0  0  0  0  0999 V2000
    1.2141   -0.0898   -0.5265 C   0  0  0  0  0  0  0  0  0  0  0  0
    2.7084   -0.0024   -0.4195 C   0  0  0  0  0  0  0  0  0  0  0  0
    3.3675   -0.6989    0.5289 C   0  0  0  0  0  0  0  0  0  0  0  0
    4.7580   -0.7074    0.8526 C   0  0  0  0  0  0  0  0  0  0  0  0
    5.2866    0.0521    1.8751 C   0  0  0  0  0  0  0  0  0  0  0  0
    6.5475   -0.3574    2.1606 O   0  0  0  0  0  0  0  0  0  0  0  0
    6.8471   -1.3788    1.3154 C   0  0  0  0  0  0  0  0  0  0  0  0
    7.9895   -2.0667    1.4016 N   0  0  0  0  0  0  0  0  0  0  0  0
    8.0433   -3.0598    0.5238 C   0  0  0  0  0  0  0  0  0  0  0  0
    9.1310   -3.8995    0.5981 N   0  0  0  0  0  0  0  0  0  0  0  0
    7.1467   -3.3383   -0.4299 N   0  0  0  0  0  0  0  0  0  0  0  0
    6.0096   -2.6117   -0.5016 C   0  0  0  0  0  0  0  0  0  0  0  0
    5.1290   -2.9343   -1.5181 N   0  0  0  0  0  0  0  0  0  0  0  0
    5.7947   -1.6012    0.4380 C   0  0  0  0  0  0  0  0  0  0  0  0
    3.3682    0.8511   -1.4358 C   0  0  0  0  0  0  0  0  0  0  0  0
    3.9040    0.1974   -2.5627 C   0  0  0  0  0  0  0  0  0  0  0  0
    4.5700    0.9043   -3.5578 C   0  0  0  0  0  0  0  0  0  0  0  0
    4.8001    2.2627   -3.3924 C   0  0  0  0  0  0  0  0  0  0  0  0
    4.2369    2.9500   -2.3119 C   0  0  0  0  0  0  0  0  0  0  0  0
    4.4062    4.3336   -2.2247 C   0  0  0  0  0  0  0  0  0  0  0  0
    3.4951    5.0942   -1.5058 C   0  0  0  0  0  0  0  0  0  0  0  0
    2.6080    4.4621   -0.6467 C   0  0  0  0  0  0  0  0  0  0  0  0
    2.6664    3.0737   -0.4873 C   0  0  0  0  0  0  0  0  0  0  0  0
    3.4242    2.2711   -1.3727 C   0  0  0  0  0  0  0  0  0  0  0  0
    0.8211   -0.9272    0.0605 H   0  0  0  0  0  0  0  0  0  0  0  0
    0.8978   -0.2376   -1.5608 H   0  0  0  0  0  0  0  0  0  0  0  0
    0.7450    0.8209   -0.1405 H   0  0  0  0  0  0  0  0  0  0  0  0
    2.7713   -1.3116    1.1935 H   0  0  0  0  0  0  0  0  0  0  0  0
    4.8988    0.8292    2.5193 H   0  0  0  0  0  0  0  0  0  0  0  0
    9.9109   -3.4418    1.0451 H   0  0  0  0  0  0  0  0  0  0  0  0
    9.2954   -4.3657   -0.2778 H   0  0  0  0  0  0  0  0  0  0  0  0
    5.3175   -3.8495   -1.9068 H   0  0  0  0  0  0  0  0  0  0  0  0
    4.1659   -2.6713   -1.3709 H   0  0  0  0  0  0  0  0  0  0  0  0
    3.7645   -0.8706   -2.6978 H   0  0  0  0  0  0  0  0  0  0  0  0
    4.9048    0.3979   -4.4590 H   0  0  0  0  0  0  0  0  0  0  0  0
    5.3276    2.8066   -4.1734 H   0  0  0  0  0  0  0  0  0  0  0  0
    5.2126    4.8279   -2.7596 H   0  0  0  0  0  0  0  0  0  0  0  0
    3.4771    6.1733   -1.6292 H   0  0  0  0  0  0  0  0  0  0  0  0
    1.8862    5.0502   -0.0866 H   0  0  0  0  0  0  0  0  0  0  0  0
    2.0384    2.6226    0.2744 H   0  0  0  0  0  0  0  0  0  0  0  0
  1  2  1  0  0  0  0
  1 25  1  0  0  0  0
  1 26  1  0  0  0  0
  1 27  1  0  0  0  0
  2  3  2  0  0  0  0
  2 15  1  0  0  0  0
  3  4  1  0  0  0  0
  3 28  1  0  0  0  0
  4  5  2  0  0  0  0
  4 14  1  0  0  0  0
  5  6  1  0  0  0  0
  5 29  1  0  0  0  0
  6  7  1  0  0  0  0
  7  8  1  0  0  0  0
  7 14  2  0  0  0  0
  8  9  2  0  0  0  0
  9 10  1  0  0  0  0
  9 11  1  0  0  0  0
 10 30  1  0  0  0  0
 10 31  1  0  0  0  0
 11 12  2  0  0  0  0
 12 13  1  0  0  0  0
 12 14  1  0  0  0  0
 13 32  1  0  0  0  0
 13 33  1  0  0  0  0
 15 16  1  0  0  0  0
 15 24  2  0  0  0  0
 16 17  2  0  0  0  0
 16 34  1  0  0  0  0
 17 18  1  0  0  0  0
 17 35  1  0  0  0  0
 18 19  2  0  0  0  0
 18 36  1  0  0  0  0
 19 20  1  0  0  0  0
 19 24  1  0  0  0  0
 20 21  2  0  0  0  0
 20 37  1  0  0  0  0
 21 22  1  0  0  0  0
 21 38  1  0  0  0  0
 22 23  2  0  0  0  0
 22 39  1  0  0  0  0
 23 24  1  0  0  0  0
 23 40  1  0  0  0  0
M  END
$$$$
