CHEMBL3690547
 OpenBabel04072215373D

 56 60  0  0  0  0  0  0  0  0999 V2000
    2.9278   -4.4928    2.2539 N   0  0  0  0  0  0  0  0  0  0  0  0
    3.2753   -3.0701    2.1711 C   0  0  0  0  0  0  0  0  0  0  0  0
    4.3102   -2.8249    1.0634 C   0  0  0  0  0  0  0  0  0  0  0  0
    5.1815   -2.2751    2.0580 N   0  0  0  0  0  0  0  0  0  0  0  0
    5.9519   -1.1041    2.0221 C   0  0  0  0  0  0  0  0  0  0  0  0
    6.3945   -0.5907    0.8166 C   0  0  0  0  0  0  0  0  0  0  0  0
    7.1556    0.5527    0.8782 C   0  0  0  0  0  0  0  0  0  0  0  0
    7.4903    1.1605    2.0273 N   0  0  0  0  0  0  0  0  0  0  0  0
    7.0380    0.5838    3.1562 C   0  0  0  0  0  0  0  0  0  0  0  0
    7.5024    1.1597    4.4511 C   0  0  0  0  0  0  0  0  0  0  0  0
    8.4962    2.2413    4.5033 C   0  0  0  0  0  0  0  0  0  0  0  0
    8.9678    2.6768    5.6823 C   0  0  0  0  0  0  0  0  0  0  0  0
    8.4734    2.1406    6.8742 N   0  0  0  0  0  0  0  0  0  0  0  0
    8.7367    2.4580    8.2112 C   0  0  0  0  0  0  0  0  0  0  0  0
    9.5430    3.5843    8.7172 C   0  0  0  0  0  0  0  0  0  0  0  0
    9.5653    4.7980    8.0199 C   0  0  0  0  0  0  0  0  0  0  0  0
   10.3155    5.8744    8.4732 C   0  0  0  0  0  0  0  0  0  0  0  0
   10.9929    5.7842    9.6835 C   0  0  0  0  0  0  0  0  0  0  0  0
   10.9355    4.6305   10.4618 C   0  0  0  0  0  0  0  0  0  0  0  0
   11.5397    4.5521   11.7458 N   0  0  0  0  0  0  0  0  0  0  0  0
   12.1448    5.5955   12.4158 C   0  0  0  0  0  0  0  0  0  0  0  0
   12.2664    6.7534   12.0342 O   0  0  0  0  0  0  0  0  0  0  0  0
   12.6828    5.2107   13.6243 N   0  0  0  0  0  0  0  0  0  0  0  0
   13.3526    6.2471   14.4350 C   0  0  0  0  0  0  0  0  0  0  0  0
   12.4402    7.2027   15.2216 C   0  0  0  0  0  0  0  0  0  0  0  0
   11.1452    6.8133   15.1935 F   0  0  0  0  0  0  0  0  0  0  0  0
   12.8135    7.2188   16.5271 F   0  0  0  0  0  0  0  0  0  0  0  0
   12.5104    8.4731   14.7736 F   0  0  0  0  0  0  0  0  0  0  0  0
   10.2339    3.5150    9.9506 C   0  0  0  0  0  0  0  0  0  0  0  0
    8.0009    1.5178    8.9179 C   0  0  0  0  0  0  0  0  0  0  0  0
    7.2665    0.7034    8.0988 N   0  0  0  0  0  0  0  0  0  0  0  0
    7.5370    1.1078    6.8776 C   0  0  0  0  0  0  0  0  0  0  0  0
    7.0531    0.6373    5.6195 C   0  0  0  0  0  0  0  0  0  0  0  0
    6.2701   -0.5179    3.1896 N   0  0  0  0  0  0  0  0  0  0  0  0
    4.3902   -2.7260    3.1667 C   0  0  0  0  0  0  0  0  0  0  0  0
    2.2897   -4.8008    1.5217 H   0  0  0  0  0  0  0  0  0  0  0  0
    2.4857   -4.7521    3.1356 H   0  0  0  0  0  0  0  0  0  0  0  0
    2.4261   -2.3797    2.1740 H   0  0  0  0  0  0  0  0  0  0  0  0
    3.9916   -2.1124    0.2978 H   0  0  0  0  0  0  0  0  0  0  0  0
    4.7581   -3.7059    0.5912 H   0  0  0  0  0  0  0  0  0  0  0  0
    6.1727   -1.0619   -0.1283 H   0  0  0  0  0  0  0  0  0  0  0  0
    7.5411    1.0176   -0.0248 H   0  0  0  0  0  0  0  0  0  0  0  0
    8.8526    2.6631    3.5675 H   0  0  0  0  0  0  0  0  0  0  0  0
    9.7322    3.4384    5.7329 H   0  0  0  0  0  0  0  0  0  0  0  0
    8.9786    4.9452    7.1181 H   0  0  0  0  0  0  0  0  0  0  0  0
   10.3511    6.7979    7.9031 H   0  0  0  0  0  0  0  0  0  0  0  0
   11.5557    6.6604    9.9884 H   0  0  0  0  0  0  0  0  0  0  0  0
   11.4851    3.6626   12.2207 H   0  0  0  0  0  0  0  0  0  0  0  0
   12.1995    4.4797   14.1228 H   0  0  0  0  0  0  0  0  0  0  0  0
   13.9942    6.8414   13.7718 H   0  0  0  0  0  0  0  0  0  0  0  0
   14.0128    5.7153   15.1253 H   0  0  0  0  0  0  0  0  0  0  0  0
   10.2024    2.5905   10.5242 H   0  0  0  0  0  0  0  0  0  0  0  0
    7.9295    1.4153    9.9931 H   0  0  0  0  0  0  0  0  0  0  0  0
    6.3301   -0.1725    5.6470 H   0  0  0  0  0  0  0  0  0  0  0  0
    4.1276   -1.9410    3.8820 H   0  0  0  0  0  0  0  0  0  0  0  0
    4.8781   -3.5570    3.6871 H   0  0  0  0  0  0  0  0  0  0  0  0
  1  2  1  0  0  0  0
  1 36  1  0  0  0  0
  1 37  1  0  0  0  0
  2  3  1  0  0  0  0
  2 35  1  0  0  0  0
  2 38  1  0  0  0  0
  3  4  1  0  0  0  0
  3 39  1  0  0  0  0
  3 40  1  0  0  0  0
  4  5  1  0  0  0  0
  4 35  1  0  0  0  0
  5  6  1  0  0  0  0
  5 34  2  0  0  0  0
  6  7  2  0  0  0  0
  6 41  1  0  0  0  0
  7  8  1  0  0  0  0
  7 42  1  0  0  0  0
  8  9  2  0  0  0  0
  9 10  1  0  0  0  0
  9 34  1  0  0  0  0
 10 11  1  0  0  0  0
 10 33  2  0  0  0  0
 11 12  2  0  0  0  0
 11 43  1  0  0  0  0
 12 13  1  0  0  0  0
 12 44  1  0  0  0  0
 13 14  1  0  0  0  0
 13 32  1  0  0  0  0
 14 15  1  0  0  0  0
 14 30  2  0  0  0  0
 15 16  1  0  0  0  0
 15 29  2  0  0  0  0
 16 17  2  0  0  0  0
 16 45  1  0  0  0  0
 17 18  1  0  0  0  0
 17 46  1  0  0  0  0
 18 19  2  0  0  0  0
 18 47  1  0  0  0  0
 19 20  1  0  0  0  0
 19 29  1  0  0  0  0
 20 21  1  0  0  0  0
 20 48  1  0  0  0  0
 21 22  2  0  0  0  0
 21 23  1  0  0  0  0
 23 24  1  0  0  0  0
 23 49  1  0  0  0  0
 24 25  1  0  0  0  0
 24 50  1  0  0  0  0
 24 51  1  0  0  0  0
 25 26  1  0  0  0  0
 25 27  1  0  0  0  0
 25 28  1  0  0  0  0
 29 52  1  0  0  0  0
 30 31  1  0  0  0  0
 30 53  1  0  0  0  0
 31 32  2  0  0  0  0
 32 33  1  0  0  0  0
 33 54  1  0  0  0  0
 35 55  1  0  0  0  0
 35 56  1  0  0  0  0
M  END
$$$$
