CHEMBL194747
 OpenBabel04072215363D

 45 48  0  0  0  0  0  0  0  0999 V2000
   -4.8640   -4.6662    2.7984 C   0  0  0  0  0  0  0  0  0  0  0  0
   -4.4485   -3.4657    2.0021 C   0  0  0  0  0  0  0  0  0  0  0  0
   -5.3929   -2.7211    1.2912 C   0  0  0  0  0  0  0  0  0  0  0  0
   -5.0086   -1.5709    0.6002 C   0  0  0  0  0  0  0  0  0  0  0  0
   -3.6813   -1.1255    0.6263 C   0  0  0  0  0  0  0  0  0  0  0  0
   -3.2596    0.0080   -0.1205 N   0  0  0  0  0  0  0  0  0  0  0  0
   -4.0253    1.2084   -0.2259 C   0  0  0  0  0  0  0  0  0  0  0  0
   -4.9487    1.4717    0.7216 N   0  0  0  0  0  0  0  0  0  0  0  0
   -5.6848    2.6244    0.7010 N   0  0  0  0  0  0  0  0  0  0  0  0
   -5.4644    3.5746   -0.2316 C   0  0  0  0  0  0  0  0  0  0  0  0
   -6.4021    4.7251   -0.1215 C   0  0  0  0  0  0  0  0  0  0  0  0
   -6.8520    5.1562    1.1451 C   0  0  0  0  0  0  0  0  0  0  0  0
   -7.7731    6.2081    1.2800 C   0  0  0  0  0  0  0  0  0  0  0  0
   -8.2506    6.8717    0.1518 C   0  0  0  0  0  0  0  0  0  0  0  0
   -9.2433    7.9644    0.3303 C   0  0  0  0  0  0  0  0  0  0  0  0
   -9.2901    8.9346   -0.6315 N   0  0  0  0  0  0  0  0  0  0  0  0
   -9.9691    8.0165    1.3129 O   0  0  0  0  0  0  0  0  0  0  0  0
   -7.8364    6.4579   -1.1142 C   0  0  0  0  0  0  0  0  0  0  0  0
   -6.9497    5.3768   -1.2421 C   0  0  0  0  0  0  0  0  0  0  0  0
   -4.4555    3.3981   -1.2088 C   0  0  0  0  0  0  0  0  0  0  0  0
   -4.0951    4.3831   -2.1674 C   0  0  0  0  0  0  0  0  0  0  0  0
   -3.1820    4.1339   -3.1897 C   0  0  0  0  0  0  0  0  0  0  0  0
   -2.5513    2.9061   -3.2553 C   0  0  0  0  0  0  0  0  0  0  0  0
   -2.8055    1.9490   -2.2736 C   0  0  0  0  0  0  0  0  0  0  0  0
   -3.7469    2.1655   -1.2314 C   0  0  0  0  0  0  0  0  0  0  0  0
   -2.7247   -1.9149    1.2731 C   0  0  0  0  0  0  0  0  0  0  0  0
   -3.1073   -3.0658    1.9707 C   0  0  0  0  0  0  0  0  0  0  0  0
   -5.9478   -4.8191    2.7548 H   0  0  0  0  0  0  0  0  0  0  0  0
   -4.5919   -4.5295    3.8501 H   0  0  0  0  0  0  0  0  0  0  0  0
   -4.3791   -5.5675    2.4120 H   0  0  0  0  0  0  0  0  0  0  0  0
   -6.4388   -3.0177    1.2782 H   0  0  0  0  0  0  0  0  0  0  0  0
   -5.7670   -1.0127    0.0561 H   0  0  0  0  0  0  0  0  0  0  0  0
   -3.0369   -0.3310   -1.0499 H   0  0  0  0  0  0  0  0  0  0  0  0
   -6.5065    4.6565    2.0474 H   0  0  0  0  0  0  0  0  0  0  0  0
   -8.1210    6.4898    2.2706 H   0  0  0  0  0  0  0  0  0  0  0  0
   -8.5537    9.0664   -1.3077 H   0  0  0  0  0  0  0  0  0  0  0  0
   -9.9024    9.7173   -0.4405 H   0  0  0  0  0  0  0  0  0  0  0  0
   -8.2256    6.9239   -2.0156 H   0  0  0  0  0  0  0  0  0  0  0  0
   -6.7190    5.0347   -2.2494 H   0  0  0  0  0  0  0  0  0  0  0  0
   -4.5218    5.3818   -2.1274 H   0  0  0  0  0  0  0  0  0  0  0  0
   -2.9673    4.9025   -3.9277 H   0  0  0  0  0  0  0  0  0  0  0  0
   -1.8460    2.6958   -4.0552 H   0  0  0  0  0  0  0  0  0  0  0  0
   -2.2524    1.0162   -2.3476 H   0  0  0  0  0  0  0  0  0  0  0  0
   -1.6806   -1.6151    1.2699 H   0  0  0  0  0  0  0  0  0  0  0  0
   -2.3528   -3.6411    2.5028 H   0  0  0  0  0  0  0  0  0  0  0  0
  1  2  1  0  0  0  0
  1 28  1  0  0  0  0
  1 29  1  0  0  0  0
  1 30  1  0  0  0  0
  2  3  1  0  0  0  0
  2 27  2  0  0  0  0
  3  4  2  0  0  0  0
  3 31  1  0  0  0  0
  4  5  1  0  0  0  0
  4 32  1  0  0  0  0
  5  6  1  0  0  0  0
  5 26  2  0  0  0  0
  6  7  1  0  0  0  0
  6 33  1  0  0  0  0
  7  8  1  0  0  0  0
  7 25  2  0  0  0  0
  8  9  2  0  0  0  0
  9 10  1  0  0  0  0
 10 11  1  0  0  0  0
 10 20  2  0  0  0  0
 11 12  1  0  0  0  0
 11 19  2  0  0  0  0
 12 13  2  0  0  0  0
 12 34  1  0  0  0  0
 13 14  1  0  0  0  0
 13 35  1  0  0  0  0
 14 15  1  0  0  0  0
 14 18  2  0  0  0  0
 15 16  1  0  0  0  0
 15 17  2  0  0  0  0
 16 36  1  0  0  0  0
 16 37  1  0  0  0  0
 18 19  1  0  0  0  0
 18 38  1  0  0  0  0
 19 39  1  0  0  0  0
 20 21  1  0  0  0  0
 20 25  1  0  0  0  0
 21 22  2  0  0  0  0
 21 40  1  0  0  0  0
 22 23  1  0  0  0  0
 22 41  1  0  0  0  0
 23 24  2  0  0  0  0
 23 42  1  0  0  0  0
 24 25  1  0  0  0  0
 24 43  1  0  0  0  0
 26 27  1  0  0  0  0
 26 44  1  0  0  0  0
 27 45  1  0  0  0  0
M  END
$$$$
