CHEMBL3220401
 OpenBabel04072215363D

 38 40  0  0  0  0  0  0  0  0999 V2000
    3.3911   -0.9504    0.5437 C   0  0  0  0  0  0  0  0  0  0  0  0
    2.5143    0.1440    0.2534 O   0  0  0  0  0  0  0  0  0  0  0  0
    3.1067    1.2106   -0.3676 C   0  0  0  0  0  0  0  0  0  0  0  0
    4.1101    1.0141   -1.3330 C   0  0  0  0  0  0  0  0  0  0  0  0
    4.8459    2.0590   -1.8687 C   0  0  0  0  0  0  0  0  0  0  0  0
    5.8510    1.7656   -2.6974 N   0  0  0  0  0  0  0  0  0  0  0  0
    6.5870    2.7932   -3.1278 C   0  0  0  0  0  0  0  0  0  0  0  0
    6.3943    4.0762   -2.8227 N   0  0  0  0  0  0  0  0  0  0  0  0
    5.3553    4.3688   -2.0148 C   0  0  0  0  0  0  0  0  0  0  0  0
    5.1895    5.7206   -1.5948 N   0  0  0  0  0  0  0  0  0  0  0  0
    5.6271    6.8345   -2.3573 C   0  0  0  0  0  0  0  0  0  0  0  0
    5.9779    8.0143   -1.6959 C   0  0  0  0  0  0  0  0  0  0  0  0
    6.2533    9.1698   -2.4256 C   0  0  0  0  0  0  0  0  0  0  0  0
    6.1682    9.1534   -3.8198 C   0  0  0  0  0  0  0  0  0  0  0  0
    5.8407    7.9824   -4.5041 C   0  0  0  0  0  0  0  0  0  0  0  0
    5.6200    7.9976   -5.8853 N   0  0  0  0  0  0  0  0  0  0  0  0
    5.5099    6.8495   -3.7555 C   0  0  0  0  0  0  0  0  0  0  0  0
    4.5274    3.3630   -1.4849 C   0  0  0  0  0  0  0  0  0  0  0  0
    3.4253    3.5733   -0.6239 C   0  0  0  0  0  0  0  0  0  0  0  0
    2.7133    2.5128   -0.0578 C   0  0  0  0  0  0  0  0  0  0  0  0
    1.7216    2.9654    0.7630 O   0  0  0  0  0  0  0  0  0  0  0  0
    0.9756    2.0477    1.5401 C   0  0  0  0  0  0  0  0  0  0  0  0
    3.2295   -1.2512    1.5825 H   0  0  0  0  0  0  0  0  0  0  0  0
    4.4589   -0.7174    0.4473 H   0  0  0  0  0  0  0  0  0  0  0  0
    3.1389   -1.7917   -0.1086 H   0  0  0  0  0  0  0  0  0  0  0  0
    4.3646    0.0095   -1.6639 H   0  0  0  0  0  0  0  0  0  0  0  0
    7.4247    2.5642   -3.7771 H   0  0  0  0  0  0  0  0  0  0  0  0
    4.2065    5.8932   -1.4047 H   0  0  0  0  0  0  0  0  0  0  0  0
    6.0344    8.0345   -0.6097 H   0  0  0  0  0  0  0  0  0  0  0  0
    6.5213   10.0885   -1.9075 H   0  0  0  0  0  0  0  0  0  0  0  0
    6.3519   10.0682   -4.3710 H   0  0  0  0  0  0  0  0  0  0  0  0
    6.1739    8.6836   -6.3733 H   0  0  0  0  0  0  0  0  0  0  0  0
    5.7063    7.0744   -6.3097 H   0  0  0  0  0  0  0  0  0  0  0  0
    5.1547    5.9612   -4.2716 H   0  0  0  0  0  0  0  0  0  0  0  0
    3.1146    4.5780   -0.3496 H   0  0  0  0  0  0  0  0  0  0  0  0
    0.3247    2.6394    2.1924 H   0  0  0  0  0  0  0  0  0  0  0  0
    1.6233    1.4511    2.1888 H   0  0  0  0  0  0  0  0  0  0  0  0
    0.3328    1.4257    0.9107 H   0  0  0  0  0  0  0  0  0  0  0  0
  1  2  1  0  0  0  0
  1 23  1  0  0  0  0
  1 24  1  0  0  0  0
  1 25  1  0  0  0  0
  2  3  1  0  0  0  0
  3  4  1  0  0  0  0
  3 20  2  0  0  0  0
  4  5  2  0  0  0  0
  4 26  1  0  0  0  0
  5  6  1  0  0  0  0
  5 18  1  0  0  0  0
  6  7  2  0  0  0  0
  7  8  1  0  0  0  0
  7 27  1  0  0  0  0
  8  9  2  0  0  0  0
  9 10  1  0  0  0  0
  9 18  1  0  0  0  0
 10 11  1  0  0  0  0
 10 28  1  0  0  0  0
 11 12  1  0  0  0  0
 11 17  2  0  0  0  0
 12 13  2  0  0  0  0
 12 29  1  0  0  0  0
 13 14  1  0  0  0  0
 13 30  1  0  0  0  0
 14 15  2  0  0  0  0
 14 31  1  0  0  0  0
 15 16  1  0  0  0  0
 15 17  1  0  0  0  0
 16 32  1  0  0  0  0
 16 33  1  0  0  0  0
 17 34  1  0  0  0  0
 18 19  2  0  0  0  0
 19 20  1  0  0  0  0
 19 35  1  0  0  0  0
 20 21  1  0  0  0  0
 21 22  1  0  0  0  0
 22 36  1  0  0  0  0
 22 37  1  0  0  0  0
 22 38  1  0  0  0  0
M  END
$$$$
