CHEMBL425615
 OpenBabel04072215383D

 69 74  0  0  0  0  0  0  0  0999 V2000
   -0.9522   -8.7894    5.9899 C   0  0  0  0  0  0  0  0  0  0  0  0
   -1.3270   -7.4342    5.4645 C   0  0  0  0  0  0  0  0  0  0  0  0
   -2.6988   -7.1007    5.4376 C   0  0  0  0  0  0  0  0  0  0  0  0
   -3.1381   -5.8633    4.9797 C   0  0  0  0  0  0  0  0  0  0  0  0
   -2.2107   -4.9210    4.5612 C   0  0  0  0  0  0  0  0  0  0  0  0
   -0.8501   -5.2322    4.5919 C   0  0  0  0  0  0  0  0  0  0  0  0
   -0.3886   -6.4780    5.0188 C   0  0  0  0  0  0  0  0  0  0  0  0
    1.0034   -6.7890    5.0345 N   0  0  0  0  0  0  0  0  0  0  0  0
    2.0078   -6.0440    4.4383 C   0  0  0  0  0  0  0  0  0  0  0  0
    1.8589   -5.0445    3.7462 O   0  0  0  0  0  0  0  0  0  0  0  0
    3.2648   -6.5347    4.7269 N   0  0  0  0  0  0  0  0  0  0  0  0
    4.4289   -5.9140    4.1276 C   0  0  0  0  0  0  0  0  0  0  0  0
    4.6215   -6.5108    2.7717 C   0  0  0  0  0  0  0  0  0  0  0  0
    4.1893   -5.9544    1.5983 C   0  0  0  0  0  0  0  0  0  0  0  0
    4.5113   -6.7897    0.4990 C   0  0  0  0  0  0  0  0  0  0  0  0
    4.9529   -8.0553    0.8706 C   0  0  0  0  0  0  0  0  0  0  0  0
    5.0562   -9.2302   -0.0994 C   0  0  0  0  0  0  0  0  0  0  0  0
    5.9432  -10.2501   -0.0537 N   0  0  0  0  0  0  0  0  0  0  0  0
    6.0152  -10.7039   -1.3431 N   0  0  0  0  0  0  0  0  0  0  0  0
    5.0581  -10.1475   -2.1695 C   0  0  0  0  0  0  0  0  0  0  0  0
    4.3582   -9.2996   -1.3292 C   0  0  0  0  0  0  0  0  0  0  0  0
    3.6509   -8.2535   -2.1087 C   0  0  0  0  0  0  0  0  0  0  0  0
    4.8767   -8.1096   -3.0344 C   0  0  0  0  0  0  0  0  0  0  0  0
    6.0132   -7.2990   -2.8132 C   0  0  0  0  0  0  0  0  0  0  0  0
    7.2116   -7.6135   -3.4919 C   0  0  0  0  0  0  0  0  0  0  0  0
    8.5873   -7.2621   -2.9363 C   0  0  0  0  0  0  0  0  0  0  0  0
    9.5076   -6.7179   -3.9393 N   0  0  0  0  0  0  0  0  0  0  0  0
    9.1406   -5.3365   -4.2732 C   0  0  0  0  0  0  0  0  0  0  0  0
   10.1115   -4.7247   -5.3050 C   0  0  0  0  0  0  0  0  0  0  0  0
   11.5306   -4.7420   -4.9029 N   0  0  0  0  0  0  0  0  0  0  0  0
   11.8059   -3.7621   -3.8549 C   0  0  0  0  0  0  0  0  0  0  0  0
   11.8944   -6.1101   -4.4787 C   0  0  0  0  0  0  0  0  0  0  0  0
   10.9109   -6.7737   -3.4768 C   0  0  0  0  0  0  0  0  0  0  0  0
    7.1438   -8.5492   -4.5191 C   0  0  0  0  0  0  0  0  0  0  0  0
    6.1607   -9.5268   -4.4586 C   0  0  0  0  0  0  0  0  0  0  0  0
    5.1934   -9.4063   -3.4964 C   0  0  0  0  0  0  0  0  0  0  0  0
    5.4062   -8.0219    2.5186 S   0  0  0  0  0  0  0  0  0  0  0  0
   -1.8339   -9.4407    6.0662 H   0  0  0  0  0  0  0  0  0  0  0  0
   -0.5179   -8.7017    6.9901 H   0  0  0  0  0  0  0  0  0  0  0  0
   -0.2502   -9.2921    5.3206 H   0  0  0  0  0  0  0  0  0  0  0  0
   -3.4448   -7.8225    5.7755 H   0  0  0  0  0  0  0  0  0  0  0  0
   -4.2000   -5.6277    4.9563 H   0  0  0  0  0  0  0  0  0  0  0  0
   -2.5333   -3.9458    4.2162 H   0  0  0  0  0  0  0  0  0  0  0  0
   -0.1707   -4.4407    4.2821 H   0  0  0  0  0  0  0  0  0  0  0  0
    1.2808   -7.6626    5.4511 H   0  0  0  0  0  0  0  0  0  0  0  0
    3.3468   -7.5204    4.9141 H   0  0  0  0  0  0  0  0  0  0  0  0
    5.2937   -6.0791    4.7686 H   0  0  0  0  0  0  0  0  0  0  0  0
    4.2699   -4.8283    4.0442 H   0  0  0  0  0  0  0  0  0  0  0  0
    3.6734   -5.0064    1.5101 H   0  0  0  0  0  0  0  0  0  0  0  0
    4.3461   -6.4389   -0.4922 H   0  0  0  0  0  0  0  0  0  0  0  0
    6.7701  -11.3213   -1.5895 H   0  0  0  0  0  0  0  0  0  0  0  0
    3.2757   -7.3670   -1.6395 H   0  0  0  0  0  0  0  0  0  0  0  0
    2.8234   -8.7059   -2.6633 H   0  0  0  0  0  0  0  0  0  0  0  0
    6.0476   -6.6300   -1.9546 H   0  0  0  0  0  0  0  0  0  0  0  0
    8.9918   -8.2189   -2.5709 H   0  0  0  0  0  0  0  0  0  0  0  0
    8.5201   -6.6176   -2.0477 H   0  0  0  0  0  0  0  0  0  0  0  0
    9.1204   -4.7144   -3.3684 H   0  0  0  0  0  0  0  0  0  0  0  0
    8.1340   -5.3120   -4.7027 H   0  0  0  0  0  0  0  0  0  0  0  0
    9.7951   -3.7013   -5.5387 H   0  0  0  0  0  0  0  0  0  0  0  0
   10.0169   -5.2862   -6.2446 H   0  0  0  0  0  0  0  0  0  0  0  0
   11.5111   -2.7592   -4.1833 H   0  0  0  0  0  0  0  0  0  0  0  0
   12.8818   -3.7181   -3.6522 H   0  0  0  0  0  0  0  0  0  0  0  0
   11.2917   -3.9750   -2.9126 H   0  0  0  0  0  0  0  0  0  0  0  0
   12.9095   -6.1185   -4.0612 H   0  0  0  0  0  0  0  0  0  0  0  0
   11.9455   -6.7362   -5.3799 H   0  0  0  0  0  0  0  0  0  0  0  0
   11.0162   -6.2928   -2.4969 H   0  0  0  0  0  0  0  0  0  0  0  0
   11.2173   -7.8201   -3.3555 H   0  0  0  0  0  0  0  0  0  0  0  0
    7.9278   -8.5908   -5.2695 H   0  0  0  0  0  0  0  0  0  0  0  0
    6.0773  -10.2797   -5.2370 H   0  0  0  0  0  0  0  0  0  0  0  0
  1  2  1  0  0  0  0
  1 38  1  0  0  0  0
  1 39  1  0  0  0  0
  1 40  1  0  0  0  0
  2  3  1  0  0  0  0
  2  7  2  0  0  0  0
  3  4  2  0  0  0  0
  3 41  1  0  0  0  0
  4  5  1  0  0  0  0
  4 42  1  0  0  0  0
  5  6  2  0  0  0  0
  5 43  1  0  0  0  0
  6  7  1  0  0  0  0
  6 44  1  0  0  0  0
  7  8  1  0  0  0  0
  8  9  1  0  0  0  0
  8 45  1  0  0  0  0
  9 10  2  0  0  0  0
  9 11  1  0  0  0  0
 11 12  1  0  0  0  0
 11 46  1  0  0  0  0
 12 13  1  0  0  0  0
 12 47  1  0  0  0  0
 12 48  1  0  0  0  0
 13 14  2  0  0  0  0
 13 37  1  0  0  0  0
 14 15  1  0  0  0  0
 14 49  1  0  0  0  0
 15 16  2  0  0  0  0
 15 50  1  0  0  0  0
 16 17  1  0  0  0  0
 16 37  1  0  0  0  0
 17 18  2  0  0  0  0
 17 21  1  0  0  0  0
 18 19  1  0  0  0  0
 19 20  1  0  0  0  0
 19 51  1  0  0  0  0
 20 21  2  0  0  0  0
 20 36  1  0  0  0  0
 21 22  1  0  0  0  0
 22 23  1  0  0  0  0
 22 52  1  0  0  0  0
 22 53  1  0  0  0  0
 23 24  1  0  0  0  0
 23 36  2  0  0  0  0
 24 25  2  0  0  0  0
 24 54  1  0  0  0  0
 25 26  1  0  0  0  0
 25 34  1  0  0  0  0
 26 27  1  0  0  0  0
 26 55  1  0  0  0  0
 26 56  1  0  0  0  0
 27 28  1  0  0  0  0
 27 33  1  0  0  0  0
 28 29  1  0  0  0  0
 28 57  1  0  0  0  0
 28 58  1  0  0  0  0
 29 30  1  0  0  0  0
 29 59  1  0  0  0  0
 29 60  1  0  0  0  0
 30 31  1  0  0  0  0
 30 32  1  0  0  0  0
 31 61  1  0  0  0  0
 31 62  1  0  0  0  0
 31 63  1  0  0  0  0
 32 33  1  0  0  0  0
 32 64  1  0  0  0  0
 32 65  1  0  0  0  0
 33 66  1  0  0  0  0
 33 67  1  0  0  0  0
 34 35  2  0  0  0  0
 34 68  1  0  0  0  0
 35 36  1  0  0  0  0
 35 69  1  0  0  0  0
M  END
$$$$
