CHEMBL427321
 OpenBabel04072215383D

 49 52  0  0  0  0  0  0  0  0999 V2000
    2.2749    0.7396    0.1605 C   0  0  0  0  0  0  0  0  0  0  0  0
    1.5419   -0.1943   -0.7918 C   0  0  0  0  0  0  0  0  0  0  0  0
    1.9685    0.0212   -2.2260 C   0  0  0  0  0  0  0  0  0  0  0  0
    1.3008    0.9575   -3.0080 C   0  0  0  0  0  0  0  0  0  0  0  0
    1.6948    1.1863   -4.3273 C   0  0  0  0  0  0  0  0  0  0  0  0
    2.7664    0.4799   -4.8586 C   0  0  0  0  0  0  0  0  0  0  0  0
    3.4817   -0.4406   -4.0845 C   0  0  0  0  0  0  0  0  0  0  0  0
    4.6226   -1.1187   -4.5699 N   0  0  0  0  0  0  0  0  0  0  0  0
    5.4358   -0.6199   -5.5718 C   0  0  0  0  0  0  0  0  0  0  0  0
    5.3272    0.5050   -6.0518 O   0  0  0  0  0  0  0  0  0  0  0  0
    6.4202   -1.5229   -5.9634 N   0  0  0  0  0  0  0  0  0  0  0  0
    7.3546   -1.1218   -6.9489 C   0  0  0  0  0  0  0  0  0  0  0  0
    8.0331    0.0963   -6.8337 C   0  0  0  0  0  0  0  0  0  0  0  0
    8.7908    0.5974   -7.8969 C   0  0  0  0  0  0  0  0  0  0  0  0
    8.8350   -0.0874   -9.1219 C   0  0  0  0  0  0  0  0  0  0  0  0
    9.2956    0.5664  -10.3671 C   0  0  0  0  0  0  0  0  0  0  0  0
   10.0225   -0.1483  -11.3536 C   0  0  0  0  0  0  0  0  0  0  0  0
   10.1894    0.3414  -12.6661 C   0  0  0  0  0  0  0  0  0  0  0  0
    9.5750    1.5269  -13.0599 C   0  0  0  0  0  0  0  0  0  0  0  0
    8.8835    2.2141  -12.0866 C   0  0  0  0  0  0  0  0  0  0  0  0
    8.8109    1.8111  -10.7524 C   0  0  0  0  0  0  0  0  0  0  0  0
    8.0254    2.8361  -10.0054 C   0  0  0  0  0  0  0  0  0  0  0  0
    7.3044    3.5009  -11.0571 N   0  0  0  0  0  0  0  0  0  0  0  0
    7.8344    3.2126  -12.2750 C   0  0  0  0  0  0  0  0  0  0  0  0
    7.3914    3.5615  -13.3579 O   0  0  0  0  0  0  0  0  0  0  0  0
    8.2329   -1.3611   -9.1801 C   0  0  0  0  0  0  0  0  0  0  0  0
    7.5219   -1.8919   -8.0904 C   0  0  0  0  0  0  0  0  0  0  0  0
    3.0529   -0.6977   -2.7690 C   0  0  0  0  0  0  0  0  0  0  0  0
    1.9374    0.5713    1.1880 H   0  0  0  0  0  0  0  0  0  0  0  0
    2.0868    1.7902   -0.0884 H   0  0  0  0  0  0  0  0  0  0  0  0
    3.3566    0.5750    0.1260 H   0  0  0  0  0  0  0  0  0  0  0  0
    0.4623   -0.0332   -0.7041 H   0  0  0  0  0  0  0  0  0  0  0  0
    1.7191   -1.2382   -0.5014 H   0  0  0  0  0  0  0  0  0  0  0  0
    0.4801    1.5412   -2.5967 H   0  0  0  0  0  0  0  0  0  0  0  0
    1.1706    1.9157   -4.9360 H   0  0  0  0  0  0  0  0  0  0  0  0
    3.0318    0.6697   -5.8927 H   0  0  0  0  0  0  0  0  0  0  0  0
    5.0607   -1.7877   -3.9582 H   0  0  0  0  0  0  0  0  0  0  0  0
    6.0685   -2.4643   -6.0338 H   0  0  0  0  0  0  0  0  0  0  0  0
    7.9288    0.7006   -5.9360 H   0  0  0  0  0  0  0  0  0  0  0  0
    9.2558    1.5688   -7.7871 H   0  0  0  0  0  0  0  0  0  0  0  0
   10.4116   -1.1417  -11.1209 H   0  0  0  0  0  0  0  0  0  0  0  0
   10.7204   -0.2625  -13.3991 H   0  0  0  0  0  0  0  0  0  0  0  0
    9.5754    1.8558  -14.0895 H   0  0  0  0  0  0  0  0  0  0  0  0
    8.7072    3.5840   -9.5746 H   0  0  0  0  0  0  0  0  0  0  0  0
    7.3387    2.4648   -9.2409 H   0  0  0  0  0  0  0  0  0  0  0  0
    6.2698    3.5172  -11.0298 H   0  0  0  0  0  0  0  0  0  0  0  0
    8.2226   -1.9175  -10.1111 H   0  0  0  0  0  0  0  0  0  0  0  0
    7.0128   -2.8416   -8.2104 H   0  0  0  0  0  0  0  0  0  0  0  0
    3.5809   -1.4113   -2.1528 H   0  0  0  0  0  0  0  0  0  0  0  0
  1  2  1  0  0  0  0
  1 29  1  0  0  0  0
  1 30  1  0  0  0  0
  1 31  1  0  0  0  0
  2  3  1  0  0  0  0
  2 32  1  0  0  0  0
  2 33  1  0  0  0  0
  3  4  1  0  0  0  0
  3 28  2  0  0  0  0
  4  5  2  0  0  0  0
  4 34  1  0  0  0  0
  5  6  1  0  0  0  0
  5 35  1  0  0  0  0
  6  7  2  0  0  0  0
  6 36  1  0  0  0  0
  7  8  1  0  0  0  0
  7 28  1  0  0  0  0
  8  9  1  0  0  0  0
  8 37  1  0  0  0  0
  9 10  2  0  0  0  0
  9 11  1  0  0  0  0
 11 12  1  0  0  0  0
 11 38  1  0  0  0  0
 12 13  1  0  0  0  0
 12 27  2  0  0  0  0
 13 14  2  0  0  0  0
 13 39  1  0  0  0  0
 14 15  1  0  0  0  0
 14 40  1  0  0  0  0
 15 16  1  0  0  0  0
 15 26  2  0  0  0  0
 16 17  1  0  0  0  0
 16 21  2  0  0  0  0
 17 18  2  0  0  0  0
 17 41  1  0  0  0  0
 18 19  1  0  0  0  0
 18 42  1  0  0  0  0
 19 20  2  0  0  0  0
 19 43  1  0  0  0  0
 20 21  1  0  0  0  0
 20 24  1  0  0  0  0
 21 22  1  0  0  0  0
 22 23  1  0  0  0  0
 22 44  1  0  0  0  0
 22 45  1  0  0  0  0
 23 24  1  0  0  0  0
 23 46  1  0  0  0  0
 24 25  2  0  0  0  0
 26 27  1  0  0  0  0
 26 47  1  0  0  0  0
 27 48  1  0  0  0  0
 28 49  1  0  0  0  0
M  END
$$$$
