CHEMBL1807477
 OpenBabel04072215363D

 61 65  0  0  0  0  0  0  0  0999 V2000
    1.2214    0.4577   -0.5492 O   0  0  0  0  0  0  0  0  0  0  0  0
    2.3750    0.1977   -0.2816 C   0  0  0  0  0  0  0  0  0  0  0  0
    3.0219   -0.9870   -0.7884 N   0  0  0  0  0  0  0  0  0  0  0  0
    2.3727   -1.9040   -1.6145 C   0  0  0  0  0  0  0  0  0  0  0  0
    1.2345   -1.7480   -2.3653 C   0  0  0  0  0  0  0  0  0  0  0  0
    1.0426   -2.9802   -3.0572 C   0  0  0  0  0  0  0  0  0  0  0  0
    0.0208   -3.2861   -4.0640 C   0  0  0  0  0  0  0  0  0  0  0  0
   -1.1869   -2.5816   -4.0561 C   0  0  0  0  0  0  0  0  0  0  0  0
   -2.1569   -2.8321   -5.0288 C   0  0  0  0  0  0  0  0  0  0  0  0
   -1.9125   -3.7744   -6.0322 C   0  0  0  0  0  0  0  0  0  0  0  0
   -0.7026   -4.4703   -6.0691 C   0  0  0  0  0  0  0  0  0  0  0  0
   -0.4572   -5.4039   -7.1212 N   0  0  0  0  0  0  0  0  0  0  0  0
    0.2235   -4.8750   -8.5865 S   0  0  0  0  0  0  0  0  0  0  0  0
    0.3906   -6.0481   -9.4213 O   0  0  0  0  0  0  0  0  0  0  0  0
   -0.5038   -3.7220   -9.0592 O   0  0  0  0  0  0  0  0  0  0  0  0
    1.8521   -4.3423   -8.1069 C   0  0  0  0  0  0  0  0  0  0  0  0
    2.9279   -5.2359   -8.1641 C   0  0  0  0  0  0  0  0  0  0  0  0
    4.1966   -4.8099   -7.7686 C   0  0  0  0  0  0  0  0  0  0  0  0
    4.3891   -3.4954   -7.3355 C   0  0  0  0  0  0  0  0  0  0  0  0
    3.3149   -2.6060   -7.2901 C   0  0  0  0  0  0  0  0  0  0  0  0
    2.0436   -3.0237   -7.6839 C   0  0  0  0  0  0  0  0  0  0  0  0
    0.2534   -4.2389   -5.0758 C   0  0  0  0  0  0  0  0  0  0  0  0
    1.9782   -3.8705   -2.6938 N   0  0  0  0  0  0  0  0  0  0  0  0
    2.7753   -3.1898   -1.8563 N   0  0  0  0  0  0  0  0  0  0  0  0
    3.1635    1.0201    0.6712 C   0  0  0  0  0  0  0  0  0  0  0  0
    2.4872    1.6202    1.7411 C   0  0  0  0  0  0  0  0  0  0  0  0
    3.1984    2.3571    2.6934 C   0  0  0  0  0  0  0  0  0  0  0  0
    4.5810    2.5517    2.5959 C   0  0  0  0  0  0  0  0  0  0  0  0
    5.2880    3.2763    3.5280 N   0  0  0  0  0  0  0  0  0  0  0  0
    4.9117    3.3576    4.9497 C   0  0  0  0  0  0  0  0  0  0  0  0
    4.6579    4.8143    5.3625 C   0  0  0  0  0  0  0  0  0  0  0  0
    5.7711    5.6593    5.0285 O   0  0  0  0  0  0  0  0  0  0  0  0
    6.0118    5.6300    3.6128 C   0  0  0  0  0  0  0  0  0  0  0  0
    6.3532    4.2114    3.1269 C   0  0  0  0  0  0  0  0  0  0  0  0
    5.2284    1.9677    1.4918 C   0  0  0  0  0  0  0  0  0  0  0  0
    4.5376    1.2028    0.5422 C   0  0  0  0  0  0  0  0  0  0  0  0
    3.9418   -1.2240   -0.4441 H   0  0  0  0  0  0  0  0  0  0  0  0
    0.6358   -0.8529   -2.4703 H   0  0  0  0  0  0  0  0  0  0  0  0
   -1.3989   -1.8336   -3.2962 H   0  0  0  0  0  0  0  0  0  0  0  0
   -3.0979   -2.2920   -5.0033 H   0  0  0  0  0  0  0  0  0  0  0  0
   -2.6903   -3.9657   -6.7680 H   0  0  0  0  0  0  0  0  0  0  0  0
   -0.1630   -6.3442   -6.8661 H   0  0  0  0  0  0  0  0  0  0  0  0
    2.7879   -6.2619   -8.4991 H   0  0  0  0  0  0  0  0  0  0  0  0
    5.0348   -5.5021   -7.7881 H   0  0  0  0  0  0  0  0  0  0  0  0
    5.3794   -3.1666   -7.0297 H   0  0  0  0  0  0  0  0  0  0  0  0
    3.4647   -1.5884   -6.9369 H   0  0  0  0  0  0  0  0  0  0  0  0
    1.2038   -2.3349   -7.6283 H   0  0  0  0  0  0  0  0  0  0  0  0
    1.1983   -4.7790   -5.0980 H   0  0  0  0  0  0  0  0  0  0  0  0
    3.5775   -3.6790   -1.4758 H   0  0  0  0  0  0  0  0  0  0  0  0
    1.4109    1.5179    1.8467 H   0  0  0  0  0  0  0  0  0  0  0  0
    2.6373    2.8134    3.5087 H   0  0  0  0  0  0  0  0  0  0  0  0
    5.7520    2.9652    5.5346 H   0  0  0  0  0  0  0  0  0  0  0  0
    4.0441    2.7381    5.1988 H   0  0  0  0  0  0  0  0  0  0  0  0
    4.5161    4.8704    6.4466 H   0  0  0  0  0  0  0  0  0  0  0  0
    3.7536    5.2105    4.8859 H   0  0  0  0  0  0  0  0  0  0  0  0
    6.8481    6.3044    3.4039 H   0  0  0  0  0  0  0  0  0  0  0  0
    5.1284    6.0226    3.0943 H   0  0  0  0  0  0  0  0  0  0  0  0
    7.2915    3.8805    3.5858 H   0  0  0  0  0  0  0  0  0  0  0  0
    6.5011    4.2419    2.0418 H   0  0  0  0  0  0  0  0  0  0  0  0
    6.3051    2.0827    1.3845 H   0  0  0  0  0  0  0  0  0  0  0  0
    5.0958    0.7881   -0.2948 H   0  0  0  0  0  0  0  0  0  0  0  0
  1  2  2  0  0  0  0
  2  3  1  0  0  0  0
  2 25  1  0  0  0  0
  3  4  1  0  0  0  0
  3 37  1  0  0  0  0
  4  5  2  0  0  0  0
  4 24  1  0  0  0  0
  5  6  1  0  0  0  0
  5 38  1  0  0  0  0
  6  7  1  0  0  0  0
  6 23  2  0  0  0  0
  7  8  1  0  0  0  0
  7 22  2  0  0  0  0
  8  9  2  0  0  0  0
  8 39  1  0  0  0  0
  9 10  1  0  0  0  0
  9 40  1  0  0  0  0
 10 11  2  0  0  0  0
 10 41  1  0  0  0  0
 11 12  1  0  0  0  0
 11 22  1  0  0  0  0
 12 13  1  0  0  0  0
 12 42  1  0  0  0  0
 13 14  2  0  0  0  0
 13 15  2  0  0  0  0
 13 16  1  0  0  0  0
 16 17  1  0  0  0  0
 16 21  2  0  0  0  0
 17 18  2  0  0  0  0
 17 43  1  0  0  0  0
 18 19  1  0  0  0  0
 18 44  1  0  0  0  0
 19 20  2  0  0  0  0
 19 45  1  0  0  0  0
 20 21  1  0  0  0  0
 20 46  1  0  0  0  0
 21 47  1  0  0  0  0
 22 48  1  0  0  0  0
 23 24  1  0  0  0  0
 24 49  1  0  0  0  0
 25 26  1  0  0  0  0
 25 36  2  0  0  0  0
 26 27  2  0  0  0  0
 26 50  1  0  0  0  0
 27 28  1  0  0  0  0
 27 51  1  0  0  0  0
 28 29  1  0  0  0  0
 28 35  2  0  0  0  0
 29 30  1  0  0  0  0
 29 34  1  0  0  0  0
 30 31  1  0  0  0  0
 30 52  1  0  0  0  0
 30 53  1  0  0  0  0
 31 32  1  0  0  0  0
 31 54  1  0  0  0  0
 31 55  1  0  0  0  0
 32 33  1  0  0  0  0
 33 34  1  0  0  0  0
 33 56  1  0  0  0  0
 33 57  1  0  0  0  0
 34 58  1  0  0  0  0
 34 59  1  0  0  0  0
 35 36  1  0  0  0  0
 35 60  1  0  0  0  0
 36 61  1  0  0  0  0
M  END
$$$$
