CHEMBL2336005
 OpenBabel04072215363D

 53 57  0  0  0  0  0  0  0  0999 V2000
   -4.9936    6.9882    6.3901 O   0  0  0  0  0  0  0  0  0  0  0  0
   -4.2937    6.2155    5.5104 C   0  0  0  0  0  0  0  0  0  0  0  0
   -3.1463    5.5351    5.9037 C   0  0  0  0  0  0  0  0  0  0  0  0
   -2.4607    4.7620    4.9699 C   0  0  0  0  0  0  0  0  0  0  0  0
   -2.9376    4.6617    3.6607 C   0  0  0  0  0  0  0  0  0  0  0  0
   -4.1090    5.3235    3.2673 C   0  0  0  0  0  0  0  0  0  0  0  0
   -4.6310    5.2254    1.9592 N   0  0  0  0  0  0  0  0  0  0  0  0
   -4.4862    4.1537    1.0483 C   0  0  0  0  0  0  0  0  0  0  0  0
   -4.4573    2.8260    1.4899 C   0  0  0  0  0  0  0  0  0  0  0  0
   -4.2951    1.8002    0.5802 C   0  0  0  0  0  0  0  0  0  0  0  0
   -4.1772    1.9598   -0.7457 N   0  0  0  0  0  0  0  0  0  0  0  0
   -4.2534    3.2460   -1.1888 C   0  0  0  0  0  0  0  0  0  0  0  0
   -4.1681    3.6262   -2.5509 C   0  0  0  0  0  0  0  0  0  0  0  0
   -4.2936    4.9898   -2.7603 C   0  0  0  0  0  0  0  0  0  0  0  0
   -4.2799    5.7011   -4.0562 C   0  0  0  0  0  0  0  0  0  0  0  0
   -5.0052    6.8788   -4.2848 C   0  0  0  0  0  0  0  0  0  0  0  0
   -5.0677    7.4415   -5.5649 C   0  0  0  0  0  0  0  0  0  0  0  0
   -4.4592    6.8038   -6.6478 C   0  0  0  0  0  0  0  0  0  0  0  0
   -3.7522    5.6101   -6.4590 C   0  0  0  0  0  0  0  0  0  0  0  0
   -3.2922    4.7619   -7.6335 C   0  0  0  0  0  0  0  0  0  0  0  0
   -1.9119    4.9750   -8.0858 N   0  0  0  0  0  0  0  0  0  0  0  0
   -1.7185    6.2520   -8.8039 C   0  0  0  0  0  0  0  0  0  0  0  0
   -2.3667    6.2929  -10.1979 C   0  0  0  0  0  0  0  0  0  0  0  0
   -1.8740    5.2399  -11.0328 O   0  0  0  0  0  0  0  0  0  0  0  0
   -2.0515    3.9540  -10.4301 C   0  0  0  0  0  0  0  0  0  0  0  0
   -1.4796    3.8861   -8.9986 C   0  0  0  0  0  0  0  0  0  0  0  0
   -3.6108    5.1172   -5.1502 C   0  0  0  0  0  0  0  0  0  0  0  0
   -4.4983    5.8012   -1.2637 S   0  0  0  0  0  0  0  0  0  0  0  0
   -4.4177    4.3400   -0.3453 C   0  0  0  0  0  0  0  0  0  0  0  0
   -4.7703    6.1237    4.2045 C   0  0  0  0  0  0  0  0  0  0  0  0
   -4.5598    6.9403    7.2577 H   0  0  0  0  0  0  0  0  0  0  0  0
   -2.7718    5.5972    6.9202 H   0  0  0  0  0  0  0  0  0  0  0  0
   -1.5533    4.2362    5.2554 H   0  0  0  0  0  0  0  0  0  0  0  0
   -2.3728    4.0694    2.9447 H   0  0  0  0  0  0  0  0  0  0  0  0
   -4.6580    6.1328    1.4989 H   0  0  0  0  0  0  0  0  0  0  0  0
   -4.5640    2.5883    2.5436 H   0  0  0  0  0  0  0  0  0  0  0  0
   -4.2524    0.7682    0.9208 H   0  0  0  0  0  0  0  0  0  0  0  0
   -4.0363    2.9058   -3.3456 H   0  0  0  0  0  0  0  0  0  0  0  0
   -5.5685    7.3555   -3.4857 H   0  0  0  0  0  0  0  0  0  0  0  0
   -5.6388    8.3538   -5.7263 H   0  0  0  0  0  0  0  0  0  0  0  0
   -4.5777    7.2208   -7.6446 H   0  0  0  0  0  0  0  0  0  0  0  0
   -4.0217    4.8524   -8.4464 H   0  0  0  0  0  0  0  0  0  0  0  0
   -3.3850    3.7197   -7.2946 H   0  0  0  0  0  0  0  0  0  0  0  0
   -0.6361    6.3871   -8.9336 H   0  0  0  0  0  0  0  0  0  0  0  0
   -2.0530    7.1015   -8.2015 H   0  0  0  0  0  0  0  0  0  0  0  0
   -2.1097    7.2371  -10.6892 H   0  0  0  0  0  0  0  0  0  0  0  0
   -3.4602    6.2416  -10.1475 H   0  0  0  0  0  0  0  0  0  0  0  0
   -1.5168    3.2353  -11.0615 H   0  0  0  0  0  0  0  0  0  0  0  0
   -3.1128    3.6829  -10.4572 H   0  0  0  0  0  0  0  0  0  0  0  0
   -0.3861    3.9415   -9.0708 H   0  0  0  0  0  0  0  0  0  0  0  0
   -1.6974    2.9028   -8.5633 H   0  0  0  0  0  0  0  0  0  0  0  0
   -3.0155    4.2179   -5.0007 H   0  0  0  0  0  0  0  0  0  0  0  0
   -5.6783    6.6531    3.9302 H   0  0  0  0  0  0  0  0  0  0  0  0
  1  2  1  0  0  0  0
  1 31  1  0  0  0  0
  2  3  1  0  0  0  0
  2 30  2  0  0  0  0
  3  4  2  0  0  0  0
  3 32  1  0  0  0  0
  4  5  1  0  0  0  0
  4 33  1  0  0  0  0
  5  6  2  0  0  0  0
  5 34  1  0  0  0  0
  6  7  1  0  0  0  0
  6 30  1  0  0  0  0
  7  8  1  0  0  0  0
  7 35  1  0  0  0  0
  8  9  1  0  0  0  0
  8 29  2  0  0  0  0
  9 10  2  0  0  0  0
  9 36  1  0  0  0  0
 10 11  1  0  0  0  0
 10 37  1  0  0  0  0
 11 12  2  0  0  0  0
 12 13  1  0  0  0  0
 12 29  1  0  0  0  0
 13 14  2  0  0  0  0
 13 38  1  0  0  0  0
 14 15  1  0  0  0  0
 14 28  1  0  0  0  0
 15 16  1  0  0  0  0
 15 27  2  0  0  0  0
 16 17  2  0  0  0  0
 16 39  1  0  0  0  0
 17 18  1  0  0  0  0
 17 40  1  0  0  0  0
 18 19  2  0  0  0  0
 18 41  1  0  0  0  0
 19 20  1  0  0  0  0
 19 27  1  0  0  0  0
 20 21  1  0  0  0  0
 20 42  1  0  0  0  0
 20 43  1  0  0  0  0
 21 22  1  0  0  0  0
 21 26  1  0  0  0  0
 22 23  1  0  0  0  0
 22 44  1  0  0  0  0
 22 45  1  0  0  0  0
 23 24  1  0  0  0  0
 23 46  1  0  0  0  0
 23 47  1  0  0  0  0
 24 25  1  0  0  0  0
 25 26  1  0  0  0  0
 25 48  1  0  0  0  0
 25 49  1  0  0  0  0
 26 50  1  0  0  0  0
 26 51  1  0  0  0  0
 27 52  1  0  0  0  0
 28 29  1  0  0  0  0
 30 53  1  0  0  0  0
M  END
$$$$
