CHEMBL1242845
 OpenBabel04072215363D

 48 52  0  0  0  0  0  0  0  0999 V2000
    2.9933    5.5785    0.8079 C   0  0  0  0  0  0  0  0  0  0  0  0
    3.5724    5.0447   -0.4420 C   0  0  0  0  0  0  0  0  0  0  0  0
    4.4436    5.7848   -1.1276 N   0  0  0  0  0  0  0  0  0  0  0  0
    4.7462    5.0091   -2.1963 N   0  0  0  0  0  0  0  0  0  0  0  0
    5.6717    5.4593   -3.1788 C   0  0  0  0  0  0  0  0  0  0  0  0
    6.3815    6.6558   -2.9600 C   0  0  0  0  0  0  0  0  0  0  0  0
    7.2812    7.1414   -3.9109 C   0  0  0  0  0  0  0  0  0  0  0  0
    7.4724    6.4478   -5.0925 C   0  0  0  0  0  0  0  0  0  0  0  0
    6.7732    5.2548   -5.3304 C   0  0  0  0  0  0  0  0  0  0  0  0
    5.8832    4.7513   -4.3703 C   0  0  0  0  0  0  0  0  0  0  0  0
    4.0971    3.8055   -2.2446 N   0  0  0  0  0  0  0  0  0  0  0  0
    3.3678    3.8213   -1.1066 C   0  0  0  0  0  0  0  0  0  0  0  0
    2.5599    2.6178   -0.6774 C   0  0  0  0  0  0  0  0  0  0  0  0
    1.2441    2.9935   -0.1903 N   0  0  0  0  0  0  0  0  0  0  0  0
    0.9174    2.8874    1.1315 N   0  0  0  0  0  0  0  0  0  0  0  0
   -0.3308    3.4157    1.1452 C   0  0  0  0  0  0  0  0  0  0  0  0
   -1.3486    2.9821    2.1086 C   0  0  0  0  0  0  0  0  0  0  0  0
   -1.4757    1.6043    2.3992 C   0  0  0  0  0  0  0  0  0  0  0  0
   -2.4981    1.1349    3.2299 C   0  0  0  0  0  0  0  0  0  0  0  0
   -3.3919    2.0425    3.7750 C   0  0  0  0  0  0  0  0  0  0  0  0
   -4.3715    1.6142    4.5855 F   0  0  0  0  0  0  0  0  0  0  0  0
   -3.2826    3.3991    3.4874 C   0  0  0  0  0  0  0  0  0  0  0  0
   -4.1643    4.2979    4.0222 O   0  0  0  0  0  0  0  0  0  0  0  0
   -2.2831    3.8760    2.6407 C   0  0  0  0  0  0  0  0  0  0  0  0
   -0.5577    4.1687   -0.0621 C   0  0  0  0  0  0  0  0  0  0  0  0
   -1.6650    4.7744   -0.6627 C   0  0  0  0  0  0  0  0  0  0  0  0
   -1.6517    6.1471   -0.9661 N   0  0  0  0  0  0  0  0  0  0  0  0
   -2.3637    4.0372   -1.5480 N   0  0  0  0  0  0  0  0  0  0  0  0
   -1.7115    3.0150   -2.1204 C   0  0  0  0  0  0  0  0  0  0  0  0
   -0.3965    2.7004   -1.9994 N   0  0  0  0  0  0  0  0  0  0  0  0
    0.1128    3.2884   -0.9047 C   0  0  0  0  0  0  0  0  0  0  0  0
    3.4766    6.5190    1.0973 H   0  0  0  0  0  0  0  0  0  0  0  0
    3.1139    4.8728    1.6293 H   0  0  0  0  0  0  0  0  0  0  0  0
    1.9287    5.7891    0.6738 H   0  0  0  0  0  0  0  0  0  0  0  0
    6.2441    7.2184   -2.0400 H   0  0  0  0  0  0  0  0  0  0  0  0
    7.8302    8.0629   -3.7290 H   0  0  0  0  0  0  0  0  0  0  0  0
    8.1593    6.8283   -5.8502 H   0  0  0  0  0  0  0  0  0  0  0  0
    6.9279    4.7164   -6.2626 H   0  0  0  0  0  0  0  0  0  0  0  0
    5.3530    3.8225   -4.5705 H   0  0  0  0  0  0  0  0  0  0  0  0
    3.0822    2.1097    0.1432 H   0  0  0  0  0  0  0  0  0  0  0  0
    2.4214    1.8989   -1.4883 H   0  0  0  0  0  0  0  0  0  0  0  0
   -0.7894    0.8864    1.9511 H   0  0  0  0  0  0  0  0  0  0  0  0
   -2.6050    0.0738    3.4379 H   0  0  0  0  0  0  0  0  0  0  0  0
   -4.7395    3.7992    4.6327 H   0  0  0  0  0  0  0  0  0  0  0  0
   -2.2447    4.9358    2.4035 H   0  0  0  0  0  0  0  0  0  0  0  0
   -0.9525    6.2673   -1.7040 H   0  0  0  0  0  0  0  0  0  0  0  0
   -2.5460    6.3523   -1.4081 H   0  0  0  0  0  0  0  0  0  0  0  0
   -2.3143    2.3843   -2.7687 H   0  0  0  0  0  0  0  0  0  0  0  0
  1  2  1  0  0  0  0
  1 32  1  0  0  0  0
  1 33  1  0  0  0  0
  1 34  1  0  0  0  0
  2  3  2  0  0  0  0
  2 12  1  0  0  0  0
  3  4  1  0  0  0  0
  4  5  1  0  0  0  0
  4 11  1  0  0  0  0
  5  6  1  0  0  0  0
  5 10  2  0  0  0  0
  6  7  2  0  0  0  0
  6 35  1  0  0  0  0
  7  8  1  0  0  0  0
  7 36  1  0  0  0  0
  8  9  2  0  0  0  0
  8 37  1  0  0  0  0
  9 10  1  0  0  0  0
  9 38  1  0  0  0  0
 10 39  1  0  0  0  0
 11 12  2  0  0  0  0
 12 13  1  0  0  0  0
 13 14  1  0  0  0  0
 13 40  1  0  0  0  0
 13 41  1  0  0  0  0
 14 15  1  0  0  0  0
 14 31  1  0  0  0  0
 15 16  2  0  0  0  0
 16 17  1  0  0  0  0
 16 25  1  0  0  0  0
 17 18  1  0  0  0  0
 17 24  2  0  0  0  0
 18 19  2  0  0  0  0
 18 42  1  0  0  0  0
 19 20  1  0  0  0  0
 19 43  1  0  0  0  0
 20 21  1  0  0  0  0
 20 22  2  0  0  0  0
 22 23  1  0  0  0  0
 22 24  1  0  0  0  0
 23 44  1  0  0  0  0
 24 45  1  0  0  0  0
 25 26  1  0  0  0  0
 25 31  2  0  0  0  0
 26 27  1  0  0  0  0
 26 28  2  0  0  0  0
 27 46  1  0  0  0  0
 27 47  1  0  0  0  0
 28 29  1  0  0  0  0
 29 30  2  0  0  0  0
 29 48  1  0  0  0  0
 30 31  1  0  0  0  0
M  END
$$$$
