CHEMBL397497
 OpenBabel04072215373D

 61 66  0  0  0  0  0  0  0  0999 V2000
    2.0792    0.0199   -0.8995 C   0  0  0  0  0  0  0  0  0  0  0  0
    0.6313    0.2099   -1.0084 N   0  0  0  0  0  0  0  0  0  0  0  0
   -0.0559   -1.0546   -0.7022 C   0  0  0  0  0  0  0  0  0  0  0  0
   -1.5921   -0.9095   -0.6609 C   0  0  0  0  0  0  0  0  0  0  0  0
   -2.0768    0.0885    0.3143 N   0  0  0  0  0  0  0  0  0  0  0  0
   -1.8850   -0.3150    1.7257 C   0  0  0  0  0  0  0  0  0  0  0  0
   -2.6397   -1.5708    2.1425 C   0  0  0  0  0  0  0  0  0  0  0  0
   -3.9772   -1.4456    2.5709 C   0  0  0  0  0  0  0  0  0  0  0  0
   -4.7316   -2.5526    2.9924 C   0  0  0  0  0  0  0  0  0  0  0  0
   -5.9972   -2.4649    3.6225 N   0  0  0  0  0  0  0  0  0  0  0  0
   -6.6199   -1.3179    3.9625 C   0  0  0  0  0  0  0  0  0  0  0  0
   -6.5459   -0.1296    3.4180 N   0  0  0  0  0  0  0  0  0  0  0  0
   -7.3985    0.6722    4.1243 C   0  0  0  0  0  0  0  0  0  0  0  0
   -7.6996    2.0260    3.9424 C   0  0  0  0  0  0  0  0  0  0  0  0
   -8.6390    2.6177    4.7927 C   0  0  0  0  0  0  0  0  0  0  0  0
   -8.9034    3.9444    4.5287 O   0  0  0  0  0  0  0  0  0  0  0  0
   -9.2460    4.7962    5.5519 C   0  0  0  0  0  0  0  0  0  0  0  0
   -8.7715    4.6864    6.8613 C   0  0  0  0  0  0  0  0  0  0  0  0
   -9.2147    5.5874    7.8184 C   0  0  0  0  0  0  0  0  0  0  0  0
  -10.0449    6.6301    7.5984 N   0  0  0  0  0  0  0  0  0  0  0  0
  -10.4024    6.7452    6.3066 C   0  0  0  0  0  0  0  0  0  0  0  0
  -11.1900    7.7484    5.8120 N   0  0  0  0  0  0  0  0  0  0  0  0
  -11.3406    7.5967    4.4573 C   0  0  0  0  0  0  0  0  0  0  0  0
  -10.6574    6.4569    4.0843 C   0  0  0  0  0  0  0  0  0  0  0  0
  -10.0564    5.9088    5.2542 C   0  0  0  0  0  0  0  0  0  0  0  0
   -9.2873    1.8586    5.7755 C   0  0  0  0  0  0  0  0  0  0  0  0
   -8.9536    0.5172    6.0077 C   0  0  0  0  0  0  0  0  0  0  0  0
   -8.0113   -0.0409    5.1460 C   0  0  0  0  0  0  0  0  0  0  0  0
   -7.4810   -1.3013    5.0342 N   0  0  0  0  0  0  0  0  0  0  0  0
   -4.2053   -3.8284    2.7681 C   0  0  0  0  0  0  0  0  0  0  0  0
   -2.8849   -3.9809    2.3612 C   0  0  0  0  0  0  0  0  0  0  0  0
   -2.0858   -2.8597    2.1377 C   0  0  0  0  0  0  0  0  0  0  0  0
   -0.3980   -3.1724    1.9703 Cl  0  0  0  0  0  0  0  0  0  0  0  0
   -1.3809    1.3638    0.0125 C   0  0  0  0  0  0  0  0  0  0  0  0
    0.1676    1.2680   -0.0867 C   0  0  0  0  0  0  0  0  0  0  0  0
    2.4110   -0.7946   -1.5537 H   0  0  0  0  0  0  0  0  0  0  0  0
    2.3915   -0.2239    0.1237 H   0  0  0  0  0  0  0  0  0  0  0  0
    2.6108    0.9221   -1.2160 H   0  0  0  0  0  0  0  0  0  0  0  0
    0.3108   -1.4150    0.2583 H   0  0  0  0  0  0  0  0  0  0  0  0
    0.2003   -1.8149   -1.4487 H   0  0  0  0  0  0  0  0  0  0  0  0
   -2.0630   -1.8834   -0.4945 H   0  0  0  0  0  0  0  0  0  0  0  0
   -1.9368   -0.6056   -1.6593 H   0  0  0  0  0  0  0  0  0  0  0  0
   -2.2682    0.5023    2.3537 H   0  0  0  0  0  0  0  0  0  0  0  0
   -0.8280   -0.3990    1.9997 H   0  0  0  0  0  0  0  0  0  0  0  0
   -4.3998   -0.4445    2.6219 H   0  0  0  0  0  0  0  0  0  0  0  0
   -6.2280   -3.3202    4.1117 H   0  0  0  0  0  0  0  0  0  0  0  0
   -7.2201    2.5865    3.1482 H   0  0  0  0  0  0  0  0  0  0  0  0
   -8.0777    3.9047    7.1495 H   0  0  0  0  0  0  0  0  0  0  0  0
   -8.8906    5.4811    8.8518 H   0  0  0  0  0  0  0  0  0  0  0  0
  -11.5707    8.4900    6.3809 H   0  0  0  0  0  0  0  0  0  0  0  0
  -11.9144    8.3094    3.8803 H   0  0  0  0  0  0  0  0  0  0  0  0
  -10.5783    6.0684    3.0767 H   0  0  0  0  0  0  0  0  0  0  0  0
  -10.0685    2.3057    6.3867 H   0  0  0  0  0  0  0  0  0  0  0  0
   -9.4296   -0.0546    6.7964 H   0  0  0  0  0  0  0  0  0  0  0  0
   -7.6737   -2.0797    5.6432 H   0  0  0  0  0  0  0  0  0  0  0  0
   -4.7976   -4.7179    2.9616 H   0  0  0  0  0  0  0  0  0  0  0  0
   -2.4693   -4.9806    2.2609 H   0  0  0  0  0  0  0  0  0  0  0  0
   -1.6551    2.1312    0.7466 H   0  0  0  0  0  0  0  0  0  0  0  0
   -1.7608    1.7348   -0.9500 H   0  0  0  0  0  0  0  0  0  0  0  0
    0.5742    1.1081    0.9202 H   0  0  0  0  0  0  0  0  0  0  0  0
    0.5521    2.2329   -0.4385 H   0  0  0  0  0  0  0  0  0  0  0  0
  1  2  1  0  0  0  0
  1 36  1  0  0  0  0
  1 37  1  0  0  0  0
  1 38  1  0  0  0  0
  2  3  1  0  0  0  0
  2 35  1  0  0  0  0
  3  4  1  0  0  0  0
  3 39  1  0  0  0  0
  3 40  1  0  0  0  0
  4  5  1  0  0  0  0
  4 41  1  0  0  0  0
  4 42  1  0  0  0  0
  5  6  1  0  0  0  0
  5 34  1  0  0  0  0
  6  7  1  0  0  0  0
  6 43  1  0  0  0  0
  6 44  1  0  0  0  0
  7  8  1  0  0  0  0
  7 32  2  0  0  0  0
  8  9  2  0  0  0  0
  8 45  1  0  0  0  0
  9 10  1  0  0  0  0
  9 30  1  0  0  0  0
 10 11  1  0  0  0  0
 10 46  1  0  0  0  0
 11 12  2  0  0  0  0
 11 29  1  0  0  0  0
 12 13  1  0  0  0  0
 13 14  1  0  0  0  0
 13 28  2  0  0  0  0
 14 15  2  0  0  0  0
 14 47  1  0  0  0  0
 15 16  1  0  0  0  0
 15 26  1  0  0  0  0
 16 17  1  0  0  0  0
 17 18  1  0  0  0  0
 17 25  2  0  0  0  0
 18 19  2  0  0  0  0
 18 48  1  0  0  0  0
 19 20  1  0  0  0  0
 19 49  1  0  0  0  0
 20 21  2  0  0  0  0
 21 22  1  0  0  0  0
 21 25  1  0  0  0  0
 22 23  1  0  0  0  0
 22 50  1  0  0  0  0
 23 24  2  0  0  0  0
 23 51  1  0  0  0  0
 24 25  1  0  0  0  0
 24 52  1  0  0  0  0
 26 27  2  0  0  0  0
 26 53  1  0  0  0  0
 27 28  1  0  0  0  0
 27 54  1  0  0  0  0
 28 29  1  0  0  0  0
 29 55  1  0  0  0  0
 30 31  2  0  0  0  0
 30 56  1  0  0  0  0
 31 32  1  0  0  0  0
 31 57  1  0  0  0  0
 32 33  1  0  0  0  0
 34 35  1  0  0  0  0
 34 58  1  0  0  0  0
 34 59  1  0  0  0  0
 35 60  1  0  0  0  0
 35 61  1  0  0  0  0
M  END
$$$$
