CHEMBL3401983
 OpenBabel04072215363D

 50 54  0  0  1  0  0  0  0  0999 V2000
    1.0449    0.1045   -0.1304 N   0  0  0  0  0  0  0  0  0  0  0  0
    2.7076   -0.1499   -0.1293 S   0  0  0  0  0  0  0  0  0  0  0  0
    3.1558    0.1786    1.2088 O   0  0  0  0  0  0  0  0  0  0  0  0
    2.8264   -1.4850   -0.6593 O   0  0  0  0  0  0  0  0  0  0  0  0
    3.2856    1.0679   -1.3369 C   0  0  1  0  0  0  0  0  0  0  0  0
    2.8521    2.5222   -1.0132 C   0  0  3  0  0  0  0  0  0  0  0  0
    3.5547    3.0796    0.2410 C   0  0  0  0  0  0  0  0  0  0  0  0
    5.0698    2.8749    0.1371 C   0  0  0  0  0  0  0  0  0  0  0  0
    5.4318    2.4003   -1.2795 C   0  0  3  0  0  0  0  0  0  0  0  0
    4.8335    3.4122   -2.2847 C   0  0  0  0  0  0  0  0  0  0  0  0
    3.3015    3.4015   -2.1989 C   0  0  0  0  0  0  0  0  0  0  0  0
    4.8203    0.9803   -1.4888 C   0  0  2  0  0  0  0  0  0  0  0  0
    5.1813    0.5357   -2.8509 N   0  0  0  0  0  0  0  0  0  0  0  0
    5.8768   -0.6879   -2.9561 C   0  0  0  0  0  0  0  0  0  0  0  0
    5.7233   -1.6446   -2.0237 N   0  0  0  0  0  0  0  0  0  0  0  0
    6.3934   -2.7975   -2.2221 C   0  0  0  0  0  0  0  0  0  0  0  0
    6.3518   -3.8167   -1.1868 C   0  0  0  0  0  0  0  0  0  0  0  0
    5.3460   -3.9574   -0.2449 C   0  0  0  0  0  0  0  0  0  0  0  0
    5.6475   -5.0317    0.5535 N   0  0  0  0  0  0  0  0  0  0  0  0
    6.8331   -5.5876    0.1527 C   0  0  0  0  0  0  0  0  0  0  0  0
    7.4117   -6.6587    0.7324 N   0  0  0  0  0  0  0  0  0  0  0  0
    8.5878   -6.9944    0.1409 C   0  0  0  0  0  0  0  0  0  0  0  0
    9.1706   -6.3403   -0.9317 C   0  0  0  0  0  0  0  0  0  0  0  0
   10.3418   -6.7578   -1.4293 F   0  0  0  0  0  0  0  0  0  0  0  0
    8.5365   -5.2415   -1.4913 C   0  0  0  0  0  0  0  0  0  0  0  0
    7.3053   -4.8500   -0.9290 C   0  0  0  0  0  0  0  0  0  0  0  0
    7.1932   -3.0658   -3.2762 N   0  0  0  0  0  0  0  0  0  0  0  0
    7.3104   -2.0948   -4.1941 C   0  0  0  0  0  0  0  0  0  0  0  0
    6.6663   -0.8925   -4.0833 C   0  0  0  0  0  0  0  0  0  0  0  0
    6.8506    0.0743   -4.9941 F   0  0  0  0  0  0  0  0  0  0  0  0
    0.6903   -0.0280    0.8206 H   0  0  0  0  0  0  0  0  0  0  0  0
    0.6119   -0.5525   -0.7847 H   0  0  0  0  0  0  0  0  0  0  0  0
    2.7956    0.7516   -2.2689 H   0  0  0  0  0  0  0  0  0  0  0  0
    1.7661    2.5962   -0.8953 H   0  0  0  0  0  0  0  0  0  0  0  0
    3.1686    2.6317    1.1603 H   0  0  0  0  0  0  0  0  0  0  0  0
    3.3431    4.1536    0.3306 H   0  0  0  0  0  0  0  0  0  0  0  0
    5.4041    2.1416    0.8804 H   0  0  0  0  0  0  0  0  0  0  0  0
    5.5883    3.8131    0.3679 H   0  0  0  0  0  0  0  0  0  0  0  0
    6.5216    2.3618   -1.3937 H   0  0  0  0  0  0  0  0  0  0  0  0
    5.1470    3.1997   -3.3126 H   0  0  0  0  0  0  0  0  0  0  0  0
    5.2110    4.4179   -2.0622 H   0  0  0  0  0  0  0  0  0  0  0  0
    2.8749    3.0225   -3.1354 H   0  0  0  0  0  0  0  0  0  0  0  0
    2.9328    4.4273   -2.0811 H   0  0  0  0  0  0  0  0  0  0  0  0
    5.2576    0.3256   -0.7247 H   0  0  0  0  0  0  0  0  0  0  0  0
    5.7175    1.2300   -3.3697 H   0  0  0  0  0  0  0  0  0  0  0  0
    4.4367   -3.3921   -0.0830 H   0  0  0  0  0  0  0  0  0  0  0  0
    5.0965   -5.3786    1.3240 H   0  0  0  0  0  0  0  0  0  0  0  0
    9.0881   -7.8574    0.5745 H   0  0  0  0  0  0  0  0  0  0  0  0
    8.9774   -4.7172   -2.3277 H   0  0  0  0  0  0  0  0  0  0  0  0
    7.9662   -2.3063   -5.0305 H   0  0  0  0  0  0  0  0  0  0  0  0
  1  2  1  0  0  0  0
  1 31  1  0  0  0  0
  1 32  1  0  0  0  0
  2  3  2  0  0  0  0
  2  4  2  0  0  0  0
  2  5  1  0  0  0  0
  5  6  1  0  0  0  0
  5 12  1  0  0  0  0
  5 33  1  6  0  0  0
  6  7  1  0  0  0  0
  6 11  1  0  0  0  0
  6 34  1  0  0  0  0
  7  8  1  0  0  0  0
  7 35  1  0  0  0  0
  7 36  1  0  0  0  0
  8  9  1  0  0  0  0
  8 37  1  0  0  0  0
  8 38  1  0  0  0  0
  9 10  1  0  0  0  0
  9 12  1  0  0  0  0
  9 39  1  0  0  0  0
 10 11  1  0  0  0  0
 10 40  1  0  0  0  0
 10 41  1  0  0  0  0
 11 42  1  0  0  0  0
 11 43  1  0  0  0  0
 12 13  1  0  0  0  0
 12 44  1  1  0  0  0
 13 14  1  0  0  0  0
 13 45  1  0  0  0  0
 14 15  1  0  0  0  0
 14 29  2  0  0  0  0
 15 16  2  0  0  0  0
 16 17  1  0  0  0  0
 16 27  1  0  0  0  0
 17 18  2  0  0  0  0
 17 26  1  0  0  0  0
 18 19  1  0  0  0  0
 18 46  1  0  0  0  0
 19 20  1  0  0  0  0
 19 47  1  0  0  0  0
 20 21  1  0  0  0  0
 20 26  2  0  0  0  0
 21 22  2  0  0  0  0
 22 23  1  0  0  0  0
 22 48  1  0  0  0  0
 23 24  1  0  0  0  0
 23 25  2  0  0  0  0
 25 26  1  0  0  0  0
 25 49  1  0  0  0  0
 27 28  2  0  0  0  0
 28 29  1  0  0  0  0
 28 50  1  0  0  0  0
 29 30  1  0  0  0  0
M  END
$$$$
