CHEMBL3352835
 OpenBabel04072215363D

 54 57  0  0  0  0  0  0  0  0999 V2000
    1.0362    0.9435    0.9502 C   0  0  0  0  0  0  0  0  0  0  0  0
    1.3262   -0.1469    0.0875 O   0  0  0  0  0  0  0  0  0  0  0  0
    0.4200   -1.2519    0.2180 C   0  0  0  0  0  0  0  0  0  0  0  0
    0.6261   -2.0345    1.5216 C   0  0  0  0  0  0  0  0  0  0  0  0
    1.9377   -2.8182    1.5339 C   0  0  0  0  0  0  0  0  0  0  0  0
    2.0811   -3.5907    0.3107 N   0  0  0  0  0  0  0  0  0  0  0  0
    2.2091   -4.9580    0.3288 C   0  0  0  0  0  0  0  0  0  0  0  0
    2.4187   -5.6236   -0.8156 N   0  0  0  0  0  0  0  0  0  0  0  0
    2.5292   -6.9627   -0.7482 C   0  0  0  0  0  0  0  0  0  0  0  0
    2.4344   -7.6801    0.4174 C   0  0  0  0  0  0  0  0  0  0  0  0
    2.1872   -6.9403    1.5472 C   0  0  0  0  0  0  0  0  0  0  0  0
    1.9179   -7.6042    2.7661 N   0  0  0  0  0  0  0  0  0  0  0  0
    1.1387   -7.0435    3.7902 C   0  0  0  0  0  0  0  0  0  0  0  0
    0.0235   -6.2722    3.4569 C   0  0  0  0  0  0  0  0  0  0  0  0
   -0.7256   -5.6300    4.4256 C   0  0  0  0  0  0  0  0  0  0  0  0
   -1.8111   -4.7689    4.1126 N   0  0  0  0  0  0  0  0  0  0  0  0
   -2.3879   -4.6065    2.8532 C   0  0  0  0  0  0  0  0  0  0  0  0
   -2.0514   -5.2093    1.8416 O   0  0  0  0  0  0  0  0  0  0  0  0
   -3.5371   -3.6603    2.7252 C   0  0  0  0  0  0  0  0  0  0  0  0
   -3.7066   -2.8984    1.5469 C   0  0  0  0  0  0  0  0  0  0  0  0
   -2.6565   -2.9449    0.1802 Cl  0  0  0  0  0  0  0  0  0  0  0  0
   -4.8033   -2.0407    1.3875 C   0  0  0  0  0  0  0  0  0  0  0  0
   -5.7821   -1.9667    2.3662 C   0  0  0  0  0  0  0  0  0  0  0  0
   -5.6546   -2.7376    3.5146 C   0  0  0  0  0  0  0  0  0  0  0  0
   -4.5409   -3.5718    3.7040 C   0  0  0  0  0  0  0  0  0  0  0  0
   -4.5498   -4.5018    5.1657 Cl  0  0  0  0  0  0  0  0  0  0  0  0
   -0.3644   -5.8361    5.7534 C   0  0  0  0  0  0  0  0  0  0  0  0
    0.7186   -6.6748    6.0210 C   0  0  0  0  0  0  0  0  0  0  0  0
    1.4696   -7.2826    5.0735 N   0  0  0  0  0  0  0  0  0  0  0  0
    2.1141   -5.5950    1.5016 N   0  0  0  0  0  0  0  0  0  0  0  0
    1.9746   -2.8692   -0.9439 C   0  0  0  0  0  0  0  0  0  0  0  0
    0.6245   -2.1576   -1.0012 C   0  0  0  0  0  0  0  0  0  0  0  0
    1.5591    1.8247    0.5681 H   0  0  0  0  0  0  0  0  0  0  0  0
    1.4076    0.7367    1.9570 H   0  0  0  0  0  0  0  0  0  0  0  0
   -0.0353    1.1650    0.9782 H   0  0  0  0  0  0  0  0  0  0  0  0
   -0.6007   -0.8536    0.1832 H   0  0  0  0  0  0  0  0  0  0  0  0
   -0.1984   -2.7426    1.6513 H   0  0  0  0  0  0  0  0  0  0  0  0
    0.6014   -1.3650    2.3880 H   0  0  0  0  0  0  0  0  0  0  0  0
    1.9603   -3.4304    2.4430 H   0  0  0  0  0  0  0  0  0  0  0  0
    2.7799   -2.1217    1.6156 H   0  0  0  0  0  0  0  0  0  0  0  0
    2.6775   -7.4582   -1.7025 H   0  0  0  0  0  0  0  0  0  0  0  0
    2.4715   -8.7594    0.4259 H   0  0  0  0  0  0  0  0  0  0  0  0
    2.7141   -8.0965    3.1449 H   0  0  0  0  0  0  0  0  0  0  0  0
   -0.2057   -6.1608    2.4064 H   0  0  0  0  0  0  0  0  0  0  0  0
   -2.2565   -4.3123    4.8990 H   0  0  0  0  0  0  0  0  0  0  0  0
   -4.9078   -1.4478    0.4797 H   0  0  0  0  0  0  0  0  0  0  0  0
   -6.6520   -1.3313    2.2171 H   0  0  0  0  0  0  0  0  0  0  0  0
   -6.4466   -2.7028    4.2598 H   0  0  0  0  0  0  0  0  0  0  0  0
   -0.9010   -5.3804    6.5770 H   0  0  0  0  0  0  0  0  0  0  0  0
    1.0190   -6.8836    7.0432 H   0  0  0  0  0  0  0  0  0  0  0  0
    2.0675   -3.5032   -1.8313 H   0  0  0  0  0  0  0  0  0  0  0  0
    2.7855   -2.1336   -1.0081 H   0  0  0  0  0  0  0  0  0  0  0  0
   -0.1642   -2.9154   -1.0461 H   0  0  0  0  0  0  0  0  0  0  0  0
    0.5627   -1.5669   -1.9221 H   0  0  0  0  0  0  0  0  0  0  0  0
  1  2  1  0  0  0  0
  1 33  1  0  0  0  0
  1 34  1  0  0  0  0
  1 35  1  0  0  0  0
  2  3  1  0  0  0  0
  3  4  1  0  0  0  0
  3 32  1  0  0  0  0
  3 36  1  0  0  0  0
  4  5  1  0  0  0  0
  4 37  1  0  0  0  0
  4 38  1  0  0  0  0
  5  6  1  0  0  0  0
  5 39  1  0  0  0  0
  5 40  1  0  0  0  0
  6  7  1  0  0  0  0
  6 31  1  0  0  0  0
  7  8  1  0  0  0  0
  7 30  2  0  0  0  0
  8  9  2  0  0  0  0
  9 10  1  0  0  0  0
  9 41  1  0  0  0  0
 10 11  2  0  0  0  0
 10 42  1  0  0  0  0
 11 12  1  0  0  0  0
 11 30  1  0  0  0  0
 12 13  1  0  0  0  0
 12 43  1  0  0  0  0
 13 14  1  0  0  0  0
 13 29  2  0  0  0  0
 14 15  2  0  0  0  0
 14 44  1  0  0  0  0
 15 16  1  0  0  0  0
 15 27  1  0  0  0  0
 16 17  1  0  0  0  0
 16 45  1  0  0  0  0
 17 18  2  0  0  0  0
 17 19  1  0  0  0  0
 19 20  1  0  0  0  0
 19 25  2  0  0  0  0
 20 21  1  0  0  0  0
 20 22  2  0  0  0  0
 22 23  1  0  0  0  0
 22 46  1  0  0  0  0
 23 24  2  0  0  0  0
 23 47  1  0  0  0  0
 24 25  1  0  0  0  0
 24 48  1  0  0  0  0
 25 26  1  0  0  0  0
 27 28  2  0  0  0  0
 27 49  1  0  0  0  0
 28 29  1  0  0  0  0
 28 50  1  0  0  0  0
 31 32  1  0  0  0  0
 31 51  1  0  0  0  0
 31 52  1  0  0  0  0
 32 53  1  0  0  0  0
 32 54  1  0  0  0  0
M  END
$$$$
