CHEMBL598852
 OpenBabel04072215383D

 70 72  0  0  0  0  0  0  0  0999 V2000
   16.5291    2.2779    0.2457 C   0  0  0  0  0  0  0  0  0  0  0  0
   15.6438    1.6352    1.2991 C   0  0  0  0  0  0  0  0  0  0  0  0
   14.1964    2.1012    1.1634 C   0  0  0  0  0  0  0  0  0  0  0  0
   13.3100    1.4460    2.2186 C   0  0  0  0  0  0  0  0  0  0  0  0
   11.8604    1.8992    2.0723 C   0  0  0  0  0  0  0  0  0  0  0  0
   10.9763    1.2398    3.1275 C   0  0  0  0  0  0  0  0  0  0  0  0
    9.5250    1.6811    2.9619 C   0  0  0  0  0  0  0  0  0  0  0  0
    8.6065    1.1170    4.0492 C   0  0  0  0  0  0  0  0  0  0  0  0
    8.9875    1.4842    5.4117 N   0  0  0  0  0  0  0  0  0  0  0  0
    8.9338    2.8324    5.7623 C   0  0  0  0  0  0  0  0  0  0  0  0
    8.6276    3.7325    4.9834 O   0  0  0  0  0  0  0  0  0  0  0  0
    9.2461    3.1829    7.1656 C   0  0  0  0  0  0  0  0  0  0  0  0
    9.2238    4.5295    7.5446 C   0  0  0  0  0  0  0  0  0  0  0  0
    9.4609    4.8803    8.8692 C   0  0  0  0  0  0  0  0  0  0  0  0
    9.7302    3.8830    9.8062 C   0  0  0  0  0  0  0  0  0  0  0  0
    9.7803    2.5146    9.4527 C   0  0  0  0  0  0  0  0  0  0  0  0
   10.0952    1.4794   10.3851 C   0  0  0  0  0  0  0  0  0  0  0  0
   10.3586    1.8082   11.7276 N   0  0  0  0  0  0  0  0  0  0  0  0
   11.0849    0.8380   12.5503 C   0  0  0  0  0  0  0  0  0  0  0  0
   11.5378    1.4795   13.8692 C   0  0  0  0  0  0  0  0  0  0  0  0
   10.3980    1.8365   14.7311 N   0  0  0  0  0  0  0  0  0  0  0  0
   10.9025    2.4708   15.9572 C   0  0  0  0  0  0  0  0  0  0  0  0
    9.7499    2.9141   16.8793 C   0  0  0  0  0  0  0  0  0  0  0  0
   10.2103    3.5195   18.1457 N   0  0  0  0  0  0  0  0  0  0  0  0
   10.9874    4.7405   17.9170 C   0  0  0  0  0  0  0  0  0  0  0  0
    9.0551    3.8241   18.9940 C   0  0  0  0  0  0  0  0  0  0  0  0
   10.1143    0.1510    9.9454 C   0  0  0  0  0  0  0  0  0  0  0  0
    9.8686   -0.1730    8.6164 C   0  0  0  0  0  0  0  0  0  0  0  0
    9.5807    0.8353    7.6980 C   0  0  0  0  0  0  0  0  0  0  0  0
    9.5324    2.1729    8.0943 C   0  0  0  0  0  0  0  0  0  0  0  0
    9.3138    0.4565    6.2932 C   0  0  0  0  0  0  0  0  0  0  0  0
    9.3786   -0.7283    5.9752 O   0  0  0  0  0  0  0  0  0  0  0  0
   17.5612    1.9319    0.3562 H   0  0  0  0  0  0  0  0  0  0  0  0
   16.5223    3.3684    0.3415 H   0  0  0  0  0  0  0  0  0  0  0  0
   16.1884    2.0192   -0.7620 H   0  0  0  0  0  0  0  0  0  0  0  0
   16.0243    1.8874    2.2958 H   0  0  0  0  0  0  0  0  0  0  0  0
   15.6945    0.5448    1.1983 H   0  0  0  0  0  0  0  0  0  0  0  0
   13.8211    1.8543    0.1627 H   0  0  0  0  0  0  0  0  0  0  0  0
   14.1477    3.1921    1.2667 H   0  0  0  0  0  0  0  0  0  0  0  0
   13.6767    1.7021    3.2203 H   0  0  0  0  0  0  0  0  0  0  0  0
   13.3643    0.3549    2.1227 H   0  0  0  0  0  0  0  0  0  0  0  0
   11.4913    1.6501    1.0700 H   0  0  0  0  0  0  0  0  0  0  0  0
   11.8043    2.9902    2.1753 H   0  0  0  0  0  0  0  0  0  0  0  0
   11.3476    1.5116    4.1224 H   0  0  0  0  0  0  0  0  0  0  0  0
   11.0398    0.1484    3.0436 H   0  0  0  0  0  0  0  0  0  0  0  0
    9.1512    1.3459    1.9867 H   0  0  0  0  0  0  0  0  0  0  0  0
    9.4759    2.7747    2.9450 H   0  0  0  0  0  0  0  0  0  0  0  0
    8.5616    0.0268    3.9407 H   0  0  0  0  0  0  0  0  0  0  0  0
    7.5902    1.4908    3.8844 H   0  0  0  0  0  0  0  0  0  0  0  0
    9.0165    5.3067    6.8111 H   0  0  0  0  0  0  0  0  0  0  0  0
    9.4352    5.9240    9.1666 H   0  0  0  0  0  0  0  0  0  0  0  0
    9.9187    4.1849   10.8383 H   0  0  0  0  0  0  0  0  0  0  0  0
    9.5207    2.1407   12.2074 H   0  0  0  0  0  0  0  0  0  0  0  0
   11.9818    0.4973   12.0191 H   0  0  0  0  0  0  0  0  0  0  0  0
   10.4541   -0.0319   12.7689 H   0  0  0  0  0  0  0  0  0  0  0  0
   12.1271    2.3763   13.6413 H   0  0  0  0  0  0  0  0  0  0  0  0
   12.1892    0.7699   14.3931 H   0  0  0  0  0  0  0  0  0  0  0  0
    9.8830    0.9919   14.9806 H   0  0  0  0  0  0  0  0  0  0  0  0
   11.4996    3.3422   15.6695 H   0  0  0  0  0  0  0  0  0  0  0  0
   11.5538    1.7738   16.4998 H   0  0  0  0  0  0  0  0  0  0  0  0
    9.1524    2.0233   17.1165 H   0  0  0  0  0  0  0  0  0  0  0  0
    9.0914    3.6059   16.3367 H   0  0  0  0  0  0  0  0  0  0  0  0
   11.9373    4.5170   17.4203 H   0  0  0  0  0  0  0  0  0  0  0  0
   11.2577    5.2118   18.8679 H   0  0  0  0  0  0  0  0  0  0  0  0
   10.4397    5.4718   17.3119 H   0  0  0  0  0  0  0  0  0  0  0  0
    8.4899    2.9129   19.2187 H   0  0  0  0  0  0  0  0  0  0  0  0
    8.3771    4.5457   18.5239 H   0  0  0  0  0  0  0  0  0  0  0  0
    9.3824    4.2338   19.9560 H   0  0  0  0  0  0  0  0  0  0  0  0
   10.3173   -0.6695   10.6266 H   0  0  0  0  0  0  0  0  0  0  0  0
    9.9033   -1.2160    8.3076 H   0  0  0  0  0  0  0  0  0  0  0  0
  1  2  1  0  0  0  0
  1 33  1  0  0  0  0
  1 34  1  0  0  0  0
  1 35  1  0  0  0  0
  2  3  1  0  0  0  0
  2 36  1  0  0  0  0
  2 37  1  0  0  0  0
  3  4  1  0  0  0  0
  3 38  1  0  0  0  0
  3 39  1  0  0  0  0
  4  5  1  0  0  0  0
  4 40  1  0  0  0  0
  4 41  1  0  0  0  0
  5  6  1  0  0  0  0
  5 42  1  0  0  0  0
  5 43  1  0  0  0  0
  6  7  1  0  0  0  0
  6 44  1  0  0  0  0
  6 45  1  0  0  0  0
  7  8  1  0  0  0  0
  7 46  1  0  0  0  0
  7 47  1  0  0  0  0
  8  9  1  0  0  0  0
  8 48  1  0  0  0  0
  8 49  1  0  0  0  0
  9 10  1  0  0  0  0
  9 31  1  0  0  0  0
 10 11  2  0  0  0  0
 10 12  1  0  0  0  0
 12 13  1  0  0  0  0
 12 30  2  0  0  0  0
 13 14  2  0  0  0  0
 13 50  1  0  0  0  0
 14 15  1  0  0  0  0
 14 51  1  0  0  0  0
 15 16  2  0  0  0  0
 15 52  1  0  0  0  0
 16 17  1  0  0  0  0
 16 30  1  0  0  0  0
 17 18  1  0  0  0  0
 17 27  2  0  0  0  0
 18 19  1  0  0  0  0
 18 53  1  0  0  0  0
 19 20  1  0  0  0  0
 19 54  1  0  0  0  0
 19 55  1  0  0  0  0
 20 21  1  0  0  0  0
 20 56  1  0  0  0  0
 20 57  1  0  0  0  0
 21 22  1  0  0  0  0
 21 58  1  0  0  0  0
 22 23  1  0  0  0  0
 22 59  1  0  0  0  0
 22 60  1  0  0  0  0
 23 24  1  0  0  0  0
 23 61  1  0  0  0  0
 23 62  1  0  0  0  0
 24 25  1  0  0  0  0
 24 26  1  0  0  0  0
 25 63  1  0  0  0  0
 25 64  1  0  0  0  0
 25 65  1  0  0  0  0
 26 66  1  0  0  0  0
 26 67  1  0  0  0  0
 26 68  1  0  0  0  0
 27 28  1  0  0  0  0
 27 69  1  0  0  0  0
 28 29  2  0  0  0  0
 28 70  1  0  0  0  0
 29 30  1  0  0  0  0
 29 31  1  0  0  0  0
 31 32  2  0  0  0  0
M  END
$$$$
