CHEMBL467132
 OpenBabel04072215383D

193195  0  0  1  0  0  0  0  0999 V2000
    6.2844   -4.2225    2.0792 C   0  0  0  0  0  0  0  0  0  0  0  0
    6.2698   -4.2256    0.5468 C   0  0  0  0  0  0  0  0  0  0  0  0
    7.3628   -5.1701    0.0373 C   0  0  0  0  0  0  0  0  0  0  0  0
    4.9032   -4.6772   -0.0196 C   0  0  0  0  0  0  0  0  0  0  0  0
    3.7632   -3.8689    0.4339 N   0  0  0  0  0  0  0  0  0  0  0  0
    3.7956   -2.3954    0.3061 C   0  0  0  0  0  0  0  0  0  0  0  0
    3.7159   -1.7992   -1.1080 C   0  0  0  0  0  0  0  0  0  0  0  0
    3.3371   -2.5136   -2.0456 O   0  0  0  0  0  0  0  0  0  0  0  0
    4.0908   -0.4547   -1.3113 N   0  0  0  0  0  0  0  0  0  0  0  0
    4.5137   -0.1433   -2.6993 C   0  0  0  0  0  0  0  0  0  0  0  0
    5.9921    0.2732   -2.8267 C   0  0  0  0  0  0  0  0  0  0  0  0
    6.3891    0.5467   -4.2831 C   0  0  0  0  0  0  0  0  0  0  0  0
    7.8188    1.0864   -4.3592 C   0  0  0  0  0  0  0  0  0  0  0  0
    8.1858    1.3931   -5.7339 N   0  0  0  0  0  0  0  0  0  0  0  0
    4.3538    0.5918   -0.2535 C   0  0  0  0  0  0  0  0  0  0  0  0
    3.2747    1.2393    0.7184 C   0  0  0  0  0  0  0  0  0  0  0  0
    2.2328    0.6297    0.9588 O   0  0  0  0  0  0  0  0  0  0  0  0
    3.5816    2.4428    1.3958 N   0  0  0  0  0  0  0  0  0  0  0  0
    2.7026    2.9062    2.5678 C   0  0  0  0  0  0  0  0  0  0  0  0
    1.4170    3.8785    2.7342 C   0  0  0  0  0  0  0  0  0  0  0  0
    1.6084    5.0831    2.9471 O   0  0  0  0  0  0  0  0  0  0  0  0
    0.1250    3.3366    2.8598 N   0  0  0  0  0  0  0  0  0  0  0  0
   -0.9071    4.0939    3.6607 C   0  0  0  0  0  0  0  0  0  0  0  0
   -1.8576    5.0549    2.8896 C   0  0  0  0  0  0  0  0  0  0  0  0
   -1.3863    5.8189    2.0436 O   0  0  0  0  0  0  0  0  0  0  0  0
   -3.2619    4.9748    3.1211 N   0  0  0  0  0  0  0  0  0  0  0  0
   -4.1051    5.6940    2.1330 C   0  0  0  0  0  0  0  0  0  0  0  0
   -3.8668    5.2261    0.6859 C   0  0  0  0  0  0  0  0  0  0  0  0
   -4.7872    5.8918   -0.3409 C   0  0  0  0  0  0  0  0  0  0  0  0
   -4.3521    5.4578   -1.7434 C   0  0  0  0  0  0  0  0  0  0  0  0
   -5.1954    6.0376   -2.7785 N   0  0  0  0  0  0  0  0  0  0  0  0
   -3.7636    4.8725    4.5262 C   0  0  0  0  0  0  0  0  0  0  0  0
   -5.2565    4.7887    4.9132 C   0  0  0  0  0  0  0  0  0  0  0  0
   -6.1551    4.8549    4.0838 O   0  0  0  0  0  0  0  0  0  0  0  0
   -5.5880    4.5179    6.2809 N   0  0  0  0  0  0  0  0  0  0  0  0
   -4.5879    4.5031    7.4799 C   0  0  0  0  0  0  0  0  0  0  0  0
   -4.7994    5.4078    8.7767 C   0  0  0  0  0  0  0  0  0  0  0  0
   -5.9104    5.9455    8.9104 O   0  0  0  0  0  0  0  0  0  0  0  0
   -3.8592    5.4658    9.8760 N   0  0  0  0  0  0  0  0  0  0  0  0
   -4.4965    5.6886   11.1788 C   0  0  0  0  0  0  0  0  0  0  0  0
   -5.1283    4.3846   11.6885 C   0  0  0  0  0  0  0  0  0  0  0  0
   -5.6830    4.5348   13.1036 C   0  0  0  0  0  0  0  0  0  0  0  0
   -6.2981    3.2244   13.5949 C   0  0  0  0  0  0  0  0  0  0  0  0
   -6.8340    3.3939   14.9384 N   0  0  0  0  0  0  0  0  0  0  0  0
   -2.3413    5.2381    9.9968 C   0  0  0  0  0  0  0  0  0  0  0  0
   -1.3418    6.4954   10.3173 C   0  0  0  0  0  0  0  0  0  0  0  0
   -1.3995    7.4108    9.4724 O   0  0  0  0  0  0  0  0  0  0  0  0
   -0.3284    6.6129   11.3451 N   0  0  0  0  0  0  0  0  0  0  0  0
   -0.4063    6.3364   12.8342 C   0  0  0  0  0  0  0  0  0  0  0  0
    0.8667    5.8440   13.6745 C   0  0  0  0  0  0  0  0  0  0  0  0
    2.2135    6.5978   13.9687 C   0  0  0  0  0  0  0  0  0  0  0  0
    2.2793    7.9718   14.6611 C   0  0  0  0  0  0  0  0  0  0  0  0
    1.5619    8.0627   15.9297 N   0  0  0  0  0  0  0  0  0  0  0  0
    0.6658    7.6711   11.0418 C   0  0  0  0  0  0  0  0  0  0  0  0
    0.3400    9.1576   11.3392 C   0  0  0  0  0  0  0  0  0  0  0  0
   -0.9575    9.5454   11.3221 N   0  0  0  0  0  0  0  0  0  0  0  0
    1.2276   10.0002   11.4690 O   0  0  0  0  0  0  0  0  0  0  0  0
   -6.9786    4.0332    6.4679 C   0  0  0  0  0  0  0  0  0  0  0  0
   -7.2457    2.6134    5.8518 C   0  0  0  0  0  0  0  0  0  0  0  0
   -6.3588    1.5485    6.4892 C   0  0  0  0  0  0  0  0  0  0  0  0
   -8.7197    2.1921    5.9660 C   0  0  0  0  0  0  0  0  0  0  0  0
   -0.3982    2.5997    1.7103 C   0  0  0  0  0  0  0  0  0  0  0  0
   -0.7830    1.1536    1.9159 C   0  0  0  0  0  0  0  0  0  0  0  0
   -0.9542    0.3599    0.7514 C   0  0  0  0  0  0  0  0  0  0  0  0
   -1.1949   -1.0151    0.8228 C   0  0  0  0  0  0  0  0  0  0  0  0
   -1.3375   -1.5634    2.0721 C   0  0  0  0  0  0  0  0  0  0  0  0
   -1.3088   -0.7849    3.2073 C   0  0  0  0  0  0  0  0  0  0  0  0
   -1.0029    0.5656    3.1652 C   0  0  0  0  0  0  0  0  0  0  0  0
   -1.4775   -1.5438    4.3332 O   0  0  0  0  0  0  0  0  0  0  0  0
   -1.1872   -2.8436    3.7769 C   0  0  0  0  0  0  0  0  0  0  0  0
   -1.4450   -2.8899    2.3627 O   0  0  0  0  0  0  0  0  0  0  0  0
    4.7679    3.2941    1.0963 C   0  0  3  0  0  0  0  0  0  0  0  0
    6.1928    2.6809    1.1520 C   0  0  0  0  0  0  0  0  0  0  0  0
    4.5538    4.2294   -0.0835 C   0  0  0  0  0  0  0  0  0  0  0  0
    3.5355    5.1867    0.0153 C   0  0  0  0  0  0  0  0  0  0  0  0
    3.6485    6.3991   -0.6481 C   0  0  0  0  0  0  0  0  0  0  0  0
    4.7798    6.6529   -1.4181 C   0  0  0  0  0  0  0  0  0  0  0  0
    5.6940    5.6348   -1.6704 C   0  0  0  0  0  0  0  0  0  0  0  0
    5.5406    4.3956   -1.0642 C   0  0  0  0  0  0  0  0  0  0  0  0
    2.6054   -4.6341    0.6955 C   0  0  0  0  0  0  0  0  0  0  0  0
    2.5571   -5.8547    0.5445 O   0  0  0  0  0  0  0  0  0  0  0  0
    1.4215   -3.9053    1.3242 C   0  0  0  0  0  0  0  0  0  0  0  0
    1.3314   -4.2182    2.7626 N   0  0  0  0  0  0  0  0  0  0  0  0
    2.4240   -3.8011    3.6434 C   0  0  0  0  0  0  0  0  0  0  0  0
    2.8563   -2.3185    3.7603 C   0  0  0  0  0  0  0  0  0  0  0  0
    1.8655   -1.2525    4.2555 C   0  0  0  0  0  0  0  0  0  0  0  0
    1.3913   -1.4517    5.7067 C   0  0  0  0  0  0  0  0  0  0  0  0
    0.3898   -0.5090    6.2200 N   0  0  0  0  0  0  0  0  0  0  0  0
    7.2094   -3.7660    2.4475 H   0  0  0  0  0  0  0  0  0  0  0  0
    6.2285   -5.2392    2.4846 H   0  0  0  0  0  0  0  0  0  0  0  0
    5.4521   -3.6503    2.4950 H   0  0  0  0  0  0  0  0  0  0  0  0
    6.5024   -3.2170    0.1907 H   0  0  0  0  0  0  0  0  0  0  0  0
    7.2468   -6.1782    0.4550 H   0  0  0  0  0  0  0  0  0  0  0  0
    8.3546   -4.8036    0.3222 H   0  0  0  0  0  0  0  0  0  0  0  0
    7.3341   -5.2564   -1.0540 H   0  0  0  0  0  0  0  0  0  0  0  0
    4.7741   -5.7137    0.2471 H   0  0  0  0  0  0  0  0  0  0  0  0
    4.9219   -4.6311   -1.1176 H   0  0  0  0  0  0  0  0  0  0  0  0
    4.7129   -2.0370    0.7765 H   0  0  0  0  0  0  0  0  0  0  0  0
    2.9552   -1.9124    0.8402 H   0  0  0  0  0  0  0  0  0  0  0  0
    3.8481    0.6298   -3.0919 H   0  0  0  0  0  0  0  0  0  0  0  0
    4.3909   -1.0257   -3.3386 H   0  0  0  0  0  0  0  0  0  0  0  0
    6.6387   -0.5107   -2.4119 H   0  0  0  0  0  0  0  0  0  0  0  0
    6.1880    1.1786   -2.2455 H   0  0  0  0  0  0  0  0  0  0  0  0
    5.6956    1.2756   -4.7212 H   0  0  0  0  0  0  0  0  0  0  0  0
    6.3038   -0.3756   -4.8718 H   0  0  0  0  0  0  0  0  0  0  0  0
    8.5221    0.3539   -3.9487 H   0  0  0  0  0  0  0  0  0  0  0  0
    7.9042    2.0009   -3.7621 H   0  0  0  0  0  0  0  0  0  0  0  0
    8.1311    0.5514   -6.3066 H   0  0  0  0  0  0  0  0  0  0  0  0
    9.1597    1.6942   -5.7684 H   0  0  0  0  0  0  0  0  0  0  0  0
    4.7396    1.4457   -0.8081 H   0  0  0  0  0  0  0  0  0  0  0  0
    5.1424    0.1791    0.3842 H   0  0  0  0  0  0  0  0  0  0  0  0
    3.4151    3.5063    3.1613 H   0  0  0  0  0  0  0  0  0  0  0  0
    2.5393    2.0443    3.2172 H   0  0  0  0  0  0  0  0  0  0  0  0
   -0.3969    4.7033    4.4171 H   0  0  0  0  0  0  0  0  0  0  0  0
   -1.4928    3.3402    4.1907 H   0  0  0  0  0  0  0  0  0  0  0  0
   -3.9390    6.7718    2.2417 H   0  0  0  0  0  0  0  0  0  0  0  0
   -5.1587    5.5011    2.3194 H   0  0  0  0  0  0  0  0  0  0  0  0
   -3.9964    4.1376    0.6357 H   0  0  0  0  0  0  0  0  0  0  0  0
   -2.8391    5.4271    0.3776 H   0  0  0  0  0  0  0  0  0  0  0  0
   -4.7266    6.9836   -0.2504 H   0  0  0  0  0  0  0  0  0  0  0  0
   -5.8294    5.6043   -0.1555 H   0  0  0  0  0  0  0  0  0  0  0  0
   -4.3853    4.3653   -1.8217 H   0  0  0  0  0  0  0  0  0  0  0  0
   -3.3161    5.7680   -1.9211 H   0  0  0  0  0  0  0  0  0  0  0  0
   -6.1603    5.7411   -2.6427 H   0  0  0  0  0  0  0  0  0  0  0  0
   -4.9080    5.6637   -3.6830 H   0  0  0  0  0  0  0  0  0  0  0  0
   -3.3428    5.7333    5.0675 H   0  0  0  0  0  0  0  0  0  0  0  0
   -3.3158    3.9572    4.9417 H   0  0  0  0  0  0  0  0  0  0  0  0
   -3.5881    4.7111    7.0989 H   0  0  0  0  0  0  0  0  0  0  0  0
   -4.6289    3.4692    7.8369 H   0  0  0  0  0  0  0  0  0  0  0  0
   -5.2561    6.4740   11.1092 H   0  0  0  0  0  0  0  0  0  0  0  0
   -3.7360    6.0402   11.8848 H   0  0  0  0  0  0  0  0  0  0  0  0
   -4.3815    3.5802   11.6731 H   0  0  0  0  0  0  0  0  0  0  0  0
   -5.9337    4.0677   11.0130 H   0  0  0  0  0  0  0  0  0  0  0  0
   -6.4383    5.3302   13.1180 H   0  0  0  0  0  0  0  0  0  0  0  0
   -4.8745    4.8405   13.7793 H   0  0  0  0  0  0  0  0  0  0  0  0
   -5.5423    2.4310   13.6026 H   0  0  0  0  0  0  0  0  0  0  0  0
   -7.1047    2.9085   12.9243 H   0  0  0  0  0  0  0  0  0  0  0  0
   -6.1009    3.7038   15.5741 H   0  0  0  0  0  0  0  0  0  0  0  0
   -7.1604    2.4951   15.2919 H   0  0  0  0  0  0  0  0  0  0  0  0
   -2.0365    4.8908    9.0011 H   0  0  0  0  0  0  0  0  0  0  0  0
   -2.1667    4.4196   10.6995 H   0  0  0  0  0  0  0  0  0  0  0  0
   -1.1943    5.5898   12.9786 H   0  0  0  0  0  0  0  0  0  0  0  0
   -0.7558    7.2597   13.3129 H   0  0  0  0  0  0  0  0  0  0  0  0
    1.1712    4.8770   13.2526 H   0  0  0  0  0  0  0  0  0  0  0  0
    0.4776    5.6064   14.6773 H   0  0  0  0  0  0  0  0  0  0  0  0
    2.8136    6.6589   13.0544 H   0  0  0  0  0  0  0  0  0  0  0  0
    2.8037    5.9224   14.6143 H   0  0  0  0  0  0  0  0  0  0  0  0
    1.9398    8.7592   13.9857 H   0  0  0  0  0  0  0  0  0  0  0  0
    3.3376    8.1995   14.8734 H   0  0  0  0  0  0  0  0  0  0  0  0
    1.1486    8.9972   15.9923 H   0  0  0  0  0  0  0  0  0  0  0  0
    2.2439    8.0703   16.6964 H   0  0  0  0  0  0  0  0  0  0  0  0
    0.9453    7.6013    9.9861 H   0  0  0  0  0  0  0  0  0  0  0  0
    1.5665    7.4489   11.6063 H   0  0  0  0  0  0  0  0  0  0  0  0
   -1.6078    9.0137   10.7506 H   0  0  0  0  0  0  0  0  0  0  0  0
   -1.0961   10.5526   11.2997 H   0  0  0  0  0  0  0  0  0  0  0  0
   -7.6566    4.7313    5.9514 H   0  0  0  0  0  0  0  0  0  0  0  0
   -7.2554    4.0576    7.5244 H   0  0  0  0  0  0  0  0  0  0  0  0
   -7.0199    2.6237    4.7780 H   0  0  0  0  0  0  0  0  0  0  0  0
   -6.4220    1.5895    7.5801 H   0  0  0  0  0  0  0  0  0  0  0  0
   -5.3160    1.6935    6.1923 H   0  0  0  0  0  0  0  0  0  0  0  0
   -6.6509    0.5420    6.1687 H   0  0  0  0  0  0  0  0  0  0  0  0
   -9.0397    2.1211    7.0098 H   0  0  0  0  0  0  0  0  0  0  0  0
   -8.8788    1.2075    5.5037 H   0  0  0  0  0  0  0  0  0  0  0  0
   -9.3781    2.8965    5.4469 H   0  0  0  0  0  0  0  0  0  0  0  0
    0.3416    2.6652    0.9056 H   0  0  0  0  0  0  0  0  0  0  0  0
   -1.2951    3.1152    1.3481 H   0  0  0  0  0  0  0  0  0  0  0  0
   -0.8474    0.8185   -0.2305 H   0  0  0  0  0  0  0  0  0  0  0  0
   -1.2252   -1.6282   -0.0698 H   0  0  0  0  0  0  0  0  0  0  0  0
   -0.8622    1.1263    4.0776 H   0  0  0  0  0  0  0  0  0  0  0  0
   -1.7223   -3.6412    4.2984 H   0  0  0  0  0  0  0  0  0  0  0  0
   -0.1341   -3.0263    3.9747 H   0  0  0  0  0  0  0  0  0  0  0  0
    4.8456    3.9994    1.9354 H   0  0  0  0  0  0  0  0  0  0  0  0
    6.4434    2.0236    0.3153 H   0  0  0  0  0  0  0  0  0  0  0  0
    6.3850    2.1419    2.0834 H   0  0  0  0  0  0  0  0  0  0  0  0
    6.9399    3.4908    1.1032 H   0  0  0  0  0  0  0  0  0  0  0  0
    2.7094    5.0622    0.7089 H   0  0  0  0  0  0  0  0  0  0  0  0
    2.8987    7.1674   -0.4881 H   0  0  0  0  0  0  0  0  0  0  0  0
    4.9518    7.6486   -1.8083 H   0  0  0  0  0  0  0  0  0  0  0  0
    6.5726    5.8251   -2.2801 H   0  0  0  0  0  0  0  0  0  0  0  0
    6.2852    3.6300   -1.2643 H   0  0  0  0  0  0  0  0  0  0  0  0
    0.5207   -4.3019    0.8328 H   0  0  0  0  0  0  0  0  0  0  0  0
    1.3723   -2.8407    1.1492 H   0  0  0  0  0  0  0  0  0  0  0  0
    1.2253   -5.2386    2.8256 H   0  0  0  0  0  0  0  0  0  0  0  0
    3.3119   -4.3912    3.3895 H   0  0  0  0  0  0  0  0  0  0  0  0
    2.1368   -4.1318    4.6474 H   0  0  0  0  0  0  0  0  0  0  0  0
    3.2244   -1.9832    2.7953 H   0  0  0  0  0  0  0  0  0  0  0  0
    3.7274   -2.2860    4.4236 H   0  0  0  0  0  0  0  0  0  0  0  0
    1.0582   -1.2158    3.5355 H   0  0  0  0  0  0  0  0  0  0  0  0
    2.3480   -0.2684    4.1798 H   0  0  0  0  0  0  0  0  0  0  0  0
    2.2590   -1.3535    6.3618 H   0  0  0  0  0  0  0  0  0  0  0  0
    0.9946   -2.4602    5.8418 H   0  0  0  0  0  0  0  0  0  0  0  0
    0.2087    0.2225    5.5398 H   0  0  0  0  0  0  0  0  0  0  0  0
   -0.5104   -0.9971    6.2876 H   0  0  0  0  0  0  0  0  0  0  0  0
  1  2  1  0  0  0  0
  1 89  1  0  0  0  0
  1 90  1  0  0  0  0
  1 91  1  0  0  0  0
  2  3  1  0  0  0  0
  2  4  1  0  0  0  0
  2 92  1  0  0  0  0
  3 93  1  0  0  0  0
  3 94  1  0  0  0  0
  3 95  1  0  0  0  0
  4  5  1  0  0  0  0
  4 96  1  0  0  0  0
  4 97  1  0  0  0  0
  5  6  1  0  0  0  0
  5 80  1  0  0  0  0
  6  7  1  0  0  0  0
  6 98  1  0  0  0  0
  6 99  1  0  0  0  0
  7  8  2  0  0  0  0
  7  9  1  0  0  0  0
  9 10  1  0  0  0  0
  9 15  1  0  0  0  0
 10 11  1  0  0  0  0
 10100  1  0  0  0  0
 10101  1  0  0  0  0
 11 12  1  0  0  0  0
 11102  1  0  0  0  0
 11103  1  0  0  0  0
 12 13  1  0  0  0  0
 12104  1  0  0  0  0
 12105  1  0  0  0  0
 13 14  1  0  0  0  0
 13106  1  0  0  0  0
 13107  1  0  0  0  0
 14108  1  0  0  0  0
 14109  1  0  0  0  0
 15 16  1  0  0  0  0
 15110  1  0  0  0  0
 15111  1  0  0  0  0
 16 17  2  0  0  0  0
 16 18  1  0  0  0  0
 18 19  1  0  0  0  0
 18 72  1  0  0  0  0
 19 20  1  0  0  0  0
 19112  1  0  0  0  0
 19113  1  0  0  0  0
 20 21  2  0  0  0  0
 20 22  1  0  0  0  0
 22 23  1  0  0  0  0
 22 62  1  0  0  0  0
 23 24  1  0  0  0  0
 23114  1  0  0  0  0
 23115  1  0  0  0  0
 24 25  2  0  0  0  0
 24 26  1  0  0  0  0
 26 27  1  0  0  0  0
 26 32  1  0  0  0  0
 27 28  1  0  0  0  0
 27116  1  0  0  0  0
 27117  1  0  0  0  0
 28 29  1  0  0  0  0
 28118  1  0  0  0  0
 28119  1  0  0  0  0
 29 30  1  0  0  0  0
 29120  1  0  0  0  0
 29121  1  0  0  0  0
 30 31  1  0  0  0  0
 30122  1  0  0  0  0
 30123  1  0  0  0  0
 31124  1  0  0  0  0
 31125  1  0  0  0  0
 32 33  1  0  0  0  0
 32126  1  0  0  0  0
 32127  1  0  0  0  0
 33 34  2  0  0  0  0
 33 35  1  0  0  0  0
 35 36  1  0  0  0  0
 35 58  1  0  0  0  0
 36 37  1  0  0  0  0
 36128  1  0  0  0  0
 36129  1  0  0  0  0
 37 38  2  0  0  0  0
 37 39  1  0  0  0  0
 39 40  1  0  0  0  0
 39 45  1  0  0  0  0
 40 41  1  0  0  0  0
 40130  1  0  0  0  0
 40131  1  0  0  0  0
 41 42  1  0  0  0  0
 41132  1  0  0  0  0
 41133  1  0  0  0  0
 42 43  1  0  0  0  0
 42134  1  0  0  0  0
 42135  1  0  0  0  0
 43 44  1  0  0  0  0
 43136  1  0  0  0  0
 43137  1  0  0  0  0
 44138  1  0  0  0  0
 44139  1  0  0  0  0
 45 46  1  0  0  0  0
 45140  1  0  0  0  0
 45141  1  0  0  0  0
 46 47  2  0  0  0  0
 46 48  1  0  0  0  0
 48 49  1  0  0  0  0
 48 54  1  0  0  0  0
 49 50  1  0  0  0  0
 49142  1  0  0  0  0
 49143  1  0  0  0  0
 50 51  1  0  0  0  0
 50144  1  0  0  0  0
 50145  1  0  0  0  0
 51 52  1  0  0  0  0
 51146  1  0  0  0  0
 51147  1  0  0  0  0
 52 53  1  0  0  0  0
 52148  1  0  0  0  0
 52149  1  0  0  0  0
 53150  1  0  0  0  0
 53151  1  0  0  0  0
 54 55  1  0  0  0  0
 54152  1  0  0  0  0
 54153  1  0  0  0  0
 55 56  1  0  0  0  0
 55 57  2  0  0  0  0
 56154  1  0  0  0  0
 56155  1  0  0  0  0
 58 59  1  0  0  0  0
 58156  1  0  0  0  0
 58157  1  0  0  0  0
 59 60  1  0  0  0  0
 59 61  1  0  0  0  0
 59158  1  0  0  0  0
 60159  1  0  0  0  0
 60160  1  0  0  0  0
 60161  1  0  0  0  0
 61162  1  0  0  0  0
 61163  1  0  0  0  0
 61164  1  0  0  0  0
 62 63  1  0  0  0  0
 62165  1  0  0  0  0
 62166  1  0  0  0  0
 63 64  1  0  0  0  0
 63 68  2  0  0  0  0
 64 65  2  0  0  0  0
 64167  1  0  0  0  0
 65 66  1  0  0  0  0
 65168  1  0  0  0  0
 66 67  2  0  0  0  0
 66 71  1  0  0  0  0
 67 68  1  0  0  0  0
 67 69  1  0  0  0  0
 68169  1  0  0  0  0
 69 70  1  0  0  0  0
 70 71  1  0  0  0  0
 70170  1  0  0  0  0
 70171  1  0  0  0  0
 72 73  1  0  0  0  0
 72 74  1  0  0  0  0
 72172  1  0  0  0  0
 73173  1  0  0  0  0
 73174  1  0  0  0  0
 73175  1  0  0  0  0
 74 75  1  0  0  0  0
 74 79  2  0  0  0  0
 75 76  2  0  0  0  0
 75176  1  0  0  0  0
 76 77  1  0  0  0  0
 76177  1  0  0  0  0
 77 78  2  0  0  0  0
 77178  1  0  0  0  0
 78 79  1  0  0  0  0
 78179  1  0  0  0  0
 79180  1  0  0  0  0
 80 81  2  0  0  0  0
 80 82  1  0  0  0  0
 82 83  1  0  0  0  0
 82181  1  0  0  0  0
 82182  1  0  0  0  0
 83 84  1  0  0  0  0
 83183  1  0  0  0  0
 84 85  1  0  0  0  0
 84184  1  0  0  0  0
 84185  1  0  0  0  0
 85 86  1  0  0  0  0
 85186  1  0  0  0  0
 85187  1  0  0  0  0
 86 87  1  0  0  0  0
 86188  1  0  0  0  0
 86189  1  0  0  0  0
 87 88  1  0  0  0  0
 87190  1  0  0  0  0
 87191  1  0  0  0  0
 88192  1  0  0  0  0
 88193  1  0  0  0  0
M  END
$$$$
