CHEMBL3656082
 OpenBabel04072215373D

 77 81  0  0  1  0  0  0  0  0999 V2000
    2.8203    7.2817    2.6445 C   0  0  0  0  0  0  0  0  0  0  0  0
    1.7036    6.2997    2.4295 C   0  0  0  0  0  0  0  0  0  0  0  0
    2.0020    5.0000    2.0093 C   0  0  0  0  0  0  0  0  0  0  0  0
    0.9805    4.0756    1.8373 C   0  0  0  0  0  0  0  0  0  0  0  0
   -0.3413    4.4448    2.0672 C   0  0  0  0  0  0  0  0  0  0  0  0
   -1.2389    3.4527    2.0131 F   0  0  0  0  0  0  0  0  0  0  0  0
   -0.6884    5.7555    2.4276 C   0  0  0  0  0  0  0  0  0  0  0  0
   -2.0256    6.2267    2.5934 N   0  0  0  0  0  0  0  0  0  0  0  0
   -3.1496    5.6205    2.0631 C   0  0  0  0  0  0  0  0  0  0  0  0
   -3.1430    4.6143    1.3553 O   0  0  0  0  0  0  0  0  0  0  0  0
   -4.3261    6.3097    2.3393 N   0  0  0  0  0  0  0  0  0  0  0  0
   -5.5545    5.7376    1.9091 C   0  0  0  0  0  0  0  0  0  0  0  0
   -5.8667    4.4140    2.2368 C   0  0  0  0  0  0  0  0  0  0  0  0
   -7.0059    3.8016    1.7117 C   0  0  0  0  0  0  0  0  0  0  0  0
   -7.8796    4.5270    0.9005 C   0  0  0  0  0  0  0  0  0  0  0  0
   -9.0279    4.0044    0.3425 O   0  0  0  0  0  0  0  0  0  0  0  0
   -9.7339    3.0377    1.0232 C   0  0  0  0  0  0  0  0  0  0  0  0
   -9.8739    3.0056    2.4079 C   0  0  0  0  0  0  0  0  0  0  0  0
  -10.5752    1.9519    2.9679 C   0  0  0  0  0  0  0  0  0  0  0  0
  -11.1747    0.9790    2.2491 N   0  0  0  0  0  0  0  0  0  0  0  0
  -11.0769    1.0652    0.9005 C   0  0  0  0  0  0  0  0  0  0  0  0
  -11.7638    0.0039    0.1726 C   0  0  0  0  0  0  0  0  0  0  0  0
  -11.9178   -0.2302   -1.1826 C   0  0  0  0  0  0  0  0  0  0  0  0
  -12.7072   -1.4051   -1.3703 C   0  0  0  0  0  0  0  0  0  0  0  0
  -13.1639   -2.0420   -2.6056 C   0  0  0  0  0  0  0  0  0  0  0  0
  -13.8919   -3.0303   -2.6064 O   0  0  0  0  0  0  0  0  0  0  0  0
  -12.7248   -1.4390   -3.7650 N   0  0  0  0  0  0  0  0  0  0  0  0
  -13.1112   -1.9060   -5.0755 C   0  0  0  0  0  0  0  0  0  0  0  0
  -14.4258   -1.2818   -5.5546 C   0  0  0  0  0  0  0  0  0  0  0  0
  -14.3856    0.2456   -5.6602 C   0  0  0  0  0  0  0  0  0  0  0  0
  -13.3332    0.6899   -6.6563 C   0  0  0  0  0  0  0  0  0  0  0  0
  -12.1824    0.9162   -6.2796 O   0  0  0  0  0  0  0  0  0  0  0  0
  -13.6901    0.7227   -7.9839 N   0  0  0  0  0  0  0  0  0  0  0  0
  -12.7024    0.9760   -9.0215 C   0  0  0  0  0  0  0  0  0  0  0  0
  -13.5001    1.1400  -10.3121 C   0  0  0  0  0  0  0  0  0  0  0  0
  -14.8143    0.4227  -10.0223 C   0  0  1  0  0  0  0  0  0  0  0  0
  -14.6692   -0.9778  -10.2578 O   0  0  0  0  0  0  0  0  0  0  0  0
  -15.0399    0.6920   -8.5369 C   0  0  0  0  0  0  0  0  0  0  0  0
  -12.9927   -1.8653   -0.0956 C   0  0  0  0  0  0  0  0  0  0  0  0
  -12.4234   -1.0201    0.8182 N   0  0  0  0  0  0  0  0  0  0  0  0
  -10.3769    2.0764    0.2540 C   0  0  0  0  0  0  0  0  0  0  0  0
   -7.5661    5.8486    0.5659 C   0  0  0  0  0  0  0  0  0  0  0  0
   -6.4184    6.4642    1.0888 C   0  0  0  0  0  0  0  0  0  0  0  0
    0.3586    6.6726    2.6388 C   0  0  0  0  0  0  0  0  0  0  0  0
    3.7960    6.8198    2.4530 H   0  0  0  0  0  0  0  0  0  0  0  0
    2.8212    7.6345    3.6798 H   0  0  0  0  0  0  0  0  0  0  0  0
    2.7175    8.1323    1.9646 H   0  0  0  0  0  0  0  0  0  0  0  0
    3.0298    4.6909    1.8308 H   0  0  0  0  0  0  0  0  0  0  0  0
    1.1983    3.0536    1.5419 H   0  0  0  0  0  0  0  0  0  0  0  0
   -2.1494    7.1331    3.0102 H   0  0  0  0  0  0  0  0  0  0  0  0
   -4.2483    7.3098    2.2394 H   0  0  0  0  0  0  0  0  0  0  0  0
   -5.2076    3.8350    2.8796 H   0  0  0  0  0  0  0  0  0  0  0  0
   -7.1820    2.7540    1.9385 H   0  0  0  0  0  0  0  0  0  0  0  0
   -9.4307    3.7610    3.0461 H   0  0  0  0  0  0  0  0  0  0  0  0
  -10.6655    1.8593    4.0457 H   0  0  0  0  0  0  0  0  0  0  0  0
  -11.5080    0.3985   -1.9613 H   0  0  0  0  0  0  0  0  0  0  0  0
  -12.1450   -0.6133   -3.7170 H   0  0  0  0  0  0  0  0  0  0  0  0
  -13.2155   -2.9959   -5.0484 H   0  0  0  0  0  0  0  0  0  0  0  0
  -12.2888   -1.6776   -5.7597 H   0  0  0  0  0  0  0  0  0  0  0  0
  -15.2334   -1.5620   -4.8678 H   0  0  0  0  0  0  0  0  0  0  0  0
  -14.6723   -1.7147   -6.5313 H   0  0  0  0  0  0  0  0  0  0  0  0
  -14.1600    0.7053   -4.6912 H   0  0  0  0  0  0  0  0  0  0  0  0
  -15.3691    0.6306   -5.9468 H   0  0  0  0  0  0  0  0  0  0  0  0
  -12.0342    0.1087   -9.0685 H   0  0  0  0  0  0  0  0  0  0  0  0
  -12.1078    1.8636   -8.7838 H   0  0  0  0  0  0  0  0  0  0  0  0
  -12.9611    0.7286  -11.1709 H   0  0  0  0  0  0  0  0  0  0  0  0
  -13.6887    2.2049  -10.4908 H   0  0  0  0  0  0  0  0  0  0  0  0
  -15.6389    0.7827  -10.6433 H   0  0  0  0  0  0  0  0  0  0  0  0
  -14.0625   -1.3312   -9.5821 H   0  0  0  0  0  0  0  0  0  0  0  0
  -15.6492   -0.0729   -8.0513 H   0  0  0  0  0  0  0  0  0  0  0  0
  -15.4782    1.6826   -8.3715 H   0  0  0  0  0  0  0  0  0  0  0  0
  -13.5604   -2.7291    0.2275 H   0  0  0  0  0  0  0  0  0  0  0  0
  -12.4686   -1.1042    1.8263 H   0  0  0  0  0  0  0  0  0  0  0  0
  -10.3184    2.1184   -0.8290 H   0  0  0  0  0  0  0  0  0  0  0  0
   -8.2038    6.3936   -0.1263 H   0  0  0  0  0  0  0  0  0  0  0  0
   -6.1790    7.4774    0.7808 H   0  0  0  0  0  0  0  0  0  0  0  0
    0.1400    7.6929    2.9419 H   0  0  0  0  0  0  0  0  0  0  0  0
  1  2  1  0  0  0  0
  1 45  1  0  0  0  0
  1 46  1  0  0  0  0
  1 47  1  0  0  0  0
  2  3  1  0  0  0  0
  2 44  2  0  0  0  0
  3  4  2  0  0  0  0
  3 48  1  0  0  0  0
  4  5  1  0  0  0  0
  4 49  1  0  0  0  0
  5  6  1  0  0  0  0
  5  7  2  0  0  0  0
  7  8  1  0  0  0  0
  7 44  1  0  0  0  0
  8  9  1  0  0  0  0
  8 50  1  0  0  0  0
  9 10  2  0  0  0  0
  9 11  1  0  0  0  0
 11 12  1  0  0  0  0
 11 51  1  0  0  0  0
 12 13  1  0  0  0  0
 12 43  2  0  0  0  0
 13 14  2  0  0  0  0
 13 52  1  0  0  0  0
 14 15  1  0  0  0  0
 14 53  1  0  0  0  0
 15 16  1  0  0  0  0
 15 42  2  0  0  0  0
 16 17  1  0  0  0  0
 17 18  1  0  0  0  0
 17 41  2  0  0  0  0
 18 19  2  0  0  0  0
 18 54  1  0  0  0  0
 19 20  1  0  0  0  0
 19 55  1  0  0  0  0
 20 21  2  0  0  0  0
 21 22  1  0  0  0  0
 21 41  1  0  0  0  0
 22 23  2  0  0  0  0
 22 40  1  0  0  0  0
 23 24  1  0  0  0  0
 23 56  1  0  0  0  0
 24 25  1  0  0  0  0
 24 39  2  0  0  0  0
 25 26  2  0  0  0  0
 25 27  1  0  0  0  0
 27 28  1  0  0  0  0
 27 57  1  0  0  0  0
 28 29  1  0  0  0  0
 28 58  1  0  0  0  0
 28 59  1  0  0  0  0
 29 30  1  0  0  0  0
 29 60  1  0  0  0  0
 29 61  1  0  0  0  0
 30 31  1  0  0  0  0
 30 62  1  0  0  0  0
 30 63  1  0  0  0  0
 31 32  2  0  0  0  0
 31 33  1  0  0  0  0
 33 34  1  0  0  0  0
 33 38  1  0  0  0  0
 34 35  1  0  0  0  0
 34 64  1  0  0  0  0
 34 65  1  0  0  0  0
 35 36  1  0  0  0  0
 35 66  1  0  0  0  0
 35 67  1  0  0  0  0
 36 37  1  0  0  0  0
 36 38  1  0  0  0  0
 36 68  1  6  0  0  0
 37 69  1  0  0  0  0
 38 70  1  0  0  0  0
 38 71  1  0  0  0  0
 39 40  1  0  0  0  0
 39 72  1  0  0  0  0
 40 73  1  0  0  0  0
 41 74  1  0  0  0  0
 42 43  1  0  0  0  0
 42 75  1  0  0  0  0
 43 76  1  0  0  0  0
 44 77  1  0  0  0  0
M  END
$$$$
