CHEMBL4473820
 OpenBabel04072215383D

 51 54  0  0  0  0  0  0  0  0999 V2000
    1.7080    0.1275    2.7280 C   0  0  0  0  0  0  0  0  0  0  0  0
    2.1930    0.8718    1.5611 N   0  0  0  0  0  0  0  0  0  0  0  0
    3.1435    0.0389    0.8109 C   0  0  0  0  0  0  0  0  0  0  0  0
    3.6326    0.7495   -0.4486 C   0  0  0  0  0  0  0  0  0  0  0  0
    2.4574    1.1098   -1.3644 C   0  0  0  0  0  0  0  0  0  0  0  0
    1.7528   -0.0923   -1.8535 N   0  0  0  0  0  0  0  0  0  0  0  0
    2.4408   -1.0581   -2.5874 C   0  0  0  0  0  0  0  0  0  0  0  0
    1.9889   -2.3825   -2.5161 C   0  0  0  0  0  0  0  0  0  0  0  0
    2.6368   -3.3983   -3.2185 C   0  0  0  0  0  0  0  0  0  0  0  0
    3.7368   -3.0874   -4.0235 C   0  0  0  0  0  0  0  0  0  0  0  0
    4.4305   -4.1792   -4.7316 C   0  0  0  0  0  0  0  0  0  0  0  0
    3.8541   -5.2049   -5.0515 O   0  0  0  0  0  0  0  0  0  0  0  0
    5.8456   -4.0039   -4.9481 N   0  0  0  0  0  0  0  0  0  0  0  0
    6.6087   -4.9382   -5.6339 C   0  0  0  0  0  0  0  0  0  0  0  0
    6.1732   -5.9580   -6.4414 C   0  0  0  0  0  0  0  0  0  0  0  0
    7.3348   -6.6669   -6.8157 C   0  0  0  0  0  0  0  0  0  0  0  0
    7.3549   -7.9179   -7.6356 C   0  0  0  0  0  0  0  0  0  0  0  0
    8.4923   -8.6484   -7.9150 C   0  0  0  0  0  0  0  0  0  0  0  0
    8.1995   -9.8114   -8.6866 C   0  0  0  0  0  0  0  0  0  0  0  0
    9.1667  -10.7765   -9.1088 C   0  0  0  0  0  0  0  0  0  0  0  0
    9.9436  -11.5660   -9.4482 N   0  0  0  0  0  0  0  0  0  0  0  0
    6.8622   -9.9161   -8.9862 C   0  0  0  0  0  0  0  0  0  0  0  0
    5.9577   -8.6289   -8.3219 S   0  0  0  0  0  0  0  0  0  0  0  0
    8.4405   -6.0927   -6.3239 N   0  0  0  0  0  0  0  0  0  0  0  0
    7.9773   -5.0306   -5.6417 N   0  0  0  0  0  0  0  0  0  0  0  0
    4.1511   -1.7619   -4.1640 C   0  0  0  0  0  0  0  0  0  0  0  0
    3.4945   -0.7568   -3.4530 C   0  0  0  0  0  0  0  0  0  0  0  0
    1.4822    1.9762   -0.5640 C   0  0  0  0  0  0  0  0  0  0  0  0
    1.0501    1.2848    0.7309 C   0  0  0  0  0  0  0  0  0  0  0  0
    2.5435   -0.1804    3.3660 H   0  0  0  0  0  0  0  0  0  0  0  0
    1.1511   -0.7722    2.4379 H   0  0  0  0  0  0  0  0  0  0  0  0
    1.0526    0.7557    3.3398 H   0  0  0  0  0  0  0  0  0  0  0  0
    2.6989   -0.9295    0.5467 H   0  0  0  0  0  0  0  0  0  0  0  0
    4.0166   -0.1745    1.4398 H   0  0  0  0  0  0  0  0  0  0  0  0
    4.3695    0.1204   -0.9585 H   0  0  0  0  0  0  0  0  0  0  0  0
    4.1636    1.6686   -0.1656 H   0  0  0  0  0  0  0  0  0  0  0  0
    2.8110    1.6993   -2.2186 H   0  0  0  0  0  0  0  0  0  0  0  0
    0.8780    0.1427   -2.3245 H   0  0  0  0  0  0  0  0  0  0  0  0
    1.1450   -2.6307   -1.8741 H   0  0  0  0  0  0  0  0  0  0  0  0
    2.2851   -4.4239   -3.1207 H   0  0  0  0  0  0  0  0  0  0  0  0
    6.3178   -3.2277   -4.5041 H   0  0  0  0  0  0  0  0  0  0  0  0
    5.1558   -6.2006   -6.7100 H   0  0  0  0  0  0  0  0  0  0  0  0
    9.4798   -8.3688   -7.5644 H   0  0  0  0  0  0  0  0  0  0  0  0
    6.3584  -10.6886   -9.5582 H   0  0  0  0  0  0  0  0  0  0  0  0
    8.6530   -4.4416   -5.1690 H   0  0  0  0  0  0  0  0  0  0  0  0
    4.9538   -1.4777   -4.8380 H   0  0  0  0  0  0  0  0  0  0  0  0
    3.8230    0.2702   -3.5867 H   0  0  0  0  0  0  0  0  0  0  0  0
    0.5977    2.2157   -1.1662 H   0  0  0  0  0  0  0  0  0  0  0  0
    1.9673    2.9311   -0.3207 H   0  0  0  0  0  0  0  0  0  0  0  0
    0.4126    0.4252    0.4863 H   0  0  0  0  0  0  0  0  0  0  0  0
    0.4314    1.9904    1.2988 H   0  0  0  0  0  0  0  0  0  0  0  0
  1  2  1  0  0  0  0
  1 30  1  0  0  0  0
  1 31  1  0  0  0  0
  1 32  1  0  0  0  0
  2  3  1  0  0  0  0
  2 29  1  0  0  0  0
  3  4  1  0  0  0  0
  3 33  1  0  0  0  0
  3 34  1  0  0  0  0
  4  5  1  0  0  0  0
  4 35  1  0  0  0  0
  4 36  1  0  0  0  0
  5  6  1  0  0  0  0
  5 28  1  0  0  0  0
  5 37  1  0  0  0  0
  6  7  1  0  0  0  0
  6 38  1  0  0  0  0
  7  8  1  0  0  0  0
  7 27  2  0  0  0  0
  8  9  2  0  0  0  0
  8 39  1  0  0  0  0
  9 10  1  0  0  0  0
  9 40  1  0  0  0  0
 10 11  1  0  0  0  0
 10 26  2  0  0  0  0
 11 12  2  0  0  0  0
 11 13  1  0  0  0  0
 13 14  1  0  0  0  0
 13 41  1  0  0  0  0
 14 15  2  0  0  0  0
 14 25  1  0  0  0  0
 15 16  1  0  0  0  0
 15 42  1  0  0  0  0
 16 17  1  0  0  0  0
 16 24  2  0  0  0  0
 17 18  2  0  0  0  0
 17 23  1  0  0  0  0
 18 19  1  0  0  0  0
 18 43  1  0  0  0  0
 19 20  1  0  0  0  0
 19 22  2  0  0  0  0
 20 21  3  0  0  0  0
 22 23  1  0  0  0  0
 22 44  1  0  0  0  0
 24 25  1  0  0  0  0
 25 45  1  0  0  0  0
 26 27  1  0  0  0  0
 26 46  1  0  0  0  0
 27 47  1  0  0  0  0
 28 29  1  0  0  0  0
 28 48  1  0  0  0  0
 28 49  1  0  0  0  0
 29 50  1  0  0  0  0
 29 51  1  0  0  0  0
M  END
$$$$
