CHEMBL593274
 OpenBabel04072215383D

 71 76  0  0  0  0  0  0  0  0999 V2000
    2.7638    0.8914    0.8433 C   0  0  0  0  0  0  0  0  0  0  0  0
    2.6028    0.0219   -0.2707 O   0  0  0  0  0  0  0  0  0  0  0  0
    3.2596   -1.1763   -0.2869 C   0  0  0  0  0  0  0  0  0  0  0  0
    4.3876   -1.3897    0.4897 C   0  0  0  0  0  0  0  0  0  0  0  0
    5.0039   -2.6504    0.5442 C   0  0  0  0  0  0  0  0  0  0  0  0
    6.0849   -2.9240    1.3879 C   0  0  0  0  0  0  0  0  0  0  0  0
    6.5017   -1.9264    2.3099 N   0  0  0  0  0  0  0  0  0  0  0  0
    7.7641   -1.9042    2.9258 C   0  0  0  0  0  0  0  0  0  0  0  0
    8.9119   -2.1274    2.1682 C   0  0  0  0  0  0  0  0  0  0  0  0
   10.1647   -2.2025    2.7741 C   0  0  0  0  0  0  0  0  0  0  0  0
   10.3100   -2.0289    4.1592 C   0  0  0  0  0  0  0  0  0  0  0  0
   11.6351   -2.2263    4.7737 C   0  0  0  0  0  0  0  0  0  0  0  0
   11.8458   -2.8215    5.9286 N   0  0  0  0  0  0  0  0  0  0  0  0
   13.1997   -2.9360    6.1770 C   0  0  0  0  0  0  0  0  0  0  0  0
   13.7809   -3.5287    7.3139 C   0  0  0  0  0  0  0  0  0  0  0  0
   15.1731   -3.6143    7.4169 C   0  0  0  0  0  0  0  0  0  0  0  0
   15.9859   -3.1180    6.4023 C   0  0  0  0  0  0  0  0  0  0  0  0
   15.4328   -2.5108    5.2713 C   0  0  0  0  0  0  0  0  0  0  0  0
   14.0344   -2.4240    5.1847 C   0  0  0  0  0  0  0  0  0  0  0  0
   13.0677   -1.7235    3.9523 S   0  0  0  0  0  0  0  0  0  0  0  0
    9.1551   -1.7465    4.9129 C   0  0  0  0  0  0  0  0  0  0  0  0
    9.1845   -1.4521    6.6197 Cl  0  0  0  0  0  0  0  0  0  0  0  0
    7.8948   -1.6744    4.2954 C   0  0  0  0  0  0  0  0  0  0  0  0
    6.7094   -4.1139    1.3694 N   0  0  0  0  0  0  0  0  0  0  0  0
    6.2272   -5.0363    0.5366 C   0  0  0  0  0  0  0  0  0  0  0  0
    5.1699   -4.8892   -0.2788 N   0  0  0  0  0  0  0  0  0  0  0  0
    4.5668   -3.6960   -0.2690 C   0  0  0  0  0  0  0  0  0  0  0  0
    3.4762   -3.4569   -1.0959 C   0  0  0  0  0  0  0  0  0  0  0  0
    2.8157   -2.2166   -1.1226 C   0  0  0  0  0  0  0  0  0  0  0  0
    1.7714   -2.1881   -2.0186 O   0  0  0  0  0  0  0  0  0  0  0  0
    1.1423   -0.9247   -2.1876 C   0  0  0  0  0  0  0  0  0  0  0  0
    0.0863   -0.9793   -3.2720 C   0  0  0  0  0  0  0  0  0  0  0  0
   -0.5795    0.3999   -3.3539 C   0  0  0  0  0  0  0  0  0  0  0  0
   -1.5988    0.4767   -4.3956 N   0  0  0  0  0  0  0  0  0  0  0  0
   -2.7154   -0.4554   -4.1643 C   0  0  0  0  0  0  0  0  0  0  0  0
   -3.7334   -0.3784   -5.3181 C   0  0  0  0  0  0  0  0  0  0  0  0
   -4.3057    0.9632   -5.5382 N   0  0  0  0  0  0  0  0  0  0  0  0
   -5.2544    1.3121   -4.4850 C   0  0  0  0  0  0  0  0  0  0  0  0
   -3.2051    1.9472   -5.6325 C   0  0  0  0  0  0  0  0  0  0  0  0
   -2.1310    1.8504   -4.5200 C   0  0  0  0  0  0  0  0  0  0  0  0
    3.4310    1.7102    0.5595 H   0  0  0  0  0  0  0  0  0  0  0  0
    3.1240    0.4025    1.7533 H   0  0  0  0  0  0  0  0  0  0  0  0
    1.7820    1.3102    1.0819 H   0  0  0  0  0  0  0  0  0  0  0  0
    4.8308   -0.5688    1.0444 H   0  0  0  0  0  0  0  0  0  0  0  0
    5.7382   -1.7093    2.9405 H   0  0  0  0  0  0  0  0  0  0  0  0
    8.8343   -2.2811    1.0950 H   0  0  0  0  0  0  0  0  0  0  0  0
   11.0098   -2.4385    2.1369 H   0  0  0  0  0  0  0  0  0  0  0  0
   13.1389   -3.9191    8.0974 H   0  0  0  0  0  0  0  0  0  0  0  0
   15.6174   -4.0757    8.2944 H   0  0  0  0  0  0  0  0  0  0  0  0
   17.0673   -3.2001    6.4902 H   0  0  0  0  0  0  0  0  0  0  0  0
   16.0666   -2.1217    4.4807 H   0  0  0  0  0  0  0  0  0  0  0  0
    7.0142   -1.4779    4.9010 H   0  0  0  0  0  0  0  0  0  0  0  0
    6.7321   -5.9930    0.5149 H   0  0  0  0  0  0  0  0  0  0  0  0
    3.1267   -4.2598   -1.7421 H   0  0  0  0  0  0  0  0  0  0  0  0
    1.8833   -0.1721   -2.4847 H   0  0  0  0  0  0  0  0  0  0  0  0
    0.6341   -0.6534   -1.2553 H   0  0  0  0  0  0  0  0  0  0  0  0
   -0.6258   -1.7708   -3.0161 H   0  0  0  0  0  0  0  0  0  0  0  0
    0.5364   -1.2592   -4.2319 H   0  0  0  0  0  0  0  0  0  0  0  0
    0.2045    1.1379   -3.5753 H   0  0  0  0  0  0  0  0  0  0  0  0
   -0.9997    0.6720   -2.3762 H   0  0  0  0  0  0  0  0  0  0  0  0
   -3.2023   -0.2491   -3.2024 H   0  0  0  0  0  0  0  0  0  0  0  0
   -2.3610   -1.4885   -4.1303 H   0  0  0  0  0  0  0  0  0  0  0  0
   -4.5305   -1.1136   -5.1516 H   0  0  0  0  0  0  0  0  0  0  0  0
   -3.2310   -0.6945   -6.2424 H   0  0  0  0  0  0  0  0  0  0  0  0
   -6.0343    0.5464   -4.4050 H   0  0  0  0  0  0  0  0  0  0  0  0
   -5.7625    2.2500   -4.7338 H   0  0  0  0  0  0  0  0  0  0  0  0
   -4.7915    1.4262   -3.4999 H   0  0  0  0  0  0  0  0  0  0  0  0
   -3.6107    2.9659   -5.6658 H   0  0  0  0  0  0  0  0  0  0  0  0
   -2.7053    1.7969   -6.5990 H   0  0  0  0  0  0  0  0  0  0  0  0
   -2.5563    2.1889   -3.5662 H   0  0  0  0  0  0  0  0  0  0  0  0
   -1.3172    2.5411   -4.7706 H   0  0  0  0  0  0  0  0  0  0  0  0
  1  2  1  0  0  0  0
  1 41  1  0  0  0  0
  1 42  1  0  0  0  0
  1 43  1  0  0  0  0
  2  3  1  0  0  0  0
  3  4  1  0  0  0  0
  3 29  2  0  0  0  0
  4  5  2  0  0  0  0
  4 44  1  0  0  0  0
  5  6  1  0  0  0  0
  5 27  1  0  0  0  0
  6  7  1  0  0  0  0
  6 24  2  0  0  0  0
  7  8  1  0  0  0  0
  7 45  1  0  0  0  0
  8  9  1  0  0  0  0
  8 23  2  0  0  0  0
  9 10  2  0  0  0  0
  9 46  1  0  0  0  0
 10 11  1  0  0  0  0
 10 47  1  0  0  0  0
 11 12  1  0  0  0  0
 11 21  2  0  0  0  0
 12 13  2  0  0  0  0
 12 20  1  0  0  0  0
 13 14  1  0  0  0  0
 14 15  1  0  0  0  0
 14 19  2  0  0  0  0
 15 16  2  0  0  0  0
 15 48  1  0  0  0  0
 16 17  1  0  0  0  0
 16 49  1  0  0  0  0
 17 18  2  0  0  0  0
 17 50  1  0  0  0  0
 18 19  1  0  0  0  0
 18 51  1  0  0  0  0
 19 20  1  0  0  0  0
 21 22  1  0  0  0  0
 21 23  1  0  0  0  0
 23 52  1  0  0  0  0
 24 25  1  0  0  0  0
 25 26  2  0  0  0  0
 25 53  1  0  0  0  0
 26 27  1  0  0  0  0
 27 28  2  0  0  0  0
 28 29  1  0  0  0  0
 28 54  1  0  0  0  0
 29 30  1  0  0  0  0
 30 31  1  0  0  0  0
 31 32  1  0  0  0  0
 31 55  1  0  0  0  0
 31 56  1  0  0  0  0
 32 33  1  0  0  0  0
 32 57  1  0  0  0  0
 32 58  1  0  0  0  0
 33 34  1  0  0  0  0
 33 59  1  0  0  0  0
 33 60  1  0  0  0  0
 34 35  1  0  0  0  0
 34 40  1  0  0  0  0
 35 36  1  0  0  0  0
 35 61  1  0  0  0  0
 35 62  1  0  0  0  0
 36 37  1  0  0  0  0
 36 63  1  0  0  0  0
 36 64  1  0  0  0  0
 37 38  1  0  0  0  0
 37 39  1  0  0  0  0
 38 65  1  0  0  0  0
 38 66  1  0  0  0  0
 38 67  1  0  0  0  0
 39 40  1  0  0  0  0
 39 68  1  0  0  0  0
 39 69  1  0  0  0  0
 40 70  1  0  0  0  0
 40 71  1  0  0  0  0
M  END
$$$$
