CHEMBL519213
 OpenBabel04072215383D

 46 49  0  0  0  0  0  0  0  0999 V2000
    1.0453    0.4390    0.6924 C   0  0  0  0  0  0  0  0  0  0  0  0
    2.4747    0.4237    0.6657 O   0  0  0  0  0  0  0  0  0  0  0  0
    3.0091   -0.8108    0.8309 C   0  0  0  0  0  0  0  0  0  0  0  0
    2.3797   -1.8501    0.9583 O   0  0  0  0  0  0  0  0  0  0  0  0
    4.4955   -0.7511    0.8899 C   0  0  0  0  0  0  0  0  0  0  0  0
    5.2247    0.4472    0.7164 C   0  0  0  0  0  0  0  0  0  0  0  0
    6.6269    0.4678    0.8295 C   0  0  0  0  0  0  0  0  0  0  0  0
    7.2881   -0.7121    1.1271 C   0  0  0  0  0  0  0  0  0  0  0  0
    6.5471   -1.8908    1.2861 C   0  0  0  0  0  0  0  0  0  0  0  0
    5.1728   -1.9448    1.1661 C   0  0  0  0  0  0  0  0  0  0  0  0
    7.3748   -2.9595    1.6060 N   0  0  0  0  0  0  0  0  0  0  0  0
    8.6934   -2.5602    1.7030 C   0  0  0  0  0  0  0  0  0  0  0  0
    9.6280   -3.2272    2.1093 O   0  0  0  0  0  0  0  0  0  0  0  0
    8.6995   -1.1017    1.3158 C   0  0  0  0  0  0  0  0  0  0  0  0
    9.8678   -0.4319    1.1928 C   0  0  0  0  0  0  0  0  0  0  0  0
   11.1424   -0.9947    1.3043 N   0  0  0  0  0  0  0  0  0  0  0  0
   11.7852   -1.6382    0.1950 C   0  0  0  0  0  0  0  0  0  0  0  0
   11.3098   -1.5810   -1.1215 C   0  0  0  0  0  0  0  0  0  0  0  0
   11.9727   -2.2528   -2.1543 C   0  0  0  0  0  0  0  0  0  0  0  0
   13.1314   -2.9764   -1.8880 C   0  0  0  0  0  0  0  0  0  0  0  0
   13.6397   -3.0120   -0.5925 C   0  0  0  0  0  0  0  0  0  0  0  0
   12.9765   -2.3391    0.4379 C   0  0  0  0  0  0  0  0  0  0  0  0
    9.8886    1.0427    1.0960 C   0  0  0  0  0  0  0  0  0  0  0  0
    9.9306    1.7853    2.2885 C   0  0  0  0  0  0  0  0  0  0  0  0
    9.9947    3.1772    2.2591 C   0  0  0  0  0  0  0  0  0  0  0  0
   10.0183    3.8429    1.0358 C   0  0  0  0  0  0  0  0  0  0  0  0
    9.9731    3.1178   -0.1540 C   0  0  0  0  0  0  0  0  0  0  0  0
    9.9085    1.7219   -0.1264 C   0  0  0  0  0  0  0  0  0  0  0  0
    0.7094    1.4397    0.4075 H   0  0  0  0  0  0  0  0  0  0  0  0
    0.6889    0.2293    1.7070 H   0  0  0  0  0  0  0  0  0  0  0  0
    0.6276   -0.2799   -0.0188 H   0  0  0  0  0  0  0  0  0  0  0  0
    4.7065    1.3795    0.4982 H   0  0  0  0  0  0  0  0  0  0  0  0
    7.1576    1.4042    0.6942 H   0  0  0  0  0  0  0  0  0  0  0  0
    4.6348   -2.8784    1.2967 H   0  0  0  0  0  0  0  0  0  0  0  0
    7.0723   -3.8953    1.8350 H   0  0  0  0  0  0  0  0  0  0  0  0
   11.1229   -1.7264    2.0268 H   0  0  0  0  0  0  0  0  0  0  0  0
   10.4025   -1.0414   -1.3661 H   0  0  0  0  0  0  0  0  0  0  0  0
   11.5757   -2.2144   -3.1653 H   0  0  0  0  0  0  0  0  0  0  0  0
   13.6388   -3.5087   -2.6884 H   0  0  0  0  0  0  0  0  0  0  0  0
   14.5500   -3.5657   -0.3802 H   0  0  0  0  0  0  0  0  0  0  0  0
   13.3908   -2.3735    1.4423 H   0  0  0  0  0  0  0  0  0  0  0  0
    9.9361    1.2722    3.2481 H   0  0  0  0  0  0  0  0  0  0  0  0
   10.0462    3.7378    3.1882 H   0  0  0  0  0  0  0  0  0  0  0  0
   10.0870    4.9276    1.0101 H   0  0  0  0  0  0  0  0  0  0  0  0
   10.0052    3.6393   -1.1071 H   0  0  0  0  0  0  0  0  0  0  0  0
    9.8910    1.1754   -1.0641 H   0  0  0  0  0  0  0  0  0  0  0  0
  1  2  1  0  0  0  0
  1 29  1  0  0  0  0
  1 30  1  0  0  0  0
  1 31  1  0  0  0  0
  2  3  1  0  0  0  0
  3  4  2  0  0  0  0
  3  5  1  0  0  0  0
  5  6  1  0  0  0  0
  5 10  2  0  0  0  0
  6  7  2  0  0  0  0
  6 32  1  0  0  0  0
  7  8  1  0  0  0  0
  7 33  1  0  0  0  0
  8  9  2  0  0  0  0
  8 14  1  0  0  0  0
  9 10  1  0  0  0  0
  9 11  1  0  0  0  0
 10 34  1  0  0  0  0
 11 12  1  0  0  0  0
 11 35  1  0  0  0  0
 12 13  2  0  0  0  0
 12 14  1  0  0  0  0
 14 15  2  0  0  0  0
 15 16  1  0  0  0  0
 15 23  1  0  0  0  0
 16 17  1  0  0  0  0
 16 36  1  0  0  0  0
 17 18  1  0  0  0  0
 17 22  2  0  0  0  0
 18 19  2  0  0  0  0
 18 37  1  0  0  0  0
 19 20  1  0  0  0  0
 19 38  1  0  0  0  0
 20 21  2  0  0  0  0
 20 39  1  0  0  0  0
 21 22  1  0  0  0  0
 21 40  1  0  0  0  0
 22 41  1  0  0  0  0
 23 24  1  0  0  0  0
 23 28  2  0  0  0  0
 24 25  2  0  0  0  0
 24 42  1  0  0  0  0
 25 26  1  0  0  0  0
 25 43  1  0  0  0  0
 26 27  2  0  0  0  0
 26 44  1  0  0  0  0
 27 28  1  0  0  0  0
 27 45  1  0  0  0  0
 28 46  1  0  0  0  0
M  END
$$$$
