CHEMBL1076470
 OpenBabel04072215353D

 83 87  0  0  0  0  0  0  0  0999 V2000
   15.5456   -0.2061    5.6035 C   0  0  0  0  0  0  0  0  0  0  0  0
   15.6275   -1.6616    5.1514 C   0  0  0  0  0  0  0  0  0  0  0  0
   14.7735   -1.9970    3.9995 N   0  0  0  0  0  0  0  0  0  0  0  0
   15.0203   -1.1603    2.8090 C   0  0  0  0  0  0  0  0  0  0  0  0
   16.3919   -1.2814    2.1463 C   0  0  0  0  0  0  0  0  0  0  0  0
   14.8453   -3.4341    3.6685 C   0  0  0  0  0  0  0  0  0  0  0  0
   14.3014   -4.3797    4.7537 C   0  0  0  0  0  0  0  0  0  0  0  0
   12.8393   -4.1490    5.1521 C   0  0  0  0  0  0  0  0  0  0  0  0
   11.8386   -4.3430    4.0127 C   0  0  0  0  0  0  0  0  0  0  0  0
   11.8572   -5.7351    3.5534 N   0  0  0  0  0  0  0  0  0  0  0  0
   10.9654   -5.9839    2.4930 C   0  0  0  0  0  0  0  0  0  0  0  0
   10.6091   -7.2922    2.2229 C   0  0  0  0  0  0  0  0  0  0  0  0
    9.7583   -7.5082    1.1538 C   0  0  0  0  0  0  0  0  0  0  0  0
    9.3000   -8.8257    0.8512 N   0  0  0  0  0  0  0  0  0  0  0  0
    9.1208   -9.9053    1.7268 C   0  0  0  0  0  0  0  0  0  0  0  0
    9.2339   -9.7923    3.0846 N   0  0  0  0  0  0  0  0  0  0  0  0
    9.3683  -10.8781    3.9924 C   0  0  0  0  0  0  0  0  0  0  0  0
    9.7730  -12.1524    3.5471 C   0  0  0  0  0  0  0  0  0  0  0  0
    9.8920  -13.2487    4.4006 C   0  0  0  0  0  0  0  0  0  0  0  0
   10.1984  -14.5549    3.9584 N   0  0  0  0  0  0  0  0  0  0  0  0
   10.4293  -14.9595    2.6529 C   0  0  0  0  0  0  0  0  0  0  0  0
   10.5533  -14.2455    1.6678 O   0  0  0  0  0  0  0  0  0  0  0  0
   10.5806  -16.4286    2.4495 C   0  0  0  0  0  0  0  0  0  0  0  0
    9.9543  -17.3787    3.2654 C   0  0  0  0  0  0  0  0  0  0  0  0
   10.1263  -18.7408    3.0120 C   0  0  0  0  0  0  0  0  0  0  0  0
   10.9171  -19.1630    1.9408 C   0  0  0  0  0  0  0  0  0  0  0  0
   11.5373  -18.2265    1.1025 C   0  0  0  0  0  0  0  0  0  0  0  0
   12.3969  -18.6523   -0.0615 C   0  0  0  0  0  0  0  0  0  0  0  0
   12.5003  -20.0042   -0.1932 F   0  0  0  0  0  0  0  0  0  0  0  0
   11.9291  -18.1959   -1.2554 F   0  0  0  0  0  0  0  0  0  0  0  0
   13.6742  -18.1914    0.0439 F   0  0  0  0  0  0  0  0  0  0  0  0
   11.3541  -16.8599    1.3611 C   0  0  0  0  0  0  0  0  0  0  0  0
    9.6641  -13.0576    5.7621 C   0  0  0  0  0  0  0  0  0  0  0  0
    9.3224  -11.7932    6.2474 C   0  0  0  0  0  0  0  0  0  0  0  0
    9.1772  -10.6956    5.3790 C   0  0  0  0  0  0  0  0  0  0  0  0
    8.8043   -9.3630    5.9695 C   0  0  0  0  0  0  0  0  0  0  0  0
    8.7694  -10.9839    1.0609 N   0  0  0  0  0  0  0  0  0  0  0  0
    8.7312  -10.6424   -0.2544 C   0  0  0  0  0  0  0  0  0  0  0  0
    8.4813  -11.4612   -1.3657 C   0  0  0  0  0  0  0  0  0  0  0  0
    8.5131  -10.8951   -2.6428 C   0  0  0  0  0  0  0  0  0  0  0  0
    8.7739   -9.5362   -2.8069 C   0  0  0  0  0  0  0  0  0  0  0  0
    9.0215   -8.7068   -1.7064 C   0  0  0  0  0  0  0  0  0  0  0  0
    8.9995   -9.2911   -0.4282 C   0  0  0  0  0  0  0  0  0  0  0  0
    9.3529   -6.5038    0.3484 N   0  0  0  0  0  0  0  0  0  0  0  0
    9.7810   -5.2810    0.6696 C   0  0  0  0  0  0  0  0  0  0  0  0
   10.5525   -4.9725    1.7156 N   0  0  0  0  0  0  0  0  0  0  0  0
   16.0254   -0.0977    6.5826 H   0  0  0  0  0  0  0  0  0  0  0  0
   14.5058    0.1212    5.7067 H   0  0  0  0  0  0  0  0  0  0  0  0
   16.0608    0.4654    4.9104 H   0  0  0  0  0  0  0  0  0  0  0  0
   15.3063   -2.2515    6.0159 H   0  0  0  0  0  0  0  0  0  0  0  0
   16.6749   -1.9249    4.9627 H   0  0  0  0  0  0  0  0  0  0  0  0
   14.8423   -0.1080    3.0586 H   0  0  0  0  0  0  0  0  0  0  0  0
   14.2560   -1.3902    2.0550 H   0  0  0  0  0  0  0  0  0  0  0  0
   17.2116   -1.1570    2.8592 H   0  0  0  0  0  0  0  0  0  0  0  0
   16.5028   -0.5017    1.3841 H   0  0  0  0  0  0  0  0  0  0  0  0
   16.5096   -2.2469    1.6442 H   0  0  0  0  0  0  0  0  0  0  0  0
   15.8806   -3.7223    3.4520 H   0  0  0  0  0  0  0  0  0  0  0  0
   14.2785   -3.6231    2.7455 H   0  0  0  0  0  0  0  0  0  0  0  0
   14.9211   -4.3120    5.6552 H   0  0  0  0  0  0  0  0  0  0  0  0
   14.4222   -5.4116    4.4021 H   0  0  0  0  0  0  0  0  0  0  0  0
   12.7193   -3.1380    5.5588 H   0  0  0  0  0  0  0  0  0  0  0  0
   12.5924   -4.8407    5.9680 H   0  0  0  0  0  0  0  0  0  0  0  0
   12.0585   -3.6420    3.2006 H   0  0  0  0  0  0  0  0  0  0  0  0
   10.8363   -4.1093    4.3950 H   0  0  0  0  0  0  0  0  0  0  0  0
   11.6871   -6.3792    4.3194 H   0  0  0  0  0  0  0  0  0  0  0  0
   11.0266   -8.0985    2.8119 H   0  0  0  0  0  0  0  0  0  0  0  0
    8.8516   -8.9577    3.5113 H   0  0  0  0  0  0  0  0  0  0  0  0
    9.9937  -12.2826    2.4947 H   0  0  0  0  0  0  0  0  0  0  0  0
   10.2560  -15.2571    4.6819 H   0  0  0  0  0  0  0  0  0  0  0  0
    9.2989  -17.0813    4.0776 H   0  0  0  0  0  0  0  0  0  0  0  0
    9.6341  -19.4776    3.6436 H   0  0  0  0  0  0  0  0  0  0  0  0
   11.0397  -20.2301    1.7579 H   0  0  0  0  0  0  0  0  0  0  0  0
   11.8173  -16.1202    0.7074 H   0  0  0  0  0  0  0  0  0  0  0  0
    9.7453  -13.8826    6.4631 H   0  0  0  0  0  0  0  0  0  0  0  0
    9.1599  -11.6730    7.3168 H   0  0  0  0  0  0  0  0  0  0  0  0
    8.7554   -9.4056    7.0632 H   0  0  0  0  0  0  0  0  0  0  0  0
    7.8207   -9.0491    5.6063 H   0  0  0  0  0  0  0  0  0  0  0  0
    9.5525   -8.6078    5.7082 H   0  0  0  0  0  0  0  0  0  0  0  0
    8.2935  -12.5202   -1.2225 H   0  0  0  0  0  0  0  0  0  0  0  0
    8.3434  -11.5252   -3.5121 H   0  0  0  0  0  0  0  0  0  0  0  0
    8.8040   -9.1131   -3.8087 H   0  0  0  0  0  0  0  0  0  0  0  0
    9.2512   -7.6569   -1.8535 H   0  0  0  0  0  0  0  0  0  0  0  0
    9.4752   -4.4644    0.0254 H   0  0  0  0  0  0  0  0  0  0  0  0
  1  2  1  0  0  0  0
  1 47  1  0  0  0  0
  1 48  1  0  0  0  0
  1 49  1  0  0  0  0
  2  3  1  0  0  0  0
  2 50  1  0  0  0  0
  2 51  1  0  0  0  0
  3  4  1  0  0  0  0
  3  6  1  0  0  0  0
  4  5  1  0  0  0  0
  4 52  1  0  0  0  0
  4 53  1  0  0  0  0
  5 54  1  0  0  0  0
  5 55  1  0  0  0  0
  5 56  1  0  0  0  0
  6  7  1  0  0  0  0
  6 57  1  0  0  0  0
  6 58  1  0  0  0  0
  7  8  1  0  0  0  0
  7 59  1  0  0  0  0
  7 60  1  0  0  0  0
  8  9  1  0  0  0  0
  8 61  1  0  0  0  0
  8 62  1  0  0  0  0
  9 10  1  0  0  0  0
  9 63  1  0  0  0  0
  9 64  1  0  0  0  0
 10 11  1  0  0  0  0
 10 65  1  0  0  0  0
 11 12  1  0  0  0  0
 11 46  2  0  0  0  0
 12 13  2  0  0  0  0
 12 66  1  0  0  0  0
 13 14  1  0  0  0  0
 13 44  1  0  0  0  0
 14 15  1  0  0  0  0
 14 43  1  0  0  0  0
 15 16  1  0  0  0  0
 15 37  2  0  0  0  0
 16 17  1  0  0  0  0
 16 67  1  0  0  0  0
 17 18  1  0  0  0  0
 17 35  2  0  0  0  0
 18 19  2  0  0  0  0
 18 68  1  0  0  0  0
 19 20  1  0  0  0  0
 19 33  1  0  0  0  0
 20 21  1  0  0  0  0
 20 69  1  0  0  0  0
 21 22  2  0  0  0  0
 21 23  1  0  0  0  0
 23 24  1  0  0  0  0
 23 32  2  0  0  0  0
 24 25  2  0  0  0  0
 24 70  1  0  0  0  0
 25 26  1  0  0  0  0
 25 71  1  0  0  0  0
 26 27  2  0  0  0  0
 26 72  1  0  0  0  0
 27 28  1  0  0  0  0
 27 32  1  0  0  0  0
 28 29  1  0  0  0  0
 28 30  1  0  0  0  0
 28 31  1  0  0  0  0
 32 73  1  0  0  0  0
 33 34  2  0  0  0  0
 33 74  1  0  0  0  0
 34 35  1  0  0  0  0
 34 75  1  0  0  0  0
 35 36  1  0  0  0  0
 36 76  1  0  0  0  0
 36 77  1  0  0  0  0
 36 78  1  0  0  0  0
 37 38  1  0  0  0  0
 38 39  1  0  0  0  0
 38 43  2  0  0  0  0
 39 40  2  0  0  0  0
 39 79  1  0  0  0  0
 40 41  1  0  0  0  0
 40 80  1  0  0  0  0
 41 42  2  0  0  0  0
 41 81  1  0  0  0  0
 42 43  1  0  0  0  0
 42 82  1  0  0  0  0
 44 45  2  0  0  0  0
 45 46  1  0  0  0  0
 45 83  1  0  0  0  0
M  END
$$$$
