CHEMBL1087218
 OpenBabel04072215363D

 49 53  0  0  0  0  0  0  0  0999 V2000
    1.3346   -0.2931    0.0356 C   0  0  0  0  0  0  0  0  0  0  0  0
    0.4981   -1.3905   -0.0604 C   0  0  0  0  0  0  0  0  0  0  0  0
   -0.8814   -1.1979   -0.1458 C   0  0  0  0  0  0  0  0  0  0  0  0
   -1.4568    0.0917   -0.0952 C   0  0  0  0  0  0  0  0  0  0  0  0
   -2.9148    0.2007   -0.2196 C   0  0  0  0  0  0  0  0  0  0  0  0
   -3.7739    1.1072    0.2006 N   0  0  0  0  0  0  0  0  0  0  0  0
   -5.0303    0.6684   -0.1819 N   0  0  0  0  0  0  0  0  0  0  0  0
   -4.8581   -0.4496   -0.8555 C   0  0  0  0  0  0  0  0  0  0  0  0
   -5.8002   -1.2530   -1.3952 N   0  0  0  0  0  0  0  0  0  0  0  0
   -5.6912   -2.2097   -2.4258 C   0  0  0  0  0  0  0  0  0  0  0  0
   -4.5460   -2.3761   -3.2122 C   0  0  0  0  0  0  0  0  0  0  0  0
   -4.4569   -3.4079   -4.1551 C   0  0  0  0  0  0  0  0  0  0  0  0
   -5.5081   -4.3045   -4.3237 C   0  0  0  0  0  0  0  0  0  0  0  0
   -6.6738   -4.1325   -3.5890 C   0  0  0  0  0  0  0  0  0  0  0  0
   -6.7599   -3.1025   -2.6413 C   0  0  0  0  0  0  0  0  0  0  0  0
   -7.7806   -4.9180   -3.7589 O   0  0  0  0  0  0  0  0  0  0  0  0
   -7.4464   -6.1992   -4.2910 C   0  0  0  0  0  0  0  0  0  0  0  0
   -6.4303   -6.1595   -5.4257 C   0  0  0  0  0  0  0  0  0  0  0  0
   -5.2949   -5.3267   -5.2001 O   0  0  0  0  0  0  0  0  0  0  0  0
   -3.5412   -0.8168   -0.9055 O   0  0  0  0  0  0  0  0  0  0  0  0
   -0.6057    1.2086    0.1028 C   0  0  0  0  0  0  0  0  0  0  0  0
   -1.1243    2.5095    0.2370 N   0  0  0  0  0  0  0  0  0  0  0  0
   -0.3240    3.5060    0.9496 C   0  0  0  0  0  0  0  0  0  0  0  0
   -1.1539    4.6232    1.5147 C   0  0  0  0  0  0  0  0  0  0  0  0
   -2.5087    4.4582    1.8502 C   0  0  0  0  0  0  0  0  0  0  0  0
   -3.1794    5.5055    2.4546 C   0  0  0  0  0  0  0  0  0  0  0  0
   -2.6228    6.7003    2.7412 N   0  0  0  0  0  0  0  0  0  0  0  0
   -1.3180    6.8440    2.4225 C   0  0  0  0  0  0  0  0  0  0  0  0
   -0.5594    5.8572    1.8149 C   0  0  0  0  0  0  0  0  0  0  0  0
    0.7890    0.9892    0.1130 C   0  0  0  0  0  0  0  0  0  0  0  0
    2.4138   -0.4259    0.0733 H   0  0  0  0  0  0  0  0  0  0  0  0
    0.9119   -2.3953   -0.0878 H   0  0  0  0  0  0  0  0  0  0  0  0
   -1.5165   -2.0788   -0.2319 H   0  0  0  0  0  0  0  0  0  0  0  0
   -6.7560   -0.9950   -1.1794 H   0  0  0  0  0  0  0  0  0  0  0  0
   -3.7021   -1.6983   -3.1255 H   0  0  0  0  0  0  0  0  0  0  0  0
   -3.5586   -3.5092   -4.7584 H   0  0  0  0  0  0  0  0  0  0  0  0
   -7.6694   -3.0217   -2.0503 H   0  0  0  0  0  0  0  0  0  0  0  0
   -7.0956   -6.8317   -3.4679 H   0  0  0  0  0  0  0  0  0  0  0  0
   -8.3733   -6.6494   -4.6669 H   0  0  0  0  0  0  0  0  0  0  0  0
   -6.8999   -5.8457   -6.3637 H   0  0  0  0  0  0  0  0  0  0  0  0
   -6.0500   -7.1765   -5.5840 H   0  0  0  0  0  0  0  0  0  0  0  0
   -1.4842    2.8623   -0.6491 H   0  0  0  0  0  0  0  0  0  0  0  0
    0.4272    3.9213    0.2679 H   0  0  0  0  0  0  0  0  0  0  0  0
    0.1891    3.0485    1.8051 H   0  0  0  0  0  0  0  0  0  0  0  0
   -3.0217    3.5162    1.6775 H   0  0  0  0  0  0  0  0  0  0  0  0
   -4.2290    5.4091    2.7383 H   0  0  0  0  0  0  0  0  0  0  0  0
   -0.8801    7.8047    2.6824 H   0  0  0  0  0  0  0  0  0  0  0  0
    0.4888    6.0365    1.6045 H   0  0  0  0  0  0  0  0  0  0  0  0
    1.4857    1.8213    0.1757 H   0  0  0  0  0  0  0  0  0  0  0  0
  1  2  1  0  0  0  0
  1 30  2  0  0  0  0
  1 31  1  0  0  0  0
  2  3  2  0  0  0  0
  2 32  1  0  0  0  0
  3  4  1  0  0  0  0
  3 33  1  0  0  0  0
  4  5  1  0  0  0  0
  4 21  2  0  0  0  0
  5  6  2  0  0  0  0
  5 20  1  0  0  0  0
  6  7  1  0  0  0  0
  7  8  2  0  0  0  0
  8  9  1  0  0  0  0
  8 20  1  0  0  0  0
  9 10  1  0  0  0  0
  9 34  1  0  0  0  0
 10 11  1  0  0  0  0
 10 15  2  0  0  0  0
 11 12  2  0  0  0  0
 11 35  1  0  0  0  0
 12 13  1  0  0  0  0
 12 36  1  0  0  0  0
 13 14  2  0  0  0  0
 13 19  1  0  0  0  0
 14 15  1  0  0  0  0
 14 16  1  0  0  0  0
 15 37  1  0  0  0  0
 16 17  1  0  0  0  0
 17 18  1  0  0  0  0
 17 38  1  0  0  0  0
 17 39  1  0  0  0  0
 18 19  1  0  0  0  0
 18 40  1  0  0  0  0
 18 41  1  0  0  0  0
 21 22  1  0  0  0  0
 21 30  1  0  0  0  0
 22 23  1  0  0  0  0
 22 42  1  0  0  0  0
 23 24  1  0  0  0  0
 23 43  1  0  0  0  0
 23 44  1  0  0  0  0
 24 25  1  0  0  0  0
 24 29  2  0  0  0  0
 25 26  2  0  0  0  0
 25 45  1  0  0  0  0
 26 27  1  0  0  0  0
 26 46  1  0  0  0  0
 27 28  2  0  0  0  0
 28 29  1  0  0  0  0
 28 47  1  0  0  0  0
 29 48  1  0  0  0  0
 30 49  1  0  0  0  0
M  END
$$$$
