CHEMBL243088
 OpenBabel04072215363D

 38 40  0  0  0  0  0  0  0  0999 V2000
    6.3015    1.3705    3.9517 O   0  0  0  0  0  0  0  0  0  0  0  0
    5.7766    1.8639    2.9706 C   0  0  0  0  0  0  0  0  0  0  0  0
    4.5177    2.3535    2.9820 O   0  0  0  0  0  0  0  0  0  0  0  0
    6.4653    1.9960    1.6547 C   0  0  0  0  0  0  0  0  0  0  0  0
    7.8609    2.1645    1.7109 C   0  0  0  0  0  0  0  0  0  0  0  0
    8.6114    2.2627    0.5425 C   0  0  0  0  0  0  0  0  0  0  0  0
    7.9769    2.1639   -0.6870 C   0  0  0  0  0  0  0  0  0  0  0  0
    6.5888    2.0216   -0.7487 C   0  0  0  0  0  0  0  0  0  0  0  0
    5.7940    1.9526    0.4066 C   0  0  0  0  0  0  0  0  0  0  0  0
    4.3743    1.9693    0.3473 N   0  0  0  0  0  0  0  0  0  0  0  0
    3.5044    2.2351   -0.7450 C   0  0  0  0  0  0  0  0  0  0  0  0
    2.2034    2.5901   -0.4414 C   0  0  0  0  0  0  0  0  0  0  0  0
    1.3898    2.8957   -1.5018 C   0  0  0  0  0  0  0  0  0  0  0  0
    1.7954    2.8337   -2.7745 N   0  0  0  0  0  0  0  0  0  0  0  0
    3.0670    2.4775   -2.9976 C   0  0  0  0  0  0  0  0  0  0  0  0
    3.5373    2.3739   -4.3089 N   0  0  0  0  0  0  0  0  0  0  0  0
    2.8274    1.8743   -5.4177 C   0  0  0  0  0  0  0  0  0  0  0  0
    3.2565    2.2007   -6.7097 C   0  0  0  0  0  0  0  0  0  0  0  0
    2.5293    1.7852   -7.8312 C   0  0  0  0  0  0  0  0  0  0  0  0
    1.3775    1.0136   -7.6757 C   0  0  0  0  0  0  0  0  0  0  0  0
    0.9714    0.6554   -6.3966 C   0  0  0  0  0  0  0  0  0  0  0  0
   -0.1354   -0.1140   -6.1817 O   0  0  0  0  0  0  0  0  0  0  0  0
    1.6803    1.0807   -5.2816 C   0  0  0  0  0  0  0  0  0  0  0  0
    3.9394    2.2146   -2.0160 N   0  0  0  0  0  0  0  0  0  0  0  0
    4.3144    2.8649    2.1716 H   0  0  0  0  0  0  0  0  0  0  0  0
    8.3652    2.2334    2.6736 H   0  0  0  0  0  0  0  0  0  0  0  0
    9.6875    2.4072    0.5903 H   0  0  0  0  0  0  0  0  0  0  0  0
    8.5529    2.2071   -1.6085 H   0  0  0  0  0  0  0  0  0  0  0  0
    6.1529    1.9449   -1.7390 H   0  0  0  0  0  0  0  0  0  0  0  0
    3.9657    1.2507    0.9493 H   0  0  0  0  0  0  0  0  0  0  0  0
    1.8399    2.6686    0.5739 H   0  0  0  0  0  0  0  0  0  0  0  0
    0.3620    3.2142   -1.3605 H   0  0  0  0  0  0  0  0  0  0  0  0
    4.5180    2.1302   -4.3015 H   0  0  0  0  0  0  0  0  0  0  0  0
    4.1394    2.8190   -6.8506 H   0  0  0  0  0  0  0  0  0  0  0  0
    2.8543    2.0793   -8.8256 H   0  0  0  0  0  0  0  0  0  0  0  0
    0.8149    0.7089   -8.5511 H   0  0  0  0  0  0  0  0  0  0  0  0
   -0.5407   -0.3085   -7.0457 H   0  0  0  0  0  0  0  0  0  0  0  0
    1.3247    0.7812   -4.2987 H   0  0  0  0  0  0  0  0  0  0  0  0
  1  2  2  0  0  0  0
  2  3  1  0  0  0  0
  2  4  1  0  0  0  0
  3 25  1  0  0  0  0
  4  5  1  0  0  0  0
  4  9  2  0  0  0  0
  5  6  2  0  0  0  0
  5 26  1  0  0  0  0
  6  7  1  0  0  0  0
  6 27  1  0  0  0  0
  7  8  2  0  0  0  0
  7 28  1  0  0  0  0
  8  9  1  0  0  0  0
  8 29  1  0  0  0  0
  9 10  1  0  0  0  0
 10 11  1  0  0  0  0
 10 30  1  0  0  0  0
 11 12  1  0  0  0  0
 11 24  2  0  0  0  0
 12 13  2  0  0  0  0
 12 31  1  0  0  0  0
 13 14  1  0  0  0  0
 13 32  1  0  0  0  0
 14 15  2  0  0  0  0
 15 16  1  0  0  0  0
 15 24  1  0  0  0  0
 16 17  1  0  0  0  0
 16 33  1  0  0  0  0
 17 18  1  0  0  0  0
 17 23  2  0  0  0  0
 18 19  2  0  0  0  0
 18 34  1  0  0  0  0
 19 20  1  0  0  0  0
 19 35  1  0  0  0  0
 20 21  2  0  0  0  0
 20 36  1  0  0  0  0
 21 22  1  0  0  0  0
 21 23  1  0  0  0  0
 22 37  1  0  0  0  0
 23 38  1  0  0  0  0
M  END
$$$$
