CHEMBL250610
 OpenBabel04072215363D

 41 44  0  0  0  0  0  0  0  0999 V2000
    3.2376   -0.6066   -0.8124 C   0  0  0  0  0  0  0  0  0  0  0  0
    2.4210   -0.1596    0.2750 O   0  0  0  0  0  0  0  0  0  0  0  0
    3.0682    0.6574    1.1772 C   0  0  0  0  0  0  0  0  0  0  0  0
    4.0036    1.6159    0.7563 C   0  0  0  0  0  0  0  0  0  0  0  0
    4.7179    2.3644    1.6806 C   0  0  0  0  0  0  0  0  0  0  0  0
    4.5040    2.2168    3.0599 C   0  0  0  0  0  0  0  0  0  0  0  0
    5.4723    2.7978    3.8577 O   0  0  0  0  0  0  0  0  0  0  0  0
    5.0148    3.8191    4.7327 C   0  0  0  0  0  0  0  0  0  0  0  0
    3.5196    1.3010    3.4964 C   0  0  0  0  0  0  0  0  0  0  0  0
    2.7858    0.5191    2.5670 C   0  0  0  0  0  0  0  0  0  0  0  0
    1.8934   -0.3210    3.3238 C   0  0  0  0  0  0  0  0  0  0  0  0
    0.9621   -1.2991    2.8493 C   0  0  0  0  0  0  0  0  0  0  0  0
   -0.1474   -1.7560    3.4594 C   0  0  0  0  0  0  0  0  0  0  0  0
   -0.7470   -1.3825    4.7683 C   0  0  0  0  0  0  0  0  0  0  0  0
   -0.5890   -0.3938    5.4552 O   0  0  0  0  0  0  0  0  0  0  0  0
   -1.6112   -2.4314    5.0225 N   0  0  0  0  0  0  0  0  0  0  0  0
   -1.7955   -3.2998    3.9748 N   0  0  0  0  0  0  0  0  0  0  0  0
   -0.9905   -2.9026    3.0164 C   0  0  0  0  0  0  0  0  0  0  0  0
   -1.0187   -3.4908    1.7148 C   0  0  0  0  0  0  0  0  0  0  0  0
   -0.7519   -2.9696    0.4619 C   0  0  0  0  0  0  0  0  0  0  0  0
   -0.9543   -3.8369   -0.5987 N   0  0  0  0  0  0  0  0  0  0  0  0
   -1.3841   -5.0172   -0.1866 N   0  0  0  0  0  0  0  0  0  0  0  0
   -1.5571   -5.1026    1.4744 S   0  0  0  0  0  0  0  0  0  0  0  0
    2.1767   -0.1081    4.6458 C   0  0  0  0  0  0  0  0  0  0  0  0
    3.0739    0.9154    4.7503 N   0  0  0  0  0  0  0  0  0  0  0  0
    3.4153    1.4749    6.0319 C   0  0  0  0  0  0  0  0  0  0  0  0
    2.7306   -1.4466   -1.2992 H   0  0  0  0  0  0  0  0  0  0  0  0
    4.2162   -0.9621   -0.4689 H   0  0  0  0  0  0  0  0  0  0  0  0
    3.3523    0.1820   -1.5632 H   0  0  0  0  0  0  0  0  0  0  0  0
    4.2111    1.7701   -0.2976 H   0  0  0  0  0  0  0  0  0  0  0  0
    5.4849    3.0499    1.3274 H   0  0  0  0  0  0  0  0  0  0  0  0
    5.6971    4.6726    4.6664 H   0  0  0  0  0  0  0  0  0  0  0  0
    5.0979    3.4517    5.7588 H   0  0  0  0  0  0  0  0  0  0  0  0
    3.9968    4.1621    4.5271 H   0  0  0  0  0  0  0  0  0  0  0  0
    1.2523   -1.7502    1.9066 H   0  0  0  0  0  0  0  0  0  0  0  0
   -2.2208   -2.4620    5.8319 H   0  0  0  0  0  0  0  0  0  0  0  0
   -0.4362   -1.9585    0.2456 H   0  0  0  0  0  0  0  0  0  0  0  0
    1.7859   -0.5692    5.5453 H   0  0  0  0  0  0  0  0  0  0  0  0
    2.8486    0.9641    6.8169 H   0  0  0  0  0  0  0  0  0  0  0  0
    3.1182    2.5247    6.0456 H   0  0  0  0  0  0  0  0  0  0  0  0
    4.4808    1.3259    6.2081 H   0  0  0  0  0  0  0  0  0  0  0  0
  1  2  1  0  0  0  0
  1 27  1  0  0  0  0
  1 28  1  0  0  0  0
  1 29  1  0  0  0  0
  2  3  1  0  0  0  0
  3  4  1  0  0  0  0
  3 10  2  0  0  0  0
  4  5  2  0  0  0  0
  4 30  1  0  0  0  0
  5  6  1  0  0  0  0
  5 31  1  0  0  0  0
  6  7  1  0  0  0  0
  6  9  2  0  0  0  0
  7  8  1  0  0  0  0
  8 32  1  0  0  0  0
  8 33  1  0  0  0  0
  8 34  1  0  0  0  0
  9 10  1  0  0  0  0
  9 25  1  0  0  0  0
 10 11  1  0  0  0  0
 11 12  1  0  0  0  0
 11 24  2  0  0  0  0
 12 13  2  0  0  0  0
 12 35  1  0  0  0  0
 13 14  1  0  0  0  0
 13 18  1  0  0  0  0
 14 15  2  0  0  0  0
 14 16  1  0  0  0  0
 16 17  1  0  0  0  0
 16 36  1  0  0  0  0
 17 18  2  0  0  0  0
 18 19  1  0  0  0  0
 19 20  2  0  0  0  0
 19 23  1  0  0  0  0
 20 21  1  0  0  0  0
 20 37  1  0  0  0  0
 21 22  2  0  0  0  0
 22 23  1  0  0  0  0
 24 25  1  0  0  0  0
 24 38  1  0  0  0  0
 25 26  1  0  0  0  0
 26 39  1  0  0  0  0
 26 40  1  0  0  0  0
 26 41  1  0  0  0  0
M  END
$$$$
