CHEMBL2337363
 OpenBabel04072215363D

 34 37  0  0  0  0  0  0  0  0999 V2000
    1.2043    0.1877   -0.1862 N   0  0  0  0  0  0  0  0  0  0  0  0
    2.5823    0.1605   -0.1138 C   0  0  0  0  0  0  0  0  0  0  0  0
    3.1511   -1.0420   -0.0573 N   0  0  0  0  0  0  0  0  0  0  0  0
    4.5066   -1.1762   -0.0068 C   0  0  0  0  0  0  0  0  0  0  0  0
    5.0387   -2.4692    0.0233 N   0  0  0  0  0  0  0  0  0  0  0  0
    4.4681   -3.6275    0.5765 C   0  0  0  0  0  0  0  0  0  0  0  0
    4.8328   -4.8824    0.0732 C   0  0  0  0  0  0  0  0  0  0  0  0
    4.2196   -6.0469    0.5477 C   0  0  0  0  0  0  0  0  0  0  0  0
    3.2436   -5.9625    1.5388 C   0  0  0  0  0  0  0  0  0  0  0  0
    2.4707   -7.3897    2.1077 Cl  0  0  0  0  0  0  0  0  0  0  0  0
    2.8812   -4.7280    2.0637 C   0  0  0  0  0  0  0  0  0  0  0  0
    3.4861   -3.5685    1.5759 C   0  0  0  0  0  0  0  0  0  0  0  0
    5.2836    0.0001   -0.0176 C   0  0  0  0  0  0  0  0  0  0  0  0
    4.5521    1.1791   -0.0290 C   0  0  0  0  0  0  0  0  0  0  0  0
    3.2223    1.3250   -0.0639 N   0  0  0  0  0  0  0  0  0  0  0  0
    5.4120    2.2311    0.0029 N   0  0  0  0  0  0  0  0  0  0  0  0
    6.7101    1.7884    0.0161 C   0  0  0  0  0  0  0  0  0  0  0  0
    7.8946    2.5397    0.0375 C   0  0  0  0  0  0  0  0  0  0  0  0
    9.1102    1.8566    0.0478 C   0  0  0  0  0  0  0  0  0  0  0  0
    9.1396    0.4690    0.0423 C   0  0  0  0  0  0  0  0  0  0  0  0
    7.9444   -0.2570    0.0240 C   0  0  0  0  0  0  0  0  0  0  0  0
    8.0113   -1.9627    0.0138 Cl  0  0  0  0  0  0  0  0  0  0  0  0
    6.6803    0.3816    0.0062 C   0  0  0  0  0  0  0  0  0  0  0  0
    0.8343   -0.6953    0.1435 H   0  0  0  0  0  0  0  0  0  0  0  0
    0.8433    1.0335    0.2247 H   0  0  0  0  0  0  0  0  0  0  0  0
    6.0383   -2.5248   -0.1241 H   0  0  0  0  0  0  0  0  0  0  0  0
    5.5722   -4.9585   -0.7201 H   0  0  0  0  0  0  0  0  0  0  0  0
    4.4954   -7.0098    0.1281 H   0  0  0  0  0  0  0  0  0  0  0  0
    2.1261   -4.6517    2.8404 H   0  0  0  0  0  0  0  0  0  0  0  0
    3.1919   -2.6103    1.9957 H   0  0  0  0  0  0  0  0  0  0  0  0
    5.1147    3.1952    0.0081 H   0  0  0  0  0  0  0  0  0  0  0  0
    7.8737    3.6258    0.0428 H   0  0  0  0  0  0  0  0  0  0  0  0
   10.0425    2.4170    0.0590 H   0  0  0  0  0  0  0  0  0  0  0  0
   10.0956   -0.0489    0.0508 H   0  0  0  0  0  0  0  0  0  0  0  0
  1  2  1  0  0  0  0
  1 24  1  0  0  0  0
  1 25  1  0  0  0  0
  2  3  1  0  0  0  0
  2 15  2  0  0  0  0
  3  4  2  0  0  0  0
  4  5  1  0  0  0  0
  4 13  1  0  0  0  0
  5  6  1  0  0  0  0
  5 26  1  0  0  0  0
  6  7  1  0  0  0  0
  6 12  2  0  0  0  0
  7  8  2  0  0  0  0
  7 27  1  0  0  0  0
  8  9  1  0  0  0  0
  8 28  1  0  0  0  0
  9 10  1  0  0  0  0
  9 11  2  0  0  0  0
 11 12  1  0  0  0  0
 11 29  1  0  0  0  0
 12 30  1  0  0  0  0
 13 14  2  0  0  0  0
 13 23  1  0  0  0  0
 14 15  1  0  0  0  0
 14 16  1  0  0  0  0
 16 17  1  0  0  0  0
 16 31  1  0  0  0  0
 17 18  1  0  0  0  0
 17 23  2  0  0  0  0
 18 19  2  0  0  0  0
 18 32  1  0  0  0  0
 19 20  1  0  0  0  0
 19 33  1  0  0  0  0
 20 21  2  0  0  0  0
 20 34  1  0  0  0  0
 21 22  1  0  0  0  0
 21 23  1  0  0  0  0
M  END
$$$$
