CHEMBL2023490
 OpenBabel04072215363D

 56 59  0  0  0  0  0  0  0  0999 V2000
    5.4077    0.5531   -1.9532 C   0  0  0  0  0  0  0  0  0  0  0  0
    4.2519   -0.0927   -1.4113 O   0  0  0  0  0  0  0  0  0  0  0  0
    4.4871   -1.0893   -0.5069 C   0  0  0  0  0  0  0  0  0  0  0  0
    5.6451   -1.1148    0.2865 C   0  0  0  0  0  0  0  0  0  0  0  0
    5.9921   -2.2048    1.0800 C   0  0  0  0  0  0  0  0  0  0  0  0
    7.1829   -2.1674    1.6945 N   0  0  0  0  0  0  0  0  0  0  0  0
    7.5778   -3.2525    2.3913 C   0  0  0  0  0  0  0  0  0  0  0  0
    6.8326   -4.4110    2.4769 C   0  0  0  0  0  0  0  0  0  0  0  0
    5.5929   -4.4511    1.8435 C   0  0  0  0  0  0  0  0  0  0  0  0
    4.9714   -5.6813    1.9726 O   0  0  0  0  0  0  0  0  0  0  0  0
    4.1330   -6.1710    0.9997 C   0  0  0  0  0  0  0  0  0  0  0  0
    4.3135   -5.9864   -0.3722 C   0  0  0  0  0  0  0  0  0  0  0  0
    3.2688   -6.2879   -1.2509 C   0  0  0  0  0  0  0  0  0  0  0  0
    2.0799   -6.8585   -0.7747 C   0  0  0  0  0  0  0  0  0  0  0  0
    0.8815   -6.9869   -1.6830 C   0  0  0  0  0  0  0  0  0  0  0  0
    0.2832   -8.3740   -1.7837 C   0  0  0  0  0  0  0  0  0  0  0  0
   -0.9204   -8.5390   -1.5928 O   0  0  0  0  0  0  0  0  0  0  0  0
    1.1907   -9.3508   -2.1591 N   0  0  0  0  0  0  0  0  0  0  0  0
    0.8441  -10.6562   -2.4646 C   0  0  0  0  0  0  0  0  0  0  0  0
   -0.4210  -11.1617   -2.6362 C   0  0  0  0  0  0  0  0  0  0  0  0
   -0.2736  -12.4770   -2.9451 N   0  0  0  0  0  0  0  0  0  0  0  0
   -1.3321  -13.4132   -3.2315 C   0  0  0  0  0  0  0  0  0  0  0  0
    1.0089  -12.8778   -2.9903 N   0  0  0  0  0  0  0  0  0  0  0  0
    1.7025  -11.7681   -2.6953 C   0  0  0  0  0  0  0  0  0  0  0  0
    3.1834  -11.8244   -2.6321 C   0  0  0  0  0  0  0  0  0  0  0  0
    1.9821   -7.1961    0.5815 C   0  0  0  0  0  0  0  0  0  0  0  0
    3.0070   -6.8532    1.4637 C   0  0  0  0  0  0  0  0  0  0  0  0
    5.1063   -3.2933    1.1789 C   0  0  0  0  0  0  0  0  0  0  0  0
    3.8419   -3.1448    0.5558 C   0  0  0  0  0  0  0  0  0  0  0  0
    3.5477   -2.1104   -0.3441 C   0  0  0  0  0  0  0  0  0  0  0  0
    2.3616   -2.3278   -0.9779 O   0  0  0  0  0  0  0  0  0  0  0  0
    1.9633   -1.5176   -2.0682 C   0  0  0  0  0  0  0  0  0  0  0  0
    5.1903    0.8321   -2.9887 H   0  0  0  0  0  0  0  0  0  0  0  0
    6.2968   -0.0893   -1.9814 H   0  0  0  0  0  0  0  0  0  0  0  0
    5.6151    1.4660   -1.3865 H   0  0  0  0  0  0  0  0  0  0  0  0
    6.3454   -0.2837    0.2667 H   0  0  0  0  0  0  0  0  0  0  0  0
    8.5443   -3.1700    2.8750 H   0  0  0  0  0  0  0  0  0  0  0  0
    7.2114   -5.2672    3.0206 H   0  0  0  0  0  0  0  0  0  0  0  0
    5.2037   -5.4962   -0.7571 H   0  0  0  0  0  0  0  0  0  0  0  0
    3.3642   -5.9993   -2.2962 H   0  0  0  0  0  0  0  0  0  0  0  0
    1.1173   -6.6521   -2.7000 H   0  0  0  0  0  0  0  0  0  0  0  0
    0.1041   -6.3085   -1.3062 H   0  0  0  0  0  0  0  0  0  0  0  0
    2.1783   -9.1279   -2.1465 H   0  0  0  0  0  0  0  0  0  0  0  0
   -1.3975  -10.7020   -2.5772 H   0  0  0  0  0  0  0  0  0  0  0  0
   -2.2943  -12.8954   -3.1918 H   0  0  0  0  0  0  0  0  0  0  0  0
   -1.3047  -14.2064   -2.4810 H   0  0  0  0  0  0  0  0  0  0  0  0
   -1.1713  -13.8189   -4.2331 H   0  0  0  0  0  0  0  0  0  0  0  0
    3.5489  -12.8546   -2.7063 H   0  0  0  0  0  0  0  0  0  0  0  0
    3.5442  -11.4109   -1.6849 H   0  0  0  0  0  0  0  0  0  0  0  0
    3.6229  -11.2494   -3.4527 H   0  0  0  0  0  0  0  0  0  0  0  0
    1.0805   -7.6634    0.9752 H   0  0  0  0  0  0  0  0  0  0  0  0
    2.8940   -7.0551    2.5261 H   0  0  0  0  0  0  0  0  0  0  0  0
    3.0667   -3.8926    0.7087 H   0  0  0  0  0  0  0  0  0  0  0  0
    1.1965   -2.0756   -2.6193 H   0  0  0  0  0  0  0  0  0  0  0  0
    2.7677   -1.3200   -2.7813 H   0  0  0  0  0  0  0  0  0  0  0  0
    1.5023   -0.5971   -1.7012 H   0  0  0  0  0  0  0  0  0  0  0  0
  1  2  1  0  0  0  0
  1 33  1  0  0  0  0
  1 34  1  0  0  0  0
  1 35  1  0  0  0  0
  2  3  1  0  0  0  0
  3  4  1  0  0  0  0
  3 30  2  0  0  0  0
  4  5  2  0  0  0  0
  4 36  1  0  0  0  0
  5  6  1  0  0  0  0
  5 28  1  0  0  0  0
  6  7  2  0  0  0  0
  7  8  1  0  0  0  0
  7 37  1  0  0  0  0
  8  9  2  0  0  0  0
  8 38  1  0  0  0  0
  9 10  1  0  0  0  0
  9 28  1  0  0  0  0
 10 11  1  0  0  0  0
 11 12  1  0  0  0  0
 11 27  2  0  0  0  0
 12 13  2  0  0  0  0
 12 39  1  0  0  0  0
 13 14  1  0  0  0  0
 13 40  1  0  0  0  0
 14 15  1  0  0  0  0
 14 26  2  0  0  0  0
 15 16  1  0  0  0  0
 15 41  1  0  0  0  0
 15 42  1  0  0  0  0
 16 17  2  0  0  0  0
 16 18  1  0  0  0  0
 18 19  1  0  0  0  0
 18 43  1  0  0  0  0
 19 20  2  0  0  0  0
 19 24  1  0  0  0  0
 20 21  1  0  0  0  0
 20 44  1  0  0  0  0
 21 22  1  0  0  0  0
 21 23  1  0  0  0  0
 22 45  1  0  0  0  0
 22 46  1  0  0  0  0
 22 47  1  0  0  0  0
 23 24  2  0  0  0  0
 24 25  1  0  0  0  0
 25 48  1  0  0  0  0
 25 49  1  0  0  0  0
 25 50  1  0  0  0  0
 26 27  1  0  0  0  0
 26 51  1  0  0  0  0
 27 52  1  0  0  0  0
 28 29  2  0  0  0  0
 29 30  1  0  0  0  0
 29 53  1  0  0  0  0
 30 31  1  0  0  0  0
 31 32  1  0  0  0  0
 32 54  1  0  0  0  0
 32 55  1  0  0  0  0
 32 56  1  0  0  0  0
M  END
$$$$
