CHEMBL3962492
 OpenBabel04072215373D

 50 53  0  0  0  0  0  0  0  0999 V2000
    0.9049    0.4369    1.3805 C   0  0  0  0  0  0  0  0  0  0  0  0
    2.3268    0.4211    1.3418 O   0  0  0  0  0  0  0  0  0  0  0  0
    2.9528    1.4486    0.6864 C   0  0  0  0  0  0  0  0  0  0  0  0
    2.3176    2.5185    0.0606 C   0  0  0  0  0  0  0  0  0  0  0  0
    3.0944    3.4792   -0.5750 C   0  0  0  0  0  0  0  0  0  0  0  0
    2.5259    4.5526   -1.2000 O   0  0  0  0  0  0  0  0  0  0  0  0
    4.4867    3.3870   -0.5908 C   0  0  0  0  0  0  0  0  0  0  0  0
    5.1636    2.3378    0.0583 C   0  0  0  0  0  0  0  0  0  0  0  0
    6.5842    2.3046    0.0975 N   0  0  0  0  0  0  0  0  0  0  0  0
    7.2558    0.9761    0.0524 C   0  0  0  0  0  0  0  0  0  0  0  0
    8.3139    0.7827    1.1613 C   0  0  0  0  0  0  0  0  0  0  0  0
    7.7419    0.7634    2.4663 O   0  0  0  0  0  0  0  0  0  0  0  0
    7.4337    3.4392    0.0568 C   0  0  0  0  0  0  0  0  0  0  0  0
    8.6538    3.4434   -0.6292 C   0  0  0  0  0  0  0  0  0  0  0  0
    9.5272    4.5261   -0.5339 C   0  0  0  0  0  0  0  0  0  0  0  0
    9.1967    5.6481    0.2023 C   0  0  0  0  0  0  0  0  0  0  0  0
   10.0783    6.6535    0.2852 N   0  0  0  0  0  0  0  0  0  0  0  0
    9.6808    7.7343    0.9983 C   0  0  0  0  0  0  0  0  0  0  0  0
    8.4427    7.8174    1.6150 C   0  0  0  0  0  0  0  0  0  0  0  0
    8.0274    9.0180    2.3162 C   0  0  0  0  0  0  0  0  0  0  0  0
    8.6853   10.2545    2.5027 C   0  0  0  0  0  0  0  0  0  0  0  0
    7.9553   11.1360    3.1864 N   0  0  0  0  0  0  0  0  0  0  0  0
    6.8102   10.4684    3.4345 N   0  0  0  0  0  0  0  0  0  0  0  0
    5.7355   11.1224    4.1381 C   0  0  0  0  0  0  0  0  0  0  0  0
    6.8074    9.1982    2.9412 C   0  0  0  0  0  0  0  0  0  0  0  0
    7.5631    6.7935    1.5603 N   0  0  0  0  0  0  0  0  0  0  0  0
    7.9399    5.7005    0.8540 C   0  0  0  0  0  0  0  0  0  0  0  0
    7.0991    4.6008    0.7766 C   0  0  0  0  0  0  0  0  0  0  0  0
    4.3585    1.3717    0.6870 C   0  0  0  0  0  0  0  0  0  0  0  0
    0.5755   -0.4716    1.8943 H   0  0  0  0  0  0  0  0  0  0  0  0
    0.4757    0.4202    0.3730 H   0  0  0  0  0  0  0  0  0  0  0  0
    0.5367    1.2953    1.9522 H   0  0  0  0  0  0  0  0  0  0  0  0
    1.2392    2.6154    0.0604 H   0  0  0  0  0  0  0  0  0  0  0  0
    1.5667    4.5361   -1.0519 H   0  0  0  0  0  0  0  0  0  0  0  0
    5.0412    4.1555   -1.1235 H   0  0  0  0  0  0  0  0  0  0  0  0
    7.7297    0.8432   -0.9291 H   0  0  0  0  0  0  0  0  0  0  0  0
    6.5418    0.1500    0.1260 H   0  0  0  0  0  0  0  0  0  0  0  0
    9.1008    1.5427    1.1490 H   0  0  0  0  0  0  0  0  0  0  0  0
    8.8112   -0.1796    1.0095 H   0  0  0  0  0  0  0  0  0  0  0  0
    7.6560    1.6936    2.7410 H   0  0  0  0  0  0  0  0  0  0  0  0
    8.9615    2.6023   -1.2433 H   0  0  0  0  0  0  0  0  0  0  0  0
   10.4881    4.4909   -1.0406 H   0  0  0  0  0  0  0  0  0  0  0  0
   10.4109    8.5327    1.0448 H   0  0  0  0  0  0  0  0  0  0  0  0
    9.6698   10.5593    2.1690 H   0  0  0  0  0  0  0  0  0  0  0  0
    6.0563   12.1196    4.4515 H   0  0  0  0  0  0  0  0  0  0  0  0
    5.4805   10.5211    5.0138 H   0  0  0  0  0  0  0  0  0  0  0  0
    4.8808   11.2014    3.4614 H   0  0  0  0  0  0  0  0  0  0  0  0
    5.9560    8.5398    3.0564 H   0  0  0  0  0  0  0  0  0  0  0  0
    6.1548    4.6467    1.3175 H   0  0  0  0  0  0  0  0  0  0  0  0
    4.8095    0.5485    1.2354 H   0  0  0  0  0  0  0  0  0  0  0  0
  1  2  1  0  0  0  0
  1 30  1  0  0  0  0
  1 31  1  0  0  0  0
  1 32  1  0  0  0  0
  2  3  1  0  0  0  0
  3  4  1  0  0  0  0
  3 29  2  0  0  0  0
  4  5  2  0  0  0  0
  4 33  1  0  0  0  0
  5  6  1  0  0  0  0
  5  7  1  0  0  0  0
  6 34  1  0  0  0  0
  7  8  2  0  0  0  0
  7 35  1  0  0  0  0
  8  9  1  0  0  0  0
  8 29  1  0  0  0  0
  9 10  1  0  0  0  0
  9 13  1  0  0  0  0
 10 11  1  0  0  0  0
 10 36  1  0  0  0  0
 10 37  1  0  0  0  0
 11 12  1  0  0  0  0
 11 38  1  0  0  0  0
 11 39  1  0  0  0  0
 12 40  1  0  0  0  0
 13 14  1  0  0  0  0
 13 28  2  0  0  0  0
 14 15  2  0  0  0  0
 14 41  1  0  0  0  0
 15 16  1  0  0  0  0
 15 42  1  0  0  0  0
 16 17  1  0  0  0  0
 16 27  2  0  0  0  0
 17 18  2  0  0  0  0
 18 19  1  0  0  0  0
 18 43  1  0  0  0  0
 19 20  1  0  0  0  0
 19 26  2  0  0  0  0
 20 21  1  0  0  0  0
 20 25  2  0  0  0  0
 21 22  2  0  0  0  0
 21 44  1  0  0  0  0
 22 23  1  0  0  0  0
 23 24  1  0  0  0  0
 23 25  1  0  0  0  0
 24 45  1  0  0  0  0
 24 46  1  0  0  0  0
 24 47  1  0  0  0  0
 25 48  1  0  0  0  0
 26 27  1  0  0  0  0
 27 28  1  0  0  0  0
 28 49  1  0  0  0  0
 29 50  1  0  0  0  0
M  END
$$$$
