CHEMBL3287316
 OpenBabel04072215363D

 67 71  0  0  0  0  0  0  0  0999 V2000
   19.2797   -4.4268   -4.0409 C   0  0  0  0  0  0  0  0  0  0  0  0
   17.6035   -4.8062   -3.6025 S   0  0  0  0  0  0  0  0  0  0  0  0
   16.8008   -4.6009   -4.7904 O   0  0  0  0  0  0  0  0  0  0  0  0
   17.6342   -6.0903   -2.9227 O   0  0  0  0  0  0  0  0  0  0  0  0
   17.2379   -3.5207   -2.4138 C   0  0  0  0  0  0  0  0  0  0  0  0
   15.8341   -3.6747   -1.8973 C   0  0  0  0  0  0  0  0  0  0  0  0
   15.5795   -4.4952   -0.7886 C   0  0  0  0  0  0  0  0  0  0  0  0
   14.2954   -4.5901   -0.2654 C   0  0  0  0  0  0  0  0  0  0  0  0
   13.2635   -3.8487   -0.8332 C   0  0  0  0  0  0  0  0  0  0  0  0
   13.4875   -3.0079   -1.9321 C   0  0  0  0  0  0  0  0  0  0  0  0
   12.4679   -2.1852   -2.4427 N   0  0  0  0  0  0  0  0  0  0  0  0
   11.4573   -1.5993   -1.6809 C   0  0  0  0  0  0  0  0  0  0  0  0
   10.3006   -1.2700   -2.2652 N   0  0  0  0  0  0  0  0  0  0  0  0
    9.3682   -0.6955   -1.4720 C   0  0  0  0  0  0  0  0  0  0  0  0
    9.5632   -0.3877   -0.1441 C   0  0  0  0  0  0  0  0  0  0  0  0
   10.8039   -0.7025    0.3374 C   0  0  0  0  0  0  0  0  0  0  0  0
   11.1541   -0.3049    1.6268 O   0  0  0  0  0  0  0  0  0  0  0  0
   12.5086   -0.1137    1.8602 C   0  0  0  0  0  0  0  0  0  0  0  0
   13.3528    0.5059    0.9448 C   0  0  0  0  0  0  0  0  0  0  0  0
   14.7276    0.6053    1.1813 C   0  0  0  0  0  0  0  0  0  0  0  0
   15.2756    0.1435    2.3784 C   0  0  0  0  0  0  0  0  0  0  0  0
   16.6587    0.1975    2.6641 N   0  0  0  0  0  0  0  0  0  0  0  0
   17.6275    0.8909    1.9601 C   0  0  0  0  0  0  0  0  0  0  0  0
   17.4612    1.6855    1.0451 O   0  0  0  0  0  0  0  0  0  0  0  0
   19.0314    0.6105    2.4155 C   0  0  0  0  0  0  0  0  0  0  0  0
   19.5261    1.3655    3.6122 C   0  0  0  0  0  0  0  0  0  0  0  0
   19.4086    0.8468    4.7160 O   0  0  0  0  0  0  0  0  0  0  0  0
   20.0419    2.6271    3.3597 N   0  0  0  0  0  0  0  0  0  0  0  0
   20.5821    3.4225    4.3930 C   0  0  0  0  0  0  0  0  0  0  0  0
   20.1844    4.7576    4.5080 C   0  0  0  0  0  0  0  0  0  0  0  0
   20.6503    5.5396    5.5722 C   0  0  0  0  0  0  0  0  0  0  0  0
   21.5662    5.0099    6.4804 C   0  0  0  0  0  0  0  0  0  0  0  0
   22.0003    3.6993    6.3241 C   0  0  0  0  0  0  0  0  0  0  0  0
   22.9082    3.2018    7.1749 F   0  0  0  0  0  0  0  0  0  0  0  0
   21.5065    2.8967    5.3004 C   0  0  0  0  0  0  0  0  0  0  0  0
   20.0630    0.1982    1.3628 C   0  0  0  0  0  0  0  0  0  0  0  0
   19.5088   -0.8425    2.2808 C   0  0  0  0  0  0  0  0  0  0  0  0
   14.4186   -0.4258    3.3305 C   0  0  0  0  0  0  0  0  0  0  0  0
   13.0469   -0.5446    3.0738 C   0  0  0  0  0  0  0  0  0  0  0  0
   12.2581   -1.0879    4.0126 F   0  0  0  0  0  0  0  0  0  0  0  0
   11.7191   -1.3470   -0.3951 N   0  0  0  0  0  0  0  0  0  0  0  0
   14.7719   -2.9630   -2.4852 C   0  0  0  0  0  0  0  0  0  0  0  0
   19.6177   -5.1677   -4.7678 H   0  0  0  0  0  0  0  0  0  0  0  0
   19.9009   -4.4755   -3.1452 H   0  0  0  0  0  0  0  0  0  0  0  0
   19.3144   -3.4292   -4.4819 H   0  0  0  0  0  0  0  0  0  0  0  0
   17.3741   -2.5518   -2.9045 H   0  0  0  0  0  0  0  0  0  0  0  0
   17.9626   -3.5973   -1.5966 H   0  0  0  0  0  0  0  0  0  0  0  0
   16.3793   -5.0648   -0.3200 H   0  0  0  0  0  0  0  0  0  0  0  0
   14.0930   -5.2223    0.5949 H   0  0  0  0  0  0  0  0  0  0  0  0
   12.2720   -3.9186   -0.3905 H   0  0  0  0  0  0  0  0  0  0  0  0
   12.1795   -2.3577   -3.3935 H   0  0  0  0  0  0  0  0  0  0  0  0
    8.4271   -0.4682   -1.9660 H   0  0  0  0  0  0  0  0  0  0  0  0
    8.8080    0.0939    0.4584 H   0  0  0  0  0  0  0  0  0  0  0  0
   12.9683    0.8716   -0.0100 H   0  0  0  0  0  0  0  0  0  0  0  0
   15.3460    1.0137    0.3875 H   0  0  0  0  0  0  0  0  0  0  0  0
   16.9718   -0.2929    3.4959 H   0  0  0  0  0  0  0  0  0  0  0  0
   19.7113    3.0921    2.5204 H   0  0  0  0  0  0  0  0  0  0  0  0
   19.4546    5.1815    3.8235 H   0  0  0  0  0  0  0  0  0  0  0  0
   20.2868    6.5560    5.7029 H   0  0  0  0  0  0  0  0  0  0  0  0
   21.9409    5.6048    7.3078 H   0  0  0  0  0  0  0  0  0  0  0  0
   21.8707    1.8781    5.2124 H   0  0  0  0  0  0  0  0  0  0  0  0
   21.0990    0.4866    1.5044 H   0  0  0  0  0  0  0  0  0  0  0  0
   19.7541    0.1753    0.3232 H   0  0  0  0  0  0  0  0  0  0  0  0
   20.1502   -1.2376    3.0623 H   0  0  0  0  0  0  0  0  0  0  0  0
   18.8281   -1.5766    1.8638 H   0  0  0  0  0  0  0  0  0  0  0  0
   14.7940   -0.7786    4.2867 H   0  0  0  0  0  0  0  0  0  0  0  0
   14.9587   -2.3174   -3.3413 H   0  0  0  0  0  0  0  0  0  0  0  0
  1  2  1  0  0  0  0
  1 43  1  0  0  0  0
  1 44  1  0  0  0  0
  1 45  1  0  0  0  0
  2  3  2  0  0  0  0
  2  4  2  0  0  0  0
  2  5  1  0  0  0  0
  5  6  1  0  0  0  0
  5 46  1  0  0  0  0
  5 47  1  0  0  0  0
  6  7  1  0  0  0  0
  6 42  2  0  0  0  0
  7  8  2  0  0  0  0
  7 48  1  0  0  0  0
  8  9  1  0  0  0  0
  8 49  1  0  0  0  0
  9 10  2  0  0  0  0
  9 50  1  0  0  0  0
 10 11  1  0  0  0  0
 10 42  1  0  0  0  0
 11 12  1  0  0  0  0
 11 51  1  0  0  0  0
 12 13  1  0  0  0  0
 12 41  2  0  0  0  0
 13 14  2  0  0  0  0
 14 15  1  0  0  0  0
 14 52  1  0  0  0  0
 15 16  2  0  0  0  0
 15 53  1  0  0  0  0
 16 17  1  0  0  0  0
 16 41  1  0  0  0  0
 17 18  1  0  0  0  0
 18 19  1  0  0  0  0
 18 39  2  0  0  0  0
 19 20  2  0  0  0  0
 19 54  1  0  0  0  0
 20 21  1  0  0  0  0
 20 55  1  0  0  0  0
 21 22  1  0  0  0  0
 21 38  2  0  0  0  0
 22 23  1  0  0  0  0
 22 56  1  0  0  0  0
 23 24  2  0  0  0  0
 23 25  1  0  0  0  0
 25 26  1  0  0  0  0
 25 36  1  0  0  0  0
 25 37  1  0  0  0  0
 26 27  2  0  0  0  0
 26 28  1  0  0  0  0
 28 29  1  0  0  0  0
 28 57  1  0  0  0  0
 29 30  1  0  0  0  0
 29 35  2  0  0  0  0
 30 31  2  0  0  0  0
 30 58  1  0  0  0  0
 31 32  1  0  0  0  0
 31 59  1  0  0  0  0
 32 33  2  0  0  0  0
 32 60  1  0  0  0  0
 33 34  1  0  0  0  0
 33 35  1  0  0  0  0
 35 61  1  0  0  0  0
 36 37  1  0  0  0  0
 36 62  1  0  0  0  0
 36 63  1  0  0  0  0
 37 64  1  0  0  0  0
 37 65  1  0  0  0  0
 38 39  1  0  0  0  0
 38 66  1  0  0  0  0
 39 40  1  0  0  0  0
 42 67  1  0  0  0  0
M  END
$$$$
