CHEMBL3690434
 OpenBabel04072215373D

 64 68  0  0  0  0  0  0  0  0999 V2000
    6.1762    0.3934    0.3776 C   0  0  0  0  0  0  0  0  0  0  0  0
    5.3136    0.0651    1.6171 C   0  0  0  0  0  0  0  0  0  0  0  0
    4.5846   -1.2646    1.3276 C   0  0  0  0  0  0  0  0  0  0  0  0
    6.2264   -0.1410    2.8423 C   0  0  0  0  0  0  0  0  0  0  0  0
    7.4536   -0.0482    2.7671 O   0  0  0  0  0  0  0  0  0  0  0  0
    5.5936   -0.4671    4.0337 N   0  0  0  0  0  0  0  0  0  0  0  0
    6.3456   -0.7244    5.2251 C   0  0  0  0  0  0  0  0  0  0  0  0
    6.8050   -2.1240    5.5359 C   0  0  0  0  0  0  0  0  0  0  0  0
    5.7637   -1.4698    6.3938 C   0  0  0  0  0  0  0  0  0  0  0  0
    4.3980    1.1868    1.8762 N   0  0  0  0  0  0  0  0  0  0  0  0
    4.7546    2.4815    2.1564 C   0  0  0  0  0  0  0  0  0  0  0  0
    3.5893    3.2146    2.2311 C   0  0  0  0  0  0  0  0  0  0  0  0
    3.5030    4.6392    2.4104 C   0  0  0  0  0  0  0  0  0  0  0  0
    4.6666    5.3721    2.9415 C   0  0  0  0  0  0  0  0  0  0  0  0
    4.7330    6.7085    2.8350 C   0  0  0  0  0  0  0  0  0  0  0  0
    3.5729    7.4100    2.5225 N   0  0  0  0  0  0  0  0  0  0  0  0
    3.2503    8.7421    2.7389 C   0  0  0  0  0  0  0  0  0  0  0  0
    4.0313    9.7440    3.4819 C   0  0  0  0  0  0  0  0  0  0  0  0
    3.9698   11.0829    3.0781 C   0  0  0  0  0  0  0  0  0  0  0  0
    4.6001   12.0749    3.8207 C   0  0  0  0  0  0  0  0  0  0  0  0
    5.2790   11.7419    4.9902 C   0  0  0  0  0  0  0  0  0  0  0  0
    5.3347   10.4307    5.4508 C   0  0  0  0  0  0  0  0  0  0  0  0
    5.9515   10.0603    6.6773 N   0  0  0  0  0  0  0  0  0  0  0  0
    6.5075   10.9387    7.5913 C   0  0  0  0  0  0  0  0  0  0  0  0
    6.5667   12.1510    7.5016 O   0  0  0  0  0  0  0  0  0  0  0  0
    7.1089   10.2949    8.6507 N   0  0  0  0  0  0  0  0  0  0  0  0
    7.7623   11.1455    9.6730 C   0  0  0  0  0  0  0  0  0  0  0  0
    6.8433   11.7525   10.7458 C   0  0  0  0  0  0  0  0  0  0  0  0
    5.5700   11.3082   10.6412 F   0  0  0  0  0  0  0  0  0  0  0  0
    7.2815   11.3939   11.9798 F   0  0  0  0  0  0  0  0  0  0  0  0
    6.8248   13.1010   10.7067 F   0  0  0  0  0  0  0  0  0  0  0  0
    4.7226    9.4263    4.6727 C   0  0  0  0  0  0  0  0  0  0  0  0
    1.9444    8.8417    2.2774 C   0  0  0  0  0  0  0  0  0  0  0  0
    1.4468    7.6368    1.8593 N   0  0  0  0  0  0  0  0  0  0  0  0
    2.4123    6.7761    2.0884 C   0  0  0  0  0  0  0  0  0  0  0  0
    2.4352    5.3552    1.9795 C   0  0  0  0  0  0  0  0  0  0  0  0
    2.5739    2.2591    2.0087 C   0  0  0  0  0  0  0  0  0  0  0  0
    3.0579    1.0255    1.8256 N   0  0  0  0  0  0  0  0  0  0  0  0
    6.8836   -0.4164    0.1620 H   0  0  0  0  0  0  0  0  0  0  0  0
    6.7709    1.3035    0.5203 H   0  0  0  0  0  0  0  0  0  0  0  0
    5.5554    0.5431   -0.5135 H   0  0  0  0  0  0  0  0  0  0  0  0
    5.3069   -2.0733    1.1614 H   0  0  0  0  0  0  0  0  0  0  0  0
    3.9579   -1.1921    0.4308 H   0  0  0  0  0  0  0  0  0  0  0  0
    3.9407   -1.5750    2.1574 H   0  0  0  0  0  0  0  0  0  0  0  0
    4.5841   -0.3712    4.1054 H   0  0  0  0  0  0  0  0  0  0  0  0
    7.0424    0.0775    5.4627 H   0  0  0  0  0  0  0  0  0  0  0  0
    7.8047   -2.2443    5.9382 H   0  0  0  0  0  0  0  0  0  0  0  0
    6.4921   -2.9322    4.8852 H   0  0  0  0  0  0  0  0  0  0  0  0
    6.0629   -1.1655    7.3910 H   0  0  0  0  0  0  0  0  0  0  0  0
    4.7519   -1.8505    6.3323 H   0  0  0  0  0  0  0  0  0  0  0  0
    5.7944    2.7715    2.2239 H   0  0  0  0  0  0  0  0  0  0  0  0
    5.4729    4.8229    3.4159 H   0  0  0  0  0  0  0  0  0  0  0  0
    5.6215    7.2775    3.0735 H   0  0  0  0  0  0  0  0  0  0  0  0
    3.4107   11.3769    2.1927 H   0  0  0  0  0  0  0  0  0  0  0  0
    4.5480   13.1161    3.5135 H   0  0  0  0  0  0  0  0  0  0  0  0
    5.7433   12.5628    5.5263 H   0  0  0  0  0  0  0  0  0  0  0  0
    5.9522    9.0856    6.9197 H   0  0  0  0  0  0  0  0  0  0  0  0
    6.7035    9.4331    8.9640 H   0  0  0  0  0  0  0  0  0  0  0  0
    8.2898   11.9621    9.1651 H   0  0  0  0  0  0  0  0  0  0  0  0
    8.5262   10.5245   10.1482 H   0  0  0  0  0  0  0  0  0  0  0  0
    4.7417    8.3999    5.0250 H   0  0  0  0  0  0  0  0  0  0  0  0
    1.3085    9.7178    2.3086 H   0  0  0  0  0  0  0  0  0  0  0  0
    1.5770    4.8905    1.5067 H   0  0  0  0  0  0  0  0  0  0  0  0
    1.5014    2.4054    1.9622 H   0  0  0  0  0  0  0  0  0  0  0  0
  1  2  1  0  0  0  0
  1 39  1  0  0  0  0
  1 40  1  0  0  0  0
  1 41  1  0  0  0  0
  2  3  1  0  0  0  0
  2  4  1  0  0  0  0
  2 10  1  0  0  0  0
  3 42  1  0  0  0  0
  3 43  1  0  0  0  0
  3 44  1  0  0  0  0
  4  5  2  0  0  0  0
  4  6  1  0  0  0  0
  6  7  1  0  0  0  0
  6 45  1  0  0  0  0
  7  8  1  0  0  0  0
  7  9  1  0  0  0  0
  7 46  1  0  0  0  0
  8  9  1  0  0  0  0
  8 47  1  0  0  0  0
  8 48  1  0  0  0  0
  9 49  1  0  0  0  0
  9 50  1  0  0  0  0
 10 11  1  0  0  0  0
 10 38  1  0  0  0  0
 11 12  2  0  0  0  0
 11 51  1  0  0  0  0
 12 13  1  0  0  0  0
 12 37  1  0  0  0  0
 13 14  1  0  0  0  0
 13 36  2  0  0  0  0
 14 15  2  0  0  0  0
 14 52  1  0  0  0  0
 15 16  1  0  0  0  0
 15 53  1  0  0  0  0
 16 17  1  0  0  0  0
 16 35  1  0  0  0  0
 17 18  1  0  0  0  0
 17 33  2  0  0  0  0
 18 19  1  0  0  0  0
 18 32  2  0  0  0  0
 19 20  2  0  0  0  0
 19 54  1  0  0  0  0
 20 21  1  0  0  0  0
 20 55  1  0  0  0  0
 21 22  2  0  0  0  0
 21 56  1  0  0  0  0
 22 23  1  0  0  0  0
 22 32  1  0  0  0  0
 23 24  1  0  0  0  0
 23 57  1  0  0  0  0
 24 25  2  0  0  0  0
 24 26  1  0  0  0  0
 26 27  1  0  0  0  0
 26 58  1  0  0  0  0
 27 28  1  0  0  0  0
 27 59  1  0  0  0  0
 27 60  1  0  0  0  0
 28 29  1  0  0  0  0
 28 30  1  0  0  0  0
 28 31  1  0  0  0  0
 32 61  1  0  0  0  0
 33 34  1  0  0  0  0
 33 62  1  0  0  0  0
 34 35  2  0  0  0  0
 35 36  1  0  0  0  0
 36 63  1  0  0  0  0
 37 38  2  0  0  0  0
 37 64  1  0  0  0  0
M  END
$$$$
