CHEMBL255746
 OpenBabel04072215363D

 42 45  0  0  0  0  0  0  0  0999 V2000
    1.3819   -0.1760   -1.7412 N   0  0  0  0  0  0  0  0  0  0  0  0
    2.6917   -0.2270   -1.4453 C   0  0  0  0  0  0  0  0  0  0  0  0
    3.4998    0.7678   -1.8072 N   0  0  0  0  0  0  0  0  0  0  0  0
    4.6895    0.4004   -1.3087 N   0  0  0  0  0  0  0  0  0  0  0  0
    4.6676   -0.7873   -0.6448 C   0  0  0  0  0  0  0  0  0  0  0  0
    5.7310   -1.3407   -0.0333 N   0  0  0  0  0  0  0  0  0  0  0  0
    5.4394   -2.5177    0.5467 C   0  0  0  0  0  0  0  0  0  0  0  0
    4.1966   -3.1336    0.5232 C   0  0  0  0  0  0  0  0  0  0  0  0
    3.0922   -2.5202   -0.1198 C   0  0  0  0  0  0  0  0  0  0  0  0
    1.7571   -3.1432   -0.0794 C   0  0  0  0  0  0  0  0  0  0  0  0
    1.3199   -3.7769    1.0944 C   0  0  0  0  0  0  0  0  0  0  0  0
    0.0488   -4.3448    1.1943 C   0  0  0  0  0  0  0  0  0  0  0  0
   -0.8574   -4.2562    0.1404 C   0  0  0  0  0  0  0  0  0  0  0  0
   -2.1809   -4.7394    0.2471 N   0  0  0  0  0  0  0  0  0  0  0  0
   -2.8386   -4.9268    1.4522 C   0  0  0  0  0  0  0  0  0  0  0  0
   -2.4248   -4.5444    2.5414 O   0  0  0  0  0  0  0  0  0  0  0  0
   -4.0190   -5.6352    1.2851 N   0  0  0  0  0  0  0  0  0  0  0  0
   -4.8898   -5.8880    2.3704 C   0  0  0  0  0  0  0  0  0  0  0  0
   -5.1354   -4.9215    3.3553 C   0  0  0  0  0  0  0  0  0  0  0  0
   -5.9718   -5.2023    4.4355 C   0  0  0  0  0  0  0  0  0  0  0  0
   -6.5626   -6.4585    4.5435 C   0  0  0  0  0  0  0  0  0  0  0  0
   -6.3246   -7.4186    3.5604 C   0  0  0  0  0  0  0  0  0  0  0  0
   -7.0215   -8.9851    3.7189 Cl  0  0  0  0  0  0  0  0  0  0  0  0
   -5.5104   -7.1343    2.4620 C   0  0  0  0  0  0  0  0  0  0  0  0
   -0.4281   -3.6874   -1.0583 C   0  0  0  0  0  0  0  0  0  0  0  0
    0.8720   -3.1611   -1.1696 C   0  0  0  0  0  0  0  0  0  0  0  0
    3.3630   -1.2700   -0.7320 C   0  0  0  0  0  0  0  0  0  0  0  0
    1.0625    0.7193   -2.1010 H   0  0  0  0  0  0  0  0  0  0  0  0
    0.7206   -0.5919   -1.0964 H   0  0  0  0  0  0  0  0  0  0  0  0
    5.4870    1.0088   -1.4383 H   0  0  0  0  0  0  0  0  0  0  0  0
    6.2705   -2.9869    1.0681 H   0  0  0  0  0  0  0  0  0  0  0  0
    4.0876   -4.0932    1.0215 H   0  0  0  0  0  0  0  0  0  0  0  0
    1.9592   -3.8309    1.9735 H   0  0  0  0  0  0  0  0  0  0  0  0
   -0.2066   -4.8443    2.1249 H   0  0  0  0  0  0  0  0  0  0  0  0
   -2.7730   -4.6587   -0.5673 H   0  0  0  0  0  0  0  0  0  0  0  0
   -3.9874   -6.3288    0.5511 H   0  0  0  0  0  0  0  0  0  0  0  0
   -4.6761   -3.9364    3.2937 H   0  0  0  0  0  0  0  0  0  0  0  0
   -6.1466   -4.4444    5.1952 H   0  0  0  0  0  0  0  0  0  0  0  0
   -7.1971   -6.6836    5.3960 H   0  0  0  0  0  0  0  0  0  0  0  0
   -5.3215   -7.9052    1.7217 H   0  0  0  0  0  0  0  0  0  0  0  0
   -1.0931   -3.6175   -1.9148 H   0  0  0  0  0  0  0  0  0  0  0  0
    1.1769   -2.7424   -2.1279 H   0  0  0  0  0  0  0  0  0  0  0  0
  1  2  1  0  0  0  0
  1 28  1  0  0  0  0
  1 29  1  0  0  0  0
  2  3  2  0  0  0  0
  2 27  1  0  0  0  0
  3  4  1  0  0  0  0
  4  5  1  0  0  0  0
  4 30  1  0  0  0  0
  5  6  1  0  0  0  0
  5 27  2  0  0  0  0
  6  7  2  0  0  0  0
  7  8  1  0  0  0  0
  7 31  1  0  0  0  0
  8  9  2  0  0  0  0
  8 32  1  0  0  0  0
  9 10  1  0  0  0  0
  9 27  1  0  0  0  0
 10 11  1  0  0  0  0
 10 26  2  0  0  0  0
 11 12  2  0  0  0  0
 11 33  1  0  0  0  0
 12 13  1  0  0  0  0
 12 34  1  0  0  0  0
 13 14  1  0  0  0  0
 13 25  2  0  0  0  0
 14 15  1  0  0  0  0
 14 35  1  0  0  0  0
 15 16  2  0  0  0  0
 15 17  1  0  0  0  0
 17 18  1  0  0  0  0
 17 36  1  0  0  0  0
 18 19  1  0  0  0  0
 18 24  2  0  0  0  0
 19 20  2  0  0  0  0
 19 37  1  0  0  0  0
 20 21  1  0  0  0  0
 20 38  1  0  0  0  0
 21 22  2  0  0  0  0
 21 39  1  0  0  0  0
 22 23  1  0  0  0  0
 22 24  1  0  0  0  0
 24 40  1  0  0  0  0
 25 26  1  0  0  0  0
 25 41  1  0  0  0  0
 26 42  1  0  0  0  0
M  END
$$$$
