CHEMBL4439053
 OpenBabel04072215383D

 48 51  0  0  0  0  0  0  0  0999 V2000
    1.0887    0.0462    0.3732 O   0  0  0  0  0  0  0  0  0  0  0  0
    2.3034    0.0952    0.2334 C   0  0  0  0  0  0  0  0  0  0  0  0
    3.0065    0.9976   -0.5379 N   0  0  0  0  0  0  0  0  0  0  0  0
    2.4163    2.0110   -1.2602 C   0  0  0  0  0  0  0  0  0  0  0  0
    1.1128    2.5336   -1.2666 C   0  0  0  0  0  0  0  0  0  0  0  0
    0.9633    3.5090   -2.1675 N   0  0  0  0  0  0  0  0  0  0  0  0
    2.1634    3.5730   -2.8027 N   0  0  0  0  0  0  0  0  0  0  0  0
    2.3494    4.3802   -3.9582 C   0  0  0  0  0  0  0  0  0  0  0  0
    1.2936    5.1760   -4.4244 C   0  0  0  0  0  0  0  0  0  0  0  0
    1.4510    5.9392   -5.5828 C   0  0  0  0  0  0  0  0  0  0  0  0
    2.6565    5.9111   -6.2823 C   0  0  0  0  0  0  0  0  0  0  0  0
    3.7099    5.1243   -5.8239 C   0  0  0  0  0  0  0  0  0  0  0  0
    3.5618    4.3608   -4.6639 C   0  0  0  0  0  0  0  0  0  0  0  0
    3.0876    2.7428   -2.2053 C   0  0  0  0  0  0  0  0  0  0  0  0
    3.1555   -0.9348    0.8772 C   0  0  0  0  0  0  0  0  0  0  0  0
    2.7062   -2.2584    0.9211 C   0  0  0  0  0  0  0  0  0  0  0  0
    3.5249   -3.2474    1.4664 C   0  0  0  0  0  0  0  0  0  0  0  0
    4.7856   -2.9114    1.9674 C   0  0  0  0  0  0  0  0  0  0  0  0
    5.2106   -1.5826    1.9571 C   0  0  0  0  0  0  0  0  0  0  0  0
    6.4853   -1.2391    2.4773 N   0  0  0  0  0  0  0  0  0  0  0  0
    7.8590   -1.4062    1.5170 S   0  0  0  0  0  0  0  0  0  0  0  0
    8.9657   -0.9063    2.3050 O   0  0  0  0  0  0  0  0  0  0  0  0
    7.8823   -2.7282    0.9329 O   0  0  0  0  0  0  0  0  0  0  0  0
    7.5910   -0.2351    0.1937 C   0  0  0  0  0  0  0  0  0  0  0  0
    8.0773    1.0727    0.3210 C   0  0  0  0  0  0  0  0  0  0  0  0
    7.9348    1.9693   -0.7432 C   0  0  0  0  0  0  0  0  0  0  0  0
    7.3202    1.5530   -1.9239 C   0  0  0  0  0  0  0  0  0  0  0  0
    7.1641    2.6515   -3.2377 Cl  0  0  0  0  0  0  0  0  0  0  0  0
    6.8427    0.2476   -2.0529 C   0  0  0  0  0  0  0  0  0  0  0  0
    6.9858   -0.6543   -0.9936 C   0  0  0  0  0  0  0  0  0  0  0  0
    4.3994   -0.5891    1.4189 C   0  0  0  0  0  0  0  0  0  0  0  0
    3.9894    0.8386   -0.7163 H   0  0  0  0  0  0  0  0  0  0  0  0
    0.2666    2.2519   -0.6519 H   0  0  0  0  0  0  0  0  0  0  0  0
    0.3400    5.2047   -3.8996 H   0  0  0  0  0  0  0  0  0  0  0  0
    0.6273    6.5510   -5.9425 H   0  0  0  0  0  0  0  0  0  0  0  0
    2.7732    6.4999   -7.1883 H   0  0  0  0  0  0  0  0  0  0  0  0
    4.6481    5.0966   -6.3731 H   0  0  0  0  0  0  0  0  0  0  0  0
    4.4049    3.7528   -4.3554 H   0  0  0  0  0  0  0  0  0  0  0  0
    4.1105    2.6963   -2.5384 H   0  0  0  0  0  0  0  0  0  0  0  0
    1.7291   -2.5207    0.5179 H   0  0  0  0  0  0  0  0  0  0  0  0
    3.1823   -4.2795    1.4996 H   0  0  0  0  0  0  0  0  0  0  0  0
    5.4203   -3.6884    2.3885 H   0  0  0  0  0  0  0  0  0  0  0  0
    6.5463   -0.4641    3.1361 H   0  0  0  0  0  0  0  0  0  0  0  0
    8.5904    1.3958    1.2243 H   0  0  0  0  0  0  0  0  0  0  0  0
    8.3257    2.9809   -0.6538 H   0  0  0  0  0  0  0  0  0  0  0  0
    6.3848   -0.0815   -2.9828 H   0  0  0  0  0  0  0  0  0  0  0  0
    6.6443   -1.6814   -1.1112 H   0  0  0  0  0  0  0  0  0  0  0  0
    4.7283    0.4453    1.4286 H   0  0  0  0  0  0  0  0  0  0  0  0
  1  2  2  0  0  0  0
  2  3  1  0  0  0  0
  2 15  1  0  0  0  0
  3  4  1  0  0  0  0
  3 32  1  0  0  0  0
  4  5  1  0  0  0  0
  4 14  2  0  0  0  0
  5  6  2  0  0  0  0
  5 33  1  0  0  0  0
  6  7  1  0  0  0  0
  7  8  1  0  0  0  0
  7 14  1  0  0  0  0
  8  9  1  0  0  0  0
  8 13  2  0  0  0  0
  9 10  2  0  0  0  0
  9 34  1  0  0  0  0
 10 11  1  0  0  0  0
 10 35  1  0  0  0  0
 11 12  2  0  0  0  0
 11 36  1  0  0  0  0
 12 13  1  0  0  0  0
 12 37  1  0  0  0  0
 13 38  1  0  0  0  0
 14 39  1  0  0  0  0
 15 16  1  0  0  0  0
 15 31  2  0  0  0  0
 16 17  2  0  0  0  0
 16 40  1  0  0  0  0
 17 18  1  0  0  0  0
 17 41  1  0  0  0  0
 18 19  2  0  0  0  0
 18 42  1  0  0  0  0
 19 20  1  0  0  0  0
 19 31  1  0  0  0  0
 20 21  1  0  0  0  0
 20 43  1  0  0  0  0
 21 22  2  0  0  0  0
 21 23  2  0  0  0  0
 21 24  1  0  0  0  0
 24 25  1  0  0  0  0
 24 30  2  0  0  0  0
 25 26  2  0  0  0  0
 25 44  1  0  0  0  0
 26 27  1  0  0  0  0
 26 45  1  0  0  0  0
 27 28  1  0  0  0  0
 27 29  2  0  0  0  0
 29 30  1  0  0  0  0
 29 46  1  0  0  0  0
 30 47  1  0  0  0  0
 31 48  1  0  0  0  0
M  END
$$$$
