CHEMBL3958209
 OpenBabel04072215373D

 67 70  0  0  0  0  0  0  0  0999 V2000
    0.2985    3.1463   -1.9181 C   0  0  0  0  0  0  0  0  0  0  0  0
    1.6161    3.6629   -2.0981 O   0  0  0  0  0  0  0  0  0  0  0  0
    2.5893    2.8290   -1.6244 C   0  0  0  0  0  0  0  0  0  0  0  0
    2.4500    1.9786   -0.5860 C   0  0  0  0  0  0  0  0  0  0  0  0
    3.4782    1.1245   -0.2143 C   0  0  0  0  0  0  0  0  0  0  0  0
    3.3483    0.2353    0.8134 O   0  0  0  0  0  0  0  0  0  0  0  0
    2.0729    0.2700    1.4540 C   0  0  0  0  0  0  0  0  0  0  0  0
    4.6879    1.1136   -0.9119 C   0  0  0  0  0  0  0  0  0  0  0  0
    4.8746    1.8889   -2.0459 C   0  0  0  0  0  0  0  0  0  0  0  0
    6.0806    1.7765   -2.8027 N   0  0  0  0  0  0  0  0  0  0  0  0
    6.7869    0.4127   -2.8191 C   0  0  0  0  0  0  0  0  0  0  0  0
    5.9410   -0.7298   -3.3619 C   0  0  0  0  0  0  0  0  0  0  0  0
    6.4974   -2.0728   -3.4110 N   0  0  0  0  0  0  0  0  0  0  0  0
    5.4797   -2.9857   -3.9722 C   0  0  0  0  0  0  0  0  0  0  0  0
    5.0437   -2.5945   -5.3876 C   0  0  0  0  0  0  0  0  0  0  0  0
    6.1376   -4.3482   -4.0186 C   0  0  0  0  0  0  0  0  0  0  0  0
    7.0058    2.8735   -3.1238 C   0  0  0  0  0  0  0  0  0  0  0  0
    7.6693    2.7273   -4.3141 C   0  0  0  0  0  0  0  0  0  0  0  0
    8.5644    3.6868   -4.6499 C   0  0  0  0  0  0  0  0  0  0  0  0
    8.9183    4.7765   -3.8500 C   0  0  0  0  0  0  0  0  0  0  0  0
   10.1695    4.7650   -4.0349 N   0  0  0  0  0  0  0  0  0  0  0  0
   10.5604    5.4466   -5.0383 C   0  0  0  0  0  0  0  0  0  0  0  0
   10.8027    6.6089   -4.5636 C   0  0  0  0  0  0  0  0  0  0  0  0
   12.1055    7.1489   -5.7137 C   0  0  0  0  0  0  0  0  0  0  0  0
   12.9028    8.4499   -5.6679 C   0  0  0  0  0  0  0  0  0  0  0  0
   13.6387    8.8986   -6.7242 N   0  0  0  0  0  0  0  0  0  0  0  0
   13.4032    8.0094   -7.7033 N   0  0  0  0  0  0  0  0  0  0  0  0
   14.1142    8.1345   -9.0590 C   0  0  0  0  0  0  0  0  0  0  0  0
   15.6403    8.0533   -8.9051 C   0  0  0  0  0  0  0  0  0  0  0  0
   16.4356    8.1591  -10.2206 C   0  0  0  0  0  0  0  0  0  0  0  0
   17.0492    8.2373  -11.2138 N   0  0  0  0  0  0  0  0  0  0  0  0
   12.3795    7.0225   -7.1825 C   0  0  0  0  0  0  0  0  0  0  0  0
    9.7610    6.7312   -3.2464 N   0  0  0  0  0  0  0  0  0  0  0  0
    8.5939    5.4547   -2.7635 C   0  0  0  0  0  0  0  0  0  0  0  0
    7.4230    4.1465   -2.3230 C   0  0  0  0  0  0  0  0  0  0  0  0
    3.8144    2.8122   -2.2682 C   0  0  0  0  0  0  0  0  0  0  0  0
   -0.4118    3.8057   -2.4192 H   0  0  0  0  0  0  0  0  0  0  0  0
    0.0629    3.1225   -0.8526 H   0  0  0  0  0  0  0  0  0  0  0  0
    0.1675    2.1494   -2.3557 H   0  0  0  0  0  0  0  0  0  0  0  0
    1.5246    2.0190   -0.0561 H   0  0  0  0  0  0  0  0  0  0  0  0
    2.0766   -0.4786    2.2419 H   0  0  0  0  0  0  0  0  0  0  0  0
    1.2582    0.0249    0.7567 H   0  0  0  0  0  0  0  0  0  0  0  0
    1.8949    1.2502    1.9156 H   0  0  0  0  0  0  0  0  0  0  0  0
    5.5024    0.5015   -0.5498 H   0  0  0  0  0  0  0  0  0  0  0  0
    7.1540    0.0845   -1.8415 H   0  0  0  0  0  0  0  0  0  0  0  0
    7.6168    0.5080   -3.5127 H   0  0  0  0  0  0  0  0  0  0  0  0
    5.8096   -0.4500   -4.4049 H   0  0  0  0  0  0  0  0  0  0  0  0
    5.0468   -0.8220   -2.7316 H   0  0  0  0  0  0  0  0  0  0  0  0
    6.7067   -2.3400   -2.4525 H   0  0  0  0  0  0  0  0  0  0  0  0
    4.5898   -3.0319   -3.3260 H   0  0  0  0  0  0  0  0  0  0  0  0
    5.9129   -2.5179   -6.0492 H   0  0  0  0  0  0  0  0  0  0  0  0
    4.5200   -1.6361   -5.4113 H   0  0  0  0  0  0  0  0  0  0  0  0
    4.3428   -3.3256   -5.7973 H   0  0  0  0  0  0  0  0  0  0  0  0
    7.0250   -4.3180   -4.6613 H   0  0  0  0  0  0  0  0  0  0  0  0
    5.4458   -5.0928   -4.4190 H   0  0  0  0  0  0  0  0  0  0  0  0
    6.4437   -4.6574   -3.0152 H   0  0  0  0  0  0  0  0  0  0  0  0
    7.6593    1.8657   -4.9682 H   0  0  0  0  0  0  0  0  0  0  0  0
    9.1937    3.5328   -5.5380 H   0  0  0  0  0  0  0  0  0  0  0  0
   10.8776    4.8921   -5.8777 H   0  0  0  0  0  0  0  0  0  0  0  0
   12.9203    9.1557   -4.8496 H   0  0  0  0  0  0  0  0  0  0  0  0
   13.8655    9.0991   -9.5471 H   0  0  0  0  0  0  0  0  0  0  0  0
   13.7904    7.3605   -9.7806 H   0  0  0  0  0  0  0  0  0  0  0  0
   15.8771    7.0968   -8.4221 H   0  0  0  0  0  0  0  0  0  0  0  0
   15.9544    8.8644   -8.2359 H   0  0  0  0  0  0  0  0  0  0  0  0
   12.0537    6.4517   -8.0370 H   0  0  0  0  0  0  0  0  0  0  0  0
    6.8418    4.0410   -1.3350 H   0  0  0  0  0  0  0  0  0  0  0  0
    3.8043    3.6624   -2.9089 H   0  0  0  0  0  0  0  0  0  0  0  0
  1  2  1  0  0  0  0
  1 37  1  0  0  0  0
  1 38  1  0  0  0  0
  1 39  1  0  0  0  0
  2  3  1  0  0  0  0
  3  4  1  0  0  0  0
  3 36  2  0  0  0  0
  4  5  2  0  0  0  0
  4 40  1  0  0  0  0
  5  6  1  0  0  0  0
  5  8  1  0  0  0  0
  6  7  1  0  0  0  0
  7 41  1  0  0  0  0
  7 42  1  0  0  0  0
  7 43  1  0  0  0  0
  8  9  2  0  0  0  0
  8 44  1  0  0  0  0
  9 10  1  0  0  0  0
  9 36  1  0  0  0  0
 10 11  1  0  0  0  0
 10 17  1  0  0  0  0
 11 12  1  0  0  0  0
 11 45  1  0  0  0  0
 11 46  1  0  0  0  0
 12 13  1  0  0  0  0
 12 47  1  0  0  0  0
 12 48  1  0  0  0  0
 13 14  1  0  0  0  0
 13 49  1  0  0  0  0
 14 15  1  0  0  0  0
 14 16  1  0  0  0  0
 14 50  1  0  0  0  0
 15 51  1  0  0  0  0
 15 52  1  0  0  0  0
 15 53  1  0  0  0  0
 16 54  1  0  0  0  0
 16 55  1  0  0  0  0
 16 56  1  0  0  0  0
 17 18  1  0  0  0  0
 17 35  2  0  0  0  0
 18 19  2  0  0  0  0
 18 57  1  0  0  0  0
 19 20  1  0  0  0  0
 19 58  1  0  0  0  0
 20 21  1  0  0  0  0
 20 34  2  0  0  0  0
 21 22  2  0  0  0  0
 22 23  1  0  0  0  0
 22 59  1  0  0  0  0
 23 24  1  0  0  0  0
 23 33  2  0  0  0  0
 24 25  1  0  0  0  0
 24 32  2  0  0  0  0
 25 26  2  0  0  0  0
 25 60  1  0  0  0  0
 26 27  1  0  0  0  0
 27 28  1  0  0  0  0
 27 32  1  0  0  0  0
 28 29  1  0  0  0  0
 28 61  1  0  0  0  0
 28 62  1  0  0  0  0
 29 30  1  0  0  0  0
 29 63  1  0  0  0  0
 29 64  1  0  0  0  0
 30 31  3  0  0  0  0
 32 65  1  0  0  0  0
 33 34  1  0  0  0  0
 34 35  1  0  0  0  0
 35 66  1  0  0  0  0
 36 67  1  0  0  0  0
M  END
$$$$
