CHEMBL3690585
 OpenBabel04072215373D

 51 54  0  0  0  0  0  0  0  0999 V2000
    1.1153    2.4138    1.2522 C   0  0  0  0  0  0  0  0  0  0  0  0
    0.7217    1.1118    0.6237 C   0  0  0  0  0  0  0  0  0  0  0  0
    1.5933    0.0461    0.6051 C   0  0  0  0  0  0  0  0  0  0  0  0
    1.1342   -1.1320    0.0466 C   0  0  0  0  0  0  0  0  0  0  0  0
    1.9645   -2.3654    0.0125 C   0  0  0  0  0  0  0  0  0  0  0  0
    1.8781   -3.3344   -1.0894 C   0  0  0  0  0  0  0  0  0  0  0  0
    2.6172   -4.4570   -1.0666 C   0  0  0  0  0  0  0  0  0  0  0  0
    3.4490   -4.7184    0.0245 N   0  0  0  0  0  0  0  0  0  0  0  0
    4.2699   -5.8012    0.3253 C   0  0  0  0  0  0  0  0  0  0  0  0
    4.4661   -7.0327   -0.4515 C   0  0  0  0  0  0  0  0  0  0  0  0
    5.7335   -7.6337   -0.4495 C   0  0  0  0  0  0  0  0  0  0  0  0
    5.9661   -8.8129   -1.1492 C   0  0  0  0  0  0  0  0  0  0  0  0
    4.9339   -9.4139   -1.8650 C   0  0  0  0  0  0  0  0  0  0  0  0
    3.6518   -8.8621   -1.8691 C   0  0  0  0  0  0  0  0  0  0  0  0
    2.5640   -9.4393   -2.5661 N   0  0  0  0  0  0  0  0  0  0  0  0
    2.5773  -10.6254   -3.2637 C   0  0  0  0  0  0  0  0  0  0  0  0
    3.5155  -11.4014   -3.3910 O   0  0  0  0  0  0  0  0  0  0  0  0
    1.3755  -10.8736   -3.8916 N   0  0  0  0  0  0  0  0  0  0  0  0
    1.2387  -12.1348   -4.6350 C   0  0  0  0  0  0  0  0  0  0  0  0
    0.9765  -13.3877   -3.7853 C   0  0  0  0  0  0  0  0  0  0  0  0
    0.7221  -13.0781   -2.4926 F   0  0  0  0  0  0  0  0  0  0  0  0
   -0.1192  -14.0383   -4.2524 F   0  0  0  0  0  0  0  0  0  0  0  0
    2.0042  -14.2603   -3.8168 F   0  0  0  0  0  0  0  0  0  0  0  0
    3.4269   -7.6776   -1.1491 C   0  0  0  0  0  0  0  0  0  0  0  0
    4.8865   -5.4278    1.5135 C   0  0  0  0  0  0  0  0  0  0  0  0
    4.4599   -4.2134    1.9660 N   0  0  0  0  0  0  0  0  0  0  0  0
    3.5831   -3.8139    1.0758 C   0  0  0  0  0  0  0  0  0  0  0  0
    2.7963   -2.6304    1.0476 C   0  0  0  0  0  0  0  0  0  0  0  0
   -0.0940   -1.2355   -0.5031 N   0  0  0  0  0  0  0  0  0  0  0  0
   -0.8967   -0.1439   -0.4578 C   0  0  0  0  0  0  0  0  0  0  0  0
   -2.3061   -0.2348   -1.0560 C   0  0  0  0  0  0  0  0  0  0  0  0
   -2.6017   -1.4570   -1.5978 F   0  0  0  0  0  0  0  0  0  0  0  0
   -3.2949   -0.0002   -0.1409 F   0  0  0  0  0  0  0  0  0  0  0  0
   -2.5203    0.6633   -2.0660 F   0  0  0  0  0  0  0  0  0  0  0  0
   -0.5166    1.0335    0.0991 N   0  0  0  0  0  0  0  0  0  0  0  0
    2.1219    2.3674    1.6805 H   0  0  0  0  0  0  0  0  0  0  0  0
    0.4173    2.6620    2.0577 H   0  0  0  0  0  0  0  0  0  0  0  0
    1.0978    3.2109    0.5035 H   0  0  0  0  0  0  0  0  0  0  0  0
    2.5902    0.1381    1.0187 H   0  0  0  0  0  0  0  0  0  0  0  0
    1.2096   -3.1180   -1.9181 H   0  0  0  0  0  0  0  0  0  0  0  0
    2.5919   -5.1707   -1.8770 H   0  0  0  0  0  0  0  0  0  0  0  0
    6.5621   -7.1918    0.0999 H   0  0  0  0  0  0  0  0  0  0  0  0
    6.9514   -9.2715   -1.1392 H   0  0  0  0  0  0  0  0  0  0  0  0
    5.1720  -10.3210   -2.4086 H   0  0  0  0  0  0  0  0  0  0  0  0
    1.6956   -8.9265   -2.5627 H   0  0  0  0  0  0  0  0  0  0  0  0
    0.5466  -10.5266   -3.4302 H   0  0  0  0  0  0  0  0  0  0  0  0
    2.1489  -12.2908   -5.2282 H   0  0  0  0  0  0  0  0  0  0  0  0
    0.4167  -11.9875   -5.3418 H   0  0  0  0  0  0  0  0  0  0  0  0
    2.4216   -7.2645   -1.1130 H   0  0  0  0  0  0  0  0  0  0  0  0
    5.6186   -5.9936    2.0769 H   0  0  0  0  0  0  0  0  0  0  0  0
    2.8955   -1.9794    1.9087 H   0  0  0  0  0  0  0  0  0  0  0  0
  1  2  1  0  0  0  0
  1 36  1  0  0  0  0
  1 37  1  0  0  0  0
  1 38  1  0  0  0  0
  2  3  1  0  0  0  0
  2 35  2  0  0  0  0
  3  4  2  0  0  0  0
  3 39  1  0  0  0  0
  4  5  1  0  0  0  0
  4 29  1  0  0  0  0
  5  6  1  0  0  0  0
  5 28  2  0  0  0  0
  6  7  2  0  0  0  0
  6 40  1  0  0  0  0
  7  8  1  0  0  0  0
  7 41  1  0  0  0  0
  8  9  1  0  0  0  0
  8 27  1  0  0  0  0
  9 10  1  0  0  0  0
  9 25  2  0  0  0  0
 10 11  1  0  0  0  0
 10 24  2  0  0  0  0
 11 12  2  0  0  0  0
 11 42  1  0  0  0  0
 12 13  1  0  0  0  0
 12 43  1  0  0  0  0
 13 14  2  0  0  0  0
 13 44  1  0  0  0  0
 14 15  1  0  0  0  0
 14 24  1  0  0  0  0
 15 16  1  0  0  0  0
 15 45  1  0  0  0  0
 16 17  2  0  0  0  0
 16 18  1  0  0  0  0
 18 19  1  0  0  0  0
 18 46  1  0  0  0  0
 19 20  1  0  0  0  0
 19 47  1  0  0  0  0
 19 48  1  0  0  0  0
 20 21  1  0  0  0  0
 20 22  1  0  0  0  0
 20 23  1  0  0  0  0
 24 49  1  0  0  0  0
 25 26  1  0  0  0  0
 25 50  1  0  0  0  0
 26 27  2  0  0  0  0
 27 28  1  0  0  0  0
 28 51  1  0  0  0  0
 29 30  2  0  0  0  0
 30 31  1  0  0  0  0
 30 35  1  0  0  0  0
 31 32  1  0  0  0  0
 31 33  1  0  0  0  0
 31 34  1  0  0  0  0
M  END
$$$$
