CHEMBL3781651
 OpenBabel04072215373D

 56 60  0  0  0  0  0  0  0  0999 V2000
    1.6014   -0.0793    0.6849 C   0  0  0  0  0  0  0  0  0  0  0  0
    2.7933    0.2469   -0.0179 O   0  0  0  0  0  0  0  0  0  0  0  0
    3.3510   -0.7567   -0.7637 C   0  0  0  0  0  0  0  0  0  0  0  0
    2.8683   -2.0577   -0.8591 C   0  0  0  0  0  0  0  0  0  0  0  0
    3.5412   -2.9942   -1.6498 C   0  0  0  0  0  0  0  0  0  0  0  0
    4.7067   -2.6659   -2.3692 C   0  0  0  0  0  0  0  0  0  0  0  0
    5.3763   -3.6951   -3.1815 C   0  0  0  0  0  0  0  0  0  0  0  0
    6.1361   -3.4405   -4.3150 C   0  0  0  0  0  0  0  0  0  0  0  0
    6.6967   -4.4201   -5.0684 N   0  0  0  0  0  0  0  0  0  0  0  0
    6.4523   -5.7019   -4.6752 C   0  0  0  0  0  0  0  0  0  0  0  0
    6.9442   -6.8256   -5.3554 C   0  0  0  0  0  0  0  0  0  0  0  0
    7.7292   -6.6205   -6.5286 N   0  0  0  0  0  0  0  0  0  0  0  0
    8.7155   -7.5252   -6.9810 C   0  0  0  0  0  0  0  0  0  0  0  0
    9.0695   -7.5464   -8.3273 C   0  0  0  0  0  0  0  0  0  0  0  0
   10.0413   -8.4461   -8.7953 C   0  0  0  0  0  0  0  0  0  0  0  0
   10.7165   -9.3309   -7.9390 C   0  0  0  0  0  0  0  0  0  0  0  0
   11.6431  -10.2442   -8.4030 N   0  0  0  0  0  0  0  0  0  0  0  0
   12.4866   -9.9795   -9.5672 C   0  0  0  0  0  0  0  0  0  0  0  0
   12.3000  -11.0961  -10.5919 C   0  0  0  0  0  0  0  0  0  0  0  0
   12.5422  -12.4703   -9.9665 C   0  0  0  0  0  0  0  0  0  0  0  0
   11.6985  -12.6629   -8.7081 C   0  0  0  0  0  0  0  0  0  0  0  0
   11.8948  -11.5142   -7.7177 C   0  0  0  0  0  0  0  0  0  0  0  0
   10.3874   -9.2471   -6.5820 C   0  0  0  0  0  0  0  0  0  0  0  0
    9.4185   -8.3579   -6.1094 C   0  0  0  0  0  0  0  0  0  0  0  0
    6.6608   -8.1016   -4.9805 N   0  0  0  0  0  0  0  0  0  0  0  0
    5.9281   -8.2950   -3.8769 C   0  0  0  0  0  0  0  0  0  0  0  0
    5.4452   -7.2601   -3.1149 C   0  0  0  0  0  0  0  0  0  0  0  0
    5.6906   -5.9644   -3.5192 C   0  0  0  0  0  0  0  0  0  0  0  0
    5.1704   -4.9742   -2.7787 N   0  0  0  0  0  0  0  0  0  0  0  0
    5.1760   -1.3479   -2.2599 C   0  0  0  0  0  0  0  0  0  0  0  0
    4.5045   -0.4077   -1.4661 C   0  0  0  0  0  0  0  0  0  0  0  0
    1.2885    0.8054    1.2449 H   0  0  0  0  0  0  0  0  0  0  0  0
    1.7733   -0.8854    1.4074 H   0  0  0  0  0  0  0  0  0  0  0  0
    0.7956   -0.3392   -0.0103 H   0  0  0  0  0  0  0  0  0  0  0  0
    1.9796   -2.3866   -0.3347 H   0  0  0  0  0  0  0  0  0  0  0  0
    3.1391   -4.0062   -1.7001 H   0  0  0  0  0  0  0  0  0  0  0  0
    6.3014   -2.4335   -4.6818 H   0  0  0  0  0  0  0  0  0  0  0  0
    8.0958   -5.6688   -6.5076 H   0  0  0  0  0  0  0  0  0  0  0  0
    8.5571   -6.9009   -9.0353 H   0  0  0  0  0  0  0  0  0  0  0  0
   10.2202   -8.4729   -9.8663 H   0  0  0  0  0  0  0  0  0  0  0  0
   13.5341   -9.9475   -9.2413 H   0  0  0  0  0  0  0  0  0  0  0  0
   12.2929   -9.0098  -10.0367 H   0  0  0  0  0  0  0  0  0  0  0  0
   12.9874  -10.9468  -11.4316 H   0  0  0  0  0  0  0  0  0  0  0  0
   11.2803  -11.0572  -10.9948 H   0  0  0  0  0  0  0  0  0  0  0  0
   13.6037  -12.5736   -9.7110 H   0  0  0  0  0  0  0  0  0  0  0  0
   12.3068  -13.2554  -10.6933 H   0  0  0  0  0  0  0  0  0  0  0  0
   11.9549  -13.6141   -8.2286 H   0  0  0  0  0  0  0  0  0  0  0  0
   10.6393  -12.7193   -8.9901 H   0  0  0  0  0  0  0  0  0  0  0  0
   12.9189  -11.5196   -7.3251 H   0  0  0  0  0  0  0  0  0  0  0  0
   11.2231  -11.6943   -6.8721 H   0  0  0  0  0  0  0  0  0  0  0  0
   10.8918   -9.8650   -5.8460 H   0  0  0  0  0  0  0  0  0  0  0  0
    9.2138   -8.3441   -5.0429 H   0  0  0  0  0  0  0  0  0  0  0  0
    5.7366   -9.3320   -3.6185 H   0  0  0  0  0  0  0  0  0  0  0  0
    4.8679   -7.4573   -2.2189 H   0  0  0  0  0  0  0  0  0  0  0  0
    6.0827   -1.0295   -2.7683 H   0  0  0  0  0  0  0  0  0  0  0  0
    4.8919    0.6058   -1.3902 H   0  0  0  0  0  0  0  0  0  0  0  0
  1  2  1  0  0  0  0
  1 32  1  0  0  0  0
  1 33  1  0  0  0  0
  1 34  1  0  0  0  0
  2  3  1  0  0  0  0
  3  4  1  0  0  0  0
  3 31  2  0  0  0  0
  4  5  2  0  0  0  0
  4 35  1  0  0  0  0
  5  6  1  0  0  0  0
  5 36  1  0  0  0  0
  6  7  1  0  0  0  0
  6 30  2  0  0  0  0
  7  8  1  0  0  0  0
  7 29  2  0  0  0  0
  8  9  2  0  0  0  0
  8 37  1  0  0  0  0
  9 10  1  0  0  0  0
 10 11  1  0  0  0  0
 10 28  2  0  0  0  0
 11 12  1  0  0  0  0
 11 25  2  0  0  0  0
 12 13  1  0  0  0  0
 12 38  1  0  0  0  0
 13 14  1  0  0  0  0
 13 24  2  0  0  0  0
 14 15  2  0  0  0  0
 14 39  1  0  0  0  0
 15 16  1  0  0  0  0
 15 40  1  0  0  0  0
 16 17  1  0  0  0  0
 16 23  2  0  0  0  0
 17 18  1  0  0  0  0
 17 22  1  0  0  0  0
 18 19  1  0  0  0  0
 18 41  1  0  0  0  0
 18 42  1  0  0  0  0
 19 20  1  0  0  0  0
 19 43  1  0  0  0  0
 19 44  1  0  0  0  0
 20 21  1  0  0  0  0
 20 45  1  0  0  0  0
 20 46  1  0  0  0  0
 21 22  1  0  0  0  0
 21 47  1  0  0  0  0
 21 48  1  0  0  0  0
 22 49  1  0  0  0  0
 22 50  1  0  0  0  0
 23 24  1  0  0  0  0
 23 51  1  0  0  0  0
 24 52  1  0  0  0  0
 25 26  1  0  0  0  0
 26 27  2  0  0  0  0
 26 53  1  0  0  0  0
 27 28  1  0  0  0  0
 27 54  1  0  0  0  0
 28 29  1  0  0  0  0
 30 31  1  0  0  0  0
 30 55  1  0  0  0  0
 31 56  1  0  0  0  0
M  END
$$$$
