CHEMBL150151
 OpenBabel04072215363D

 55 58  0  0  0  0  0  0  0  0999 V2000
    1.7415    0.9538    0.7099 C   0  0  0  0  0  0  0  0  0  0  0  0
    2.4627   -0.0674    0.0321 O   0  0  0  0  0  0  0  0  0  0  0  0
    3.1197    0.3084   -1.1054 C   0  0  0  0  0  0  0  0  0  0  0  0
    3.1022    1.5772   -1.6745 C   0  0  0  0  0  0  0  0  0  0  0  0
    3.8209    1.8282   -2.8483 C   0  0  0  0  0  0  0  0  0  0  0  0
    4.5974    0.8330   -3.4723 C   0  0  0  0  0  0  0  0  0  0  0  0
    5.3931    1.1304   -4.6844 C   0  0  0  0  0  0  0  0  0  0  0  0
    5.9419    2.4262   -4.8729 C   0  0  0  0  0  0  0  0  0  0  0  0
    6.6821    2.7673   -6.0065 C   0  0  0  0  0  0  0  0  0  0  0  0
    6.8998    1.7898   -6.9561 C   0  0  0  0  0  0  0  0  0  0  0  0
    6.4039    0.5013   -6.7723 C   0  0  0  0  0  0  0  0  0  0  0  0
    5.6447    0.1536   -5.6705 C   0  0  0  0  0  0  0  0  0  0  0  0
    6.7894   -0.3185   -7.8304 N   0  0  0  0  0  0  0  0  0  0  0  0
    7.5458    0.3807   -8.7624 C   0  0  0  0  0  0  0  0  0  0  0  0
    8.0533   -0.0704   -9.7721 O   0  0  0  0  0  0  0  0  0  0  0  0
    7.6002    1.7975   -8.2478 C   0  0  0  0  0  0  0  0  0  0  0  0
    8.0827    2.9323   -8.7691 C   0  0  0  0  0  0  0  0  0  0  0  0
    8.6999    3.1725  -10.0232 C   0  0  0  0  0  0  0  0  0  0  0  0
    8.9488    2.1723  -10.9188 N   0  0  0  0  0  0  0  0  0  0  0  0
    9.5154    2.6822  -12.0615 C   0  0  0  0  0  0  0  0  0  0  0  0
    9.8517    1.7761  -13.1897 C   0  0  0  0  0  0  0  0  0  0  0  0
    9.6727    4.0509  -11.8892 C   0  0  0  0  0  0  0  0  0  0  0  0
   10.2939    5.0177  -12.8593 C   0  0  0  0  0  0  0  0  0  0  0  0
    9.5002    5.1557  -14.1538 C   0  0  0  0  0  0  0  0  0  0  0  0
   10.1059    6.1930  -15.0640 C   0  0  0  0  0  0  0  0  0  0  0  0
   11.0788    6.8836  -14.8091 O   0  0  0  0  0  0  0  0  0  0  0  0
    9.4404    6.2894  -16.2402 O   0  0  0  0  0  0  0  0  0  0  0  0
    9.1453    4.3626  -10.5891 C   0  0  0  0  0  0  0  0  0  0  0  0
    9.0736    5.7025   -9.9307 C   0  0  0  0  0  0  0  0  0  0  0  0
    4.5962   -0.4396   -2.8807 C   0  0  0  0  0  0  0  0  0  0  0  0
    3.8613   -0.6993   -1.7190 C   0  0  0  0  0  0  0  0  0  0  0  0
    1.2869    0.5078    1.6004 H   0  0  0  0  0  0  0  0  0  0  0  0
    0.9340    1.3473    0.0852 H   0  0  0  0  0  0  0  0  0  0  0  0
    2.4107    1.7539    1.0433 H   0  0  0  0  0  0  0  0  0  0  0  0
    2.5450    2.3973   -1.2374 H   0  0  0  0  0  0  0  0  0  0  0  0
    3.7609    2.8310   -3.2667 H   0  0  0  0  0  0  0  0  0  0  0  0
    5.8005    3.2010   -4.1217 H   0  0  0  0  0  0  0  0  0  0  0  0
    7.0710    3.7734   -6.1146 H   0  0  0  0  0  0  0  0  0  0  0  0
    5.2424   -0.8507   -5.5860 H   0  0  0  0  0  0  0  0  0  0  0  0
    6.5884   -1.3029   -7.9163 H   0  0  0  0  0  0  0  0  0  0  0  0
    7.9645    3.8365   -8.1753 H   0  0  0  0  0  0  0  0  0  0  0  0
    8.7452    1.1877  -10.7712 H   0  0  0  0  0  0  0  0  0  0  0  0
    9.5863    0.7379  -12.9623 H   0  0  0  0  0  0  0  0  0  0  0  0
   10.9226    1.8133  -13.4073 H   0  0  0  0  0  0  0  0  0  0  0  0
    9.2979    2.0601  -14.0889 H   0  0  0  0  0  0  0  0  0  0  0  0
   11.3198    4.6940  -13.0750 H   0  0  0  0  0  0  0  0  0  0  0  0
   10.3911    6.0058  -12.3965 H   0  0  0  0  0  0  0  0  0  0  0  0
    8.4663    5.4471  -13.9369 H   0  0  0  0  0  0  0  0  0  0  0  0
    9.4940    4.2063  -14.6969 H   0  0  0  0  0  0  0  0  0  0  0  0
    8.6831    5.6771  -16.3098 H   0  0  0  0  0  0  0  0  0  0  0  0
    9.4884    6.5024  -10.5463 H   0  0  0  0  0  0  0  0  0  0  0  0
    9.6284    5.6902   -8.9859 H   0  0  0  0  0  0  0  0  0  0  0  0
    8.0315    5.9604   -9.7135 H   0  0  0  0  0  0  0  0  0  0  0  0
    5.1846   -1.2507   -3.3032 H   0  0  0  0  0  0  0  0  0  0  0  0
    3.8805   -1.6954   -1.2839 H   0  0  0  0  0  0  0  0  0  0  0  0
  1  2  1  0  0  0  0
  1 32  1  0  0  0  0
  1 33  1  0  0  0  0
  1 34  1  0  0  0  0
  2  3  1  0  0  0  0
  3  4  1  0  0  0  0
  3 31  2  0  0  0  0
  4  5  2  0  0  0  0
  4 35  1  0  0  0  0
  5  6  1  0  0  0  0
  5 36  1  0  0  0  0
  6  7  1  0  0  0  0
  6 30  2  0  0  0  0
  7  8  1  0  0  0  0
  7 12  2  0  0  0  0
  8  9  2  0  0  0  0
  8 37  1  0  0  0  0
  9 10  1  0  0  0  0
  9 38  1  0  0  0  0
 10 11  2  0  0  0  0
 10 16  1  0  0  0  0
 11 12  1  0  0  0  0
 11 13  1  0  0  0  0
 12 39  1  0  0  0  0
 13 14  1  0  0  0  0
 13 40  1  0  0  0  0
 14 15  2  0  0  0  0
 14 16  1  0  0  0  0
 16 17  2  0  0  0  0
 17 18  1  0  0  0  0
 17 41  1  0  0  0  0
 18 19  1  0  0  0  0
 18 28  2  0  0  0  0
 19 20  1  0  0  0  0
 19 42  1  0  0  0  0
 20 21  1  0  0  0  0
 20 22  2  0  0  0  0
 21 43  1  0  0  0  0
 21 44  1  0  0  0  0
 21 45  1  0  0  0  0
 22 23  1  0  0  0  0
 22 28  1  0  0  0  0
 23 24  1  0  0  0  0
 23 46  1  0  0  0  0
 23 47  1  0  0  0  0
 24 25  1  0  0  0  0
 24 48  1  0  0  0  0
 24 49  1  0  0  0  0
 25 26  2  0  0  0  0
 25 27  1  0  0  0  0
 27 50  1  0  0  0  0
 28 29  1  0  0  0  0
 29 51  1  0  0  0  0
 29 52  1  0  0  0  0
 29 53  1  0  0  0  0
 30 31  1  0  0  0  0
 30 54  1  0  0  0  0
 31 55  1  0  0  0  0
M  END
$$$$
