CHEMBL412278
 OpenBabel04072215383D

 55 58  0  0  0  0  0  0  0  0999 V2000
    3.3660    4.1288   -2.2003 C   0  0  0  0  0  0  0  0  0  0  0  0
    3.8813    2.8045   -2.2471 O   0  0  0  0  0  0  0  0  0  0  0  0
    4.9436    2.6210   -1.3059 C   0  0  0  0  0  0  0  0  0  0  0  0
    5.4213    1.1700   -1.3577 C   0  0  0  0  0  0  0  0  0  0  0  0
    5.9606    0.8079   -2.6584 N   0  0  0  0  0  0  0  0  0  0  0  0
    6.4232   -0.4760   -2.8949 C   0  0  0  0  0  0  0  0  0  0  0  0
    6.3962   -1.3380   -2.0245 O   0  0  0  0  0  0  0  0  0  0  0  0
    6.9593   -0.7563   -4.2589 C   0  0  0  0  0  0  0  0  0  0  0  0
    6.3502   -0.1460   -5.3702 C   0  0  0  0  0  0  0  0  0  0  0  0
    6.8140   -0.3868   -6.6548 C   0  0  0  0  0  0  0  0  0  0  0  0
    7.8887   -1.2527   -6.8618 C   0  0  0  0  0  0  0  0  0  0  0  0
    8.5274   -1.8985   -5.7843 C   0  0  0  0  0  0  0  0  0  0  0  0
    9.6135   -2.7736   -6.0164 C   0  0  0  0  0  0  0  0  0  0  0  0
   10.2826   -3.4031   -4.9622 C   0  0  0  0  0  0  0  0  0  0  0  0
   11.3111   -4.2722   -5.2785 O   0  0  0  0  0  0  0  0  0  0  0  0
   12.3944   -4.3753   -4.4008 C   0  0  0  0  0  0  0  0  0  0  0  0
   12.7417   -3.2832   -3.6962 N   0  0  0  0  0  0  0  0  0  0  0  0
   13.7472   -3.4457   -2.8365 C   0  0  0  0  0  0  0  0  0  0  0  0
   14.4463   -4.5731   -2.6427 N   0  0  0  0  0  0  0  0  0  0  0  0
   14.1115   -5.6395   -3.3847 C   0  0  0  0  0  0  0  0  0  0  0  0
   14.7912   -6.8438   -3.2047 C   0  0  0  0  0  0  0  0  0  0  0  0
   14.4955   -8.0358   -3.9179 C   0  0  0  0  0  0  0  0  0  0  0  0
   15.1473   -9.1087   -3.3755 O   0  0  0  0  0  0  0  0  0  0  0  0
   15.8920   -9.9932   -4.1940 C   0  0  0  0  0  0  0  0  0  0  0  0
   13.4989   -7.9893   -4.8872 C   0  0  0  0  0  0  0  0  0  0  0  0
   12.9508   -8.9095   -5.7263 O   0  0  0  0  0  0  0  0  0  0  0  0
   13.2815  -10.2764   -5.7285 C   0  0  0  0  0  0  0  0  0  0  0  0
   12.8064   -6.7669   -5.0684 C   0  0  0  0  0  0  0  0  0  0  0  0
   13.0840   -5.5985   -4.3221 C   0  0  0  0  0  0  0  0  0  0  0  0
    9.8297   -3.1842   -3.6649 C   0  0  0  0  0  0  0  0  0  0  0  0
    8.7634   -2.3142   -3.4219 C   0  0  0  0  0  0  0  0  0  0  0  0
    8.0710   -1.6495   -4.4629 C   0  0  0  0  0  0  0  0  0  0  0  0
    2.5436    4.2043   -2.9168 H   0  0  0  0  0  0  0  0  0  0  0  0
    4.1417    4.8475   -2.4803 H   0  0  0  0  0  0  0  0  0  0  0  0
    2.9810    4.3586   -1.2019 H   0  0  0  0  0  0  0  0  0  0  0  0
    4.5835    2.8504   -0.2969 H   0  0  0  0  0  0  0  0  0  0  0  0
    5.7660    3.3012   -1.5572 H   0  0  0  0  0  0  0  0  0  0  0  0
    4.5952    0.4856   -1.1355 H   0  0  0  0  0  0  0  0  0  0  0  0
    6.2103    1.0098   -0.6145 H   0  0  0  0  0  0  0  0  0  0  0  0
    5.8556    1.4752   -3.4089 H   0  0  0  0  0  0  0  0  0  0  0  0
    5.4759    0.4980   -5.2429 H   0  0  0  0  0  0  0  0  0  0  0  0
    6.3326    0.0923   -7.5092 H   0  0  0  0  0  0  0  0  0  0  0  0
    8.2258   -1.4294   -7.8800 H   0  0  0  0  0  0  0  0  0  0  0  0
    9.9489   -2.9639   -7.0296 H   0  0  0  0  0  0  0  0  0  0  0  0
   14.0195   -2.5881   -2.2304 H   0  0  0  0  0  0  0  0  0  0  0  0
   15.5654   -6.8712   -2.4385 H   0  0  0  0  0  0  0  0  0  0  0  0
   16.7435  -10.3671   -3.6145 H   0  0  0  0  0  0  0  0  0  0  0  0
   16.2738   -9.5390   -5.1129 H   0  0  0  0  0  0  0  0  0  0  0  0
   15.2919  -10.8816   -4.3935 H   0  0  0  0  0  0  0  0  0  0  0  0
   12.5899  -10.7728   -6.4189 H   0  0  0  0  0  0  0  0  0  0  0  0
   13.1411  -10.7344   -4.7467 H   0  0  0  0  0  0  0  0  0  0  0  0
   14.2766  -10.4314   -6.1495 H   0  0  0  0  0  0  0  0  0  0  0  0
   11.9972   -6.7402   -5.8004 H   0  0  0  0  0  0  0  0  0  0  0  0
   10.3007   -3.6725   -2.8125 H   0  0  0  0  0  0  0  0  0  0  0  0
    8.4812   -2.1683   -2.3814 H   0  0  0  0  0  0  0  0  0  0  0  0
  1  2  1  0  0  0  0
  1 33  1  0  0  0  0
  1 34  1  0  0  0  0
  1 35  1  0  0  0  0
  2  3  1  0  0  0  0
  3  4  1  0  0  0  0
  3 36  1  0  0  0  0
  3 37  1  0  0  0  0
  4  5  1  0  0  0  0
  4 38  1  0  0  0  0
  4 39  1  0  0  0  0
  5  6  1  0  0  0  0
  5 40  1  0  0  0  0
  6  7  2  0  0  0  0
  6  8  1  0  0  0  0
  8  9  1  0  0  0  0
  8 32  2  0  0  0  0
  9 10  2  0  0  0  0
  9 41  1  0  0  0  0
 10 11  1  0  0  0  0
 10 42  1  0  0  0  0
 11 12  2  0  0  0  0
 11 43  1  0  0  0  0
 12 13  1  0  0  0  0
 12 32  1  0  0  0  0
 13 14  2  0  0  0  0
 13 44  1  0  0  0  0
 14 15  1  0  0  0  0
 14 30  1  0  0  0  0
 15 16  1  0  0  0  0
 16 17  1  0  0  0  0
 16 29  2  0  0  0  0
 17 18  2  0  0  0  0
 18 19  1  0  0  0  0
 18 45  1  0  0  0  0
 19 20  2  0  0  0  0
 20 21  1  0  0  0  0
 20 29  1  0  0  0  0
 21 22  2  0  0  0  0
 21 46  1  0  0  0  0
 22 23  1  0  0  0  0
 22 25  1  0  0  0  0
 23 24  1  0  0  0  0
 24 47  1  0  0  0  0
 24 48  1  0  0  0  0
 24 49  1  0  0  0  0
 25 26  1  0  0  0  0
 25 28  2  0  0  0  0
 26 27  1  0  0  0  0
 27 50  1  0  0  0  0
 27 51  1  0  0  0  0
 27 52  1  0  0  0  0
 28 29  1  0  0  0  0
 28 53  1  0  0  0  0
 30 31  2  0  0  0  0
 30 54  1  0  0  0  0
 31 32  1  0  0  0  0
 31 55  1  0  0  0  0
M  END
$$$$
