CHEMBL365377
 OpenBabel04072215373D

 72 74  0  0  0  0  0  0  0  0999 V2000
    3.0926    1.0105   -0.4464 C   0  0  0  0  0  0  0  0  0  0  0  0
    4.5527    0.5732   -0.4211 C   0  0  0  0  0  0  0  0  0  0  0  0
    5.3790    1.0860   -1.5278 N   0  0  0  0  0  0  0  0  0  0  0  0
    5.3268    2.5493   -1.6903 C   0  0  0  0  0  0  0  0  0  0  0  0
    5.9533    3.3742   -0.5688 C   0  0  0  0  0  0  0  0  0  0  0  0
    6.7701    0.6080   -1.4270 C   0  0  0  0  0  0  0  0  0  0  0  0
    6.9218   -0.9182   -1.5007 C   0  0  0  0  0  0  0  0  0  0  0  0
    6.3759   -1.5389   -2.7892 C   0  0  0  0  0  0  0  0  0  0  0  0
    7.1236   -1.0983   -4.0480 C   0  0  0  0  0  0  0  0  0  0  0  0
    8.5213   -1.5067   -3.9260 N   0  0  0  0  0  0  0  0  0  0  0  0
    9.1981   -1.6844   -5.1330 C   0  0  0  0  0  0  0  0  0  0  0  0
   10.3403   -2.4792   -5.1395 C   0  0  0  0  0  0  0  0  0  0  0  0
   10.9181   -2.8601   -6.3389 C   0  0  0  0  0  0  0  0  0  0  0  0
   11.9811   -3.6820   -6.3883 N   0  0  0  0  0  0  0  0  0  0  0  0
   12.3802   -4.1780   -7.5866 C   0  0  0  0  0  0  0  0  0  0  0  0
   13.3865   -5.1536   -7.5536 N   0  0  0  0  0  0  0  0  0  0  0  0
   14.4214   -5.3061   -6.6836 C   0  0  0  0  0  0  0  0  0  0  0  0
   15.1004   -6.3252   -6.7406 O   0  0  0  0  0  0  0  0  0  0  0  0
   14.7183   -4.2194   -5.9235 N   0  0  0  0  0  0  0  0  0  0  0  0
   15.9177   -4.0790   -5.0943 C   0  0  0  0  0  0  0  0  0  0  0  0
   17.1891   -4.1617   -5.9605 C   0  0  0  0  0  0  0  0  0  0  0  0
   15.8754   -2.6914   -4.4332 C   0  0  0  0  0  0  0  0  0  0  0  0
   15.9598   -5.1528   -3.9986 C   0  0  0  0  0  0  0  0  0  0  0  0
   11.8006   -3.8283   -8.8287 C   0  0  0  0  0  0  0  0  0  0  0  0
   12.2906   -4.2280  -10.1889 C   0  0  0  0  0  0  0  0  0  0  0  0
   12.5090   -5.5694  -10.5844 C   0  0  0  0  0  0  0  0  0  0  0  0
   12.1078   -6.9309   -9.5872 Cl  0  0  0  0  0  0  0  0  0  0  0  0
   13.0009   -5.9018  -11.8582 C   0  0  0  0  0  0  0  0  0  0  0  0
   13.1797   -4.9254  -12.8251 C   0  0  0  0  0  0  0  0  0  0  0  0
   12.9208   -3.6009  -12.5034 C   0  0  0  0  0  0  0  0  0  0  0  0
   12.5310   -3.2510  -11.2011 C   0  0  0  0  0  0  0  0  0  0  0  0
   12.3981   -1.5341  -10.9390 Cl  0  0  0  0  0  0  0  0  0  0  0  0
   10.7328   -2.9207   -8.7359 C   0  0  0  0  0  0  0  0  0  0  0  0
   10.3059   -2.4078   -7.5105 C   0  0  0  0  0  0  0  0  0  0  0  0
    9.2704   -1.4892   -7.4147 C   0  0  0  0  0  0  0  0  0  0  0  0
    8.7062   -1.1291   -6.2523 N   0  0  0  0  0  0  0  0  0  0  0  0
    2.5173    0.4063    0.2637 H   0  0  0  0  0  0  0  0  0  0  0  0
    2.6508    0.8677   -1.4378 H   0  0  0  0  0  0  0  0  0  0  0  0
    2.9794    2.0581   -0.1533 H   0  0  0  0  0  0  0  0  0  0  0  0
    4.5251   -0.5200   -0.4781 H   0  0  0  0  0  0  0  0  0  0  0  0
    4.9907    0.8283    0.5509 H   0  0  0  0  0  0  0  0  0  0  0  0
    4.2891    2.8702   -1.8354 H   0  0  0  0  0  0  0  0  0  0  0  0
    5.8237    2.8155   -2.6328 H   0  0  0  0  0  0  0  0  0  0  0  0
    5.6301    3.0412    0.4213 H   0  0  0  0  0  0  0  0  0  0  0  0
    5.6641    4.4250   -0.6733 H   0  0  0  0  0  0  0  0  0  0  0  0
    7.0465    3.3284   -0.6096 H   0  0  0  0  0  0  0  0  0  0  0  0
    7.2276    0.9478   -0.4899 H   0  0  0  0  0  0  0  0  0  0  0  0
    7.3649    1.0500   -2.2364 H   0  0  0  0  0  0  0  0  0  0  0  0
    6.4342   -1.3953   -0.6437 H   0  0  0  0  0  0  0  0  0  0  0  0
    7.9836   -1.1665   -1.3872 H   0  0  0  0  0  0  0  0  0  0  0  0
    5.3092   -1.3127   -2.9032 H   0  0  0  0  0  0  0  0  0  0  0  0
    6.4501   -2.6309   -2.7002 H   0  0  0  0  0  0  0  0  0  0  0  0
    7.0419   -0.0188   -4.2146 H   0  0  0  0  0  0  0  0  0  0  0  0
    6.6386   -1.6013   -4.8958 H   0  0  0  0  0  0  0  0  0  0  0  0
    9.0679   -0.9037   -3.3185 H   0  0  0  0  0  0  0  0  0  0  0  0
   10.7142   -2.8965   -4.2104 H   0  0  0  0  0  0  0  0  0  0  0  0
   13.3179   -5.9254   -8.1996 H   0  0  0  0  0  0  0  0  0  0  0  0
   13.9184   -3.6201   -5.7364 H   0  0  0  0  0  0  0  0  0  0  0  0
   17.1309   -3.4775   -6.8155 H   0  0  0  0  0  0  0  0  0  0  0  0
   17.3469   -5.1681   -6.3629 H   0  0  0  0  0  0  0  0  0  0  0  0
   18.0828   -3.9003   -5.3822 H   0  0  0  0  0  0  0  0  0  0  0  0
   15.9002   -1.8944   -5.1860 H   0  0  0  0  0  0  0  0  0  0  0  0
   16.7253   -2.5430   -3.7580 H   0  0  0  0  0  0  0  0  0  0  0  0
   14.9557   -2.5607   -3.8518 H   0  0  0  0  0  0  0  0  0  0  0  0
   16.0654   -6.1591   -4.4174 H   0  0  0  0  0  0  0  0  0  0  0  0
   15.0398   -5.1417   -3.4043 H   0  0  0  0  0  0  0  0  0  0  0  0
   16.8065   -4.9943   -3.3219 H   0  0  0  0  0  0  0  0  0  0  0  0
   13.2209   -6.9374  -12.1092 H   0  0  0  0  0  0  0  0  0  0  0  0
   13.5181   -5.1890  -13.8219 H   0  0  0  0  0  0  0  0  0  0  0  0
   13.0285   -2.8354  -13.2695 H   0  0  0  0  0  0  0  0  0  0  0  0
   10.2150   -2.5970   -9.6366 H   0  0  0  0  0  0  0  0  0  0  0  0
    8.8348   -1.0240   -8.2939 H   0  0  0  0  0  0  0  0  0  0  0  0
  1  2  1  0  0  0  0
  1 37  1  0  0  0  0
  1 38  1  0  0  0  0
  1 39  1  0  0  0  0
  2  3  1  0  0  0  0
  2 40  1  0  0  0  0
  2 41  1  0  0  0  0
  3  4  1  0  0  0  0
  3  6  1  0  0  0  0
  4  5  1  0  0  0  0
  4 42  1  0  0  0  0
  4 43  1  0  0  0  0
  5 44  1  0  0  0  0
  5 45  1  0  0  0  0
  5 46  1  0  0  0  0
  6  7  1  0  0  0  0
  6 47  1  0  0  0  0
  6 48  1  0  0  0  0
  7  8  1  0  0  0  0
  7 49  1  0  0  0  0
  7 50  1  0  0  0  0
  8  9  1  0  0  0  0
  8 51  1  0  0  0  0
  8 52  1  0  0  0  0
  9 10  1  0  0  0  0
  9 53  1  0  0  0  0
  9 54  1  0  0  0  0
 10 11  1  0  0  0  0
 10 55  1  0  0  0  0
 11 12  1  0  0  0  0
 11 36  2  0  0  0  0
 12 13  2  0  0  0  0
 12 56  1  0  0  0  0
 13 14  1  0  0  0  0
 13 34  1  0  0  0  0
 14 15  2  0  0  0  0
 15 16  1  0  0  0  0
 15 24  1  0  0  0  0
 16 17  1  0  0  0  0
 16 57  1  0  0  0  0
 17 18  2  0  0  0  0
 17 19  1  0  0  0  0
 19 20  1  0  0  0  0
 19 58  1  0  0  0  0
 20 21  1  0  0  0  0
 20 22  1  0  0  0  0
 20 23  1  0  0  0  0
 21 59  1  0  0  0  0
 21 60  1  0  0  0  0
 21 61  1  0  0  0  0
 22 62  1  0  0  0  0
 22 63  1  0  0  0  0
 22 64  1  0  0  0  0
 23 65  1  0  0  0  0
 23 66  1  0  0  0  0
 23 67  1  0  0  0  0
 24 25  1  0  0  0  0
 24 33  2  0  0  0  0
 25 26  1  0  0  0  0
 25 31  2  0  0  0  0
 26 27  1  0  0  0  0
 26 28  2  0  0  0  0
 28 29  1  0  0  0  0
 28 68  1  0  0  0  0
 29 30  2  0  0  0  0
 29 69  1  0  0  0  0
 30 31  1  0  0  0  0
 30 70  1  0  0  0  0
 31 32  1  0  0  0  0
 33 34  1  0  0  0  0
 33 71  1  0  0  0  0
 34 35  2  0  0  0  0
 35 36  1  0  0  0  0
 35 72  1  0  0  0  0
M  END
$$$$
