CHEMBL184971
 OpenBabel04072215363D

 73 78  0  0  0  0  0  0  0  0999 V2000
    6.9458   -1.5954    0.9681 C   0  0  0  0  0  0  0  0  0  0  0  0
    5.5234   -1.1009    0.7216 C   0  0  0  0  0  0  0  0  0  0  0  0
    4.7546   -0.9871    2.0304 C   0  0  0  0  0  0  0  0  0  0  0  0
    5.6564    0.1777    0.1143 O   0  0  0  0  0  0  0  0  0  0  0  0
    4.4173    0.7228   -0.3131 C   0  0  0  0  0  0  0  0  0  0  0  0
    4.7213    1.9885   -1.0288 C   0  0  0  0  0  0  0  0  0  0  0  0
    5.4966    1.9345   -2.1811 C   0  0  0  0  0  0  0  0  0  0  0  0
    5.7157    3.0808   -2.9303 C   0  0  0  0  0  0  0  0  0  0  0  0
    5.0651    4.2585   -2.5772 C   0  0  0  0  0  0  0  0  0  0  0  0
    4.3750    4.3276   -1.3433 C   0  0  0  0  0  0  0  0  0  0  0  0
    4.2294    3.2056   -0.5423 C   0  0  0  0  0  0  0  0  0  0  0  0
    4.1086    5.6720   -1.2593 C   0  0  0  0  0  0  0  0  0  0  0  0
    4.0569    6.4336   -0.0663 C   0  0  0  0  0  0  0  0  0  0  0  0
    4.4105    7.8354   -0.2131 C   0  0  0  0  0  0  0  0  0  0  0  0
    4.5479    8.3874   -1.5006 C   0  0  0  0  0  0  0  0  0  0  0  0
    3.7782    7.6718   -2.4216 C   0  0  0  0  0  0  0  0  0  0  0  0
    4.1126    6.3361   -2.4414 C   0  0  0  0  0  0  0  0  0  0  0  0
    5.0273    5.5460   -3.1686 N   0  0  0  0  0  0  0  0  0  0  0  0
    6.1160    6.1147   -3.9546 C   0  0  0  0  0  0  0  0  0  0  0  0
    7.1583    5.2653   -4.6986 C   0  0  0  0  0  0  0  0  0  0  0  0
    6.6080    4.3974   -5.8239 C   0  0  0  0  0  0  0  0  0  0  0  0
    5.9477    5.1940   -6.9328 C   0  0  0  0  0  0  0  0  0  0  0  0
    5.3222    4.2763   -7.9644 C   0  0  0  0  0  0  0  0  0  0  0  0
    5.4732    3.0562   -7.9183 O   0  0  0  0  0  0  0  0  0  0  0  0
    4.5688    4.8998   -8.9477 N   0  0  0  0  0  0  0  0  0  0  0  0
    4.4357    6.3398   -9.1110 C   0  0  0  0  0  0  0  0  0  0  0  0
    3.8951    4.0760   -9.9337 C   0  0  0  0  0  0  0  0  0  0  0  0
    3.2709    8.6252   -3.4053 C   0  0  0  0  0  0  0  0  0  0  0  0
    4.5918    9.3246   -3.6436 C   0  0  0  0  0  0  0  0  0  0  0  0
    5.0307    9.5020   -4.9382 C   0  0  0  0  0  0  0  0  0  0  0  0
    6.3961    9.4486   -5.1233 C   0  0  0  0  0  0  0  0  0  0  0  0
    7.2457    9.3291   -4.0063 C   0  0  0  0  0  0  0  0  0  0  0  0
    6.7577    9.2237   -2.6607 C   0  0  0  0  0  0  0  0  0  0  0  0
    5.3761    9.1873   -2.4417 C   0  0  0  0  0  0  0  0  0  0  0  0
    3.7304    8.4903    0.8978 C   0  0  0  0  0  0  0  0  0  0  0  0
    3.5042    9.6714    1.1528 O   0  0  0  0  0  0  0  0  0  0  0  0
    3.1143    7.4617    1.6283 N   0  0  0  0  0  0  0  0  0  0  0  0
    3.2920    6.1145    1.1269 C   0  0  0  0  0  0  0  0  0  0  0  0
    6.9489   -2.5746    1.4484 H   0  0  0  0  0  0  0  0  0  0  0  0
    7.5028   -0.8887    1.5936 H   0  0  0  0  0  0  0  0  0  0  0  0
    7.4934   -1.6712    0.0189 H   0  0  0  0  0  0  0  0  0  0  0  0
    5.0241   -1.7858    0.0311 H   0  0  0  0  0  0  0  0  0  0  0  0
    5.1485   -0.1676    2.6406 H   0  0  0  0  0  0  0  0  0  0  0  0
    4.7893   -1.9184    2.5999 H   0  0  0  0  0  0  0  0  0  0  0  0
    3.7005   -0.7583    1.8403 H   0  0  0  0  0  0  0  0  0  0  0  0
    3.7720    0.9333    0.5472 H   0  0  0  0  0  0  0  0  0  0  0  0
    3.8929    0.0341   -0.9854 H   0  0  0  0  0  0  0  0  0  0  0  0
    5.9520    0.9969   -2.4822 H   0  0  0  0  0  0  0  0  0  0  0  0
    6.3990    2.9770   -3.7578 H   0  0  0  0  0  0  0  0  0  0  0  0
    3.7126    3.2487    0.3965 H   0  0  0  0  0  0  0  0  0  0  0  0
    6.7050    6.6813   -3.2193 H   0  0  0  0  0  0  0  0  0  0  0  0
    5.6608    6.8100   -4.6542 H   0  0  0  0  0  0  0  0  0  0  0  0
    7.7259    4.6524   -3.9860 H   0  0  0  0  0  0  0  0  0  0  0  0
    7.9088    5.9438   -5.1299 H   0  0  0  0  0  0  0  0  0  0  0  0
    5.8555    3.6967   -5.4574 H   0  0  0  0  0  0  0  0  0  0  0  0
    7.4233    3.7874   -6.2311 H   0  0  0  0  0  0  0  0  0  0  0  0
    6.6913    5.8318   -7.4199 H   0  0  0  0  0  0  0  0  0  0  0  0
    5.1480    5.8053   -6.5036 H   0  0  0  0  0  0  0  0  0  0  0  0
    4.9640    6.9149   -8.3492 H   0  0  0  0  0  0  0  0  0  0  0  0
    3.3753    6.5992   -9.0644 H   0  0  0  0  0  0  0  0  0  0  0  0
    4.8415    6.6166  -10.0865 H   0  0  0  0  0  0  0  0  0  0  0  0
    4.0005    3.0073   -9.7253 H   0  0  0  0  0  0  0  0  0  0  0  0
    4.3243    4.2876  -10.9159 H   0  0  0  0  0  0  0  0  0  0  0  0
    2.8314    4.3295   -9.9327 H   0  0  0  0  0  0  0  0  0  0  0  0
    2.5939    9.3347   -2.8926 H   0  0  0  0  0  0  0  0  0  0  0  0
    2.7660    8.1820   -4.2541 H   0  0  0  0  0  0  0  0  0  0  0  0
    4.3358    9.4296   -5.7673 H   0  0  0  0  0  0  0  0  0  0  0  0
    6.7798    9.3743   -6.1404 H   0  0  0  0  0  0  0  0  0  0  0  0
    8.3093    9.1886   -4.2095 H   0  0  0  0  0  0  0  0  0  0  0  0
    7.4699    8.9568   -1.8884 H   0  0  0  0  0  0  0  0  0  0  0  0
    2.3088    7.7073    2.1917 H   0  0  0  0  0  0  0  0  0  0  0  0
    2.3207    5.6846    0.8655 H   0  0  0  0  0  0  0  0  0  0  0  0
    3.8208    5.5029    1.8578 H   0  0  0  0  0  0  0  0  0  0  0  0
  1  2  1  0  0  0  0
  1 39  1  0  0  0  0
  1 40  1  0  0  0  0
  1 41  1  0  0  0  0
  2  3  1  0  0  0  0
  2  4  1  0  0  0  0
  2 42  1  0  0  0  0
  3 43  1  0  0  0  0
  3 44  1  0  0  0  0
  3 45  1  0  0  0  0
  4  5  1  0  0  0  0
  5  6  1  0  0  0  0
  5 46  1  0  0  0  0
  5 47  1  0  0  0  0
  6  7  1  0  0  0  0
  6 11  2  0  0  0  0
  7  8  2  0  0  0  0
  7 48  1  0  0  0  0
  8  9  1  0  0  0  0
  8 49  1  0  0  0  0
  9 10  2  0  0  0  0
  9 18  1  0  0  0  0
 10 11  1  0  0  0  0
 10 12  1  0  0  0  0
 11 50  1  0  0  0  0
 12 13  1  0  0  0  0
 12 17  2  0  0  0  0
 13 14  2  0  0  0  0
 13 38  1  0  0  0  0
 14 15  1  0  0  0  0
 14 35  1  0  0  0  0
 15 16  2  0  0  0  0
 15 34  1  0  0  0  0
 16 17  1  0  0  0  0
 16 28  1  0  0  0  0
 17 18  1  0  0  0  0
 18 19  1  0  0  0  0
 19 20  1  0  0  0  0
 19 51  1  0  0  0  0
 19 52  1  0  0  0  0
 20 21  1  0  0  0  0
 20 53  1  0  0  0  0
 20 54  1  0  0  0  0
 21 22  1  0  0  0  0
 21 55  1  0  0  0  0
 21 56  1  0  0  0  0
 22 23  1  0  0  0  0
 22 57  1  0  0  0  0
 22 58  1  0  0  0  0
 23 24  2  0  0  0  0
 23 25  1  0  0  0  0
 25 26  1  0  0  0  0
 25 27  1  0  0  0  0
 26 59  1  0  0  0  0
 26 60  1  0  0  0  0
 26 61  1  0  0  0  0
 27 62  1  0  0  0  0
 27 63  1  0  0  0  0
 27 64  1  0  0  0  0
 28 29  1  0  0  0  0
 28 65  1  0  0  0  0
 28 66  1  0  0  0  0
 29 30  1  0  0  0  0
 29 34  2  0  0  0  0
 30 31  2  0  0  0  0
 30 67  1  0  0  0  0
 31 32  1  0  0  0  0
 31 68  1  0  0  0  0
 32 33  2  0  0  0  0
 32 69  1  0  0  0  0
 33 34  1  0  0  0  0
 33 70  1  0  0  0  0
 35 36  2  0  0  0  0
 35 37  1  0  0  0  0
 37 38  1  0  0  0  0
 37 71  1  0  0  0  0
 38 72  1  0  0  0  0
 38 73  1  0  0  0  0
M  END
$$$$
