CHEMBL3612234
 OpenBabel04072215363D

 44 47  0  0  0  0  0  0  0  0999 V2000
    1.1498    0.5729   -0.4909 O   0  0  0  0  0  0  0  0  0  0  0  0
    2.2417    0.1358   -0.1441 C   0  0  0  0  0  0  0  0  0  0  0  0
    2.7757   -1.0666   -0.5836 N   0  0  0  0  0  0  0  0  0  0  0  0
    2.1345   -1.9685   -1.4712 C   0  0  0  0  0  0  0  0  0  0  0  0
    1.0164   -1.6191   -2.2360 C   0  0  0  0  0  0  0  0  0  0  0  0
    0.3399   -2.5720   -2.9960 C   0  0  0  0  0  0  0  0  0  0  0  0
    0.8016   -3.8834   -3.0355 C   0  0  0  0  0  0  0  0  0  0  0  0
    1.9691   -4.2335   -2.3516 C   0  0  0  0  0  0  0  0  0  0  0  0
    2.5663   -5.9137   -2.4224 S   0  0  0  0  0  0  0  0  0  0  0  0
    3.7327   -5.8300   -3.7650 C   0  0  0  0  0  0  0  0  0  0  0  0
    3.3186   -5.5927   -5.0767 C   0  0  0  0  0  0  0  0  0  0  0  0
    4.2572   -5.5933   -6.0900 C   0  0  0  0  0  0  0  0  0  0  0  0
    5.5726   -5.8064   -5.9264 N   0  0  0  0  0  0  0  0  0  0  0  0
    5.9809   -6.0416   -4.6510 C   0  0  0  0  0  0  0  0  0  0  0  0
    7.3345   -6.2858   -4.2756 C   0  0  0  0  0  0  0  0  0  0  0  0
    7.4758   -6.4969   -2.9250 C   0  0  0  0  0  0  0  0  0  0  0  0
    5.9809   -6.4098   -2.1063 S   0  0  0  0  0  0  0  0  0  0  0  0
    5.1072   -6.0667   -3.5583 C   0  0  0  0  0  0  0  0  0  0  0  0
    2.6249   -3.2777   -1.5607 C   0  0  0  0  0  0  0  0  0  0  0  0
    3.0771    0.7752    0.7605 N   0  0  0  0  0  0  0  0  0  0  0  0
    2.7904    1.9748    1.4567 C   0  0  0  0  0  0  0  0  0  0  0  0
    1.5903    2.6737    1.3369 C   0  0  0  0  0  0  0  0  0  0  0  0
    1.3826    3.8665    2.0349 C   0  0  0  0  0  0  0  0  0  0  0  0
    2.3640    4.3745    2.8859 C   0  0  0  0  0  0  0  0  0  0  0  0
    2.0008    5.8705    3.6619 Cl  0  0  0  0  0  0  0  0  0  0  0  0
    3.5606    3.6765    3.0636 C   0  0  0  0  0  0  0  0  0  0  0  0
    4.6461    4.0910    4.0223 C   0  0  0  0  0  0  0  0  0  0  0  0
    4.4402    5.2343    4.7238 F   0  0  0  0  0  0  0  0  0  0  0  0
    4.8687    3.1259    4.9617 F   0  0  0  0  0  0  0  0  0  0  0  0
    5.8444    4.2594    3.3915 F   0  0  0  0  0  0  0  0  0  0  0  0
    3.7655    2.4818    2.3233 C   0  0  0  0  0  0  0  0  0  0  0  0
    3.5776   -1.4248   -0.0868 H   0  0  0  0  0  0  0  0  0  0  0  0
    0.6280   -0.6054   -2.2558 H   0  0  0  0  0  0  0  0  0  0  0  0
   -0.5556   -2.2836   -3.5399 H   0  0  0  0  0  0  0  0  0  0  0  0
    0.2402   -4.6228   -3.6008 H   0  0  0  0  0  0  0  0  0  0  0  0
    2.2748   -5.4193   -5.3162 H   0  0  0  0  0  0  0  0  0  0  0  0
    3.9531   -5.4176   -7.1199 H   0  0  0  0  0  0  0  0  0  0  0  0
    8.1586   -6.3029   -4.9767 H   0  0  0  0  0  0  0  0  0  0  0  0
    8.3872   -6.7014   -2.3800 H   0  0  0  0  0  0  0  0  0  0  0  0
    3.4984   -3.5770   -0.9873 H   0  0  0  0  0  0  0  0  0  0  0  0
    3.9926    0.3754    0.8981 H   0  0  0  0  0  0  0  0  0  0  0  0
    0.7773    2.3324    0.7061 H   0  0  0  0  0  0  0  0  0  0  0  0
    0.4366    4.3885    1.9038 H   0  0  0  0  0  0  0  0  0  0  0  0
    4.7085    1.9503    2.4495 H   0  0  0  0  0  0  0  0  0  0  0  0
  1  2  2  0  0  0  0
  2  3  1  0  0  0  0
  2 20  1  0  0  0  0
  3  4  1  0  0  0  0
  3 32  1  0  0  0  0
  4  5  1  0  0  0  0
  4 19  2  0  0  0  0
  5  6  2  0  0  0  0
  5 33  1  0  0  0  0
  6  7  1  0  0  0  0
  6 34  1  0  0  0  0
  7  8  2  0  0  0  0
  7 35  1  0  0  0  0
  8  9  1  0  0  0  0
  8 19  1  0  0  0  0
  9 10  1  0  0  0  0
 10 11  1  0  0  0  0
 10 18  2  0  0  0  0
 11 12  2  0  0  0  0
 11 36  1  0  0  0  0
 12 13  1  0  0  0  0
 12 37  1  0  0  0  0
 13 14  2  0  0  0  0
 14 15  1  0  0  0  0
 14 18  1  0  0  0  0
 15 16  2  0  0  0  0
 15 38  1  0  0  0  0
 16 17  1  0  0  0  0
 16 39  1  0  0  0  0
 17 18  1  0  0  0  0
 19 40  1  0  0  0  0
 20 21  1  0  0  0  0
 20 41  1  0  0  0  0
 21 22  1  0  0  0  0
 21 31  2  0  0  0  0
 22 23  2  0  0  0  0
 22 42  1  0  0  0  0
 23 24  1  0  0  0  0
 23 43  1  0  0  0  0
 24 25  1  0  0  0  0
 24 26  2  0  0  0  0
 26 27  1  0  0  0  0
 26 31  1  0  0  0  0
 27 28  1  0  0  0  0
 27 29  1  0  0  0  0
 27 30  1  0  0  0  0
 31 44  1  0  0  0  0
M  END
$$$$
