CHEMBL443962
 OpenBabel04072215383D

 28 30  0  0  0  0  0  0  0  0999 V2000
    1.3739    0.4739   -0.6620 C   0  0  0  0  0  0  0  0  0  0  0  0
    2.4924    0.0728    0.1221 O   0  0  0  0  0  0  0  0  0  0  0  0
    3.1523   -1.0449   -0.3106 C   0  0  0  0  0  0  0  0  0  0  0  0
    2.7934   -1.8101   -1.4194 C   0  0  0  0  0  0  0  0  0  0  0  0
    3.5508   -2.9293   -1.7816 C   0  0  0  0  0  0  0  0  0  0  0  0
    4.6691   -3.3016   -1.0282 C   0  0  0  0  0  0  0  0  0  0  0  0
    5.4373   -4.4991   -1.3708 C   0  0  0  0  0  0  0  0  0  0  0  0
    5.1566   -5.8426   -0.7641 C   0  0  0  0  0  0  0  0  0  0  0  0
    5.8112   -6.9453   -0.9973 N   0  0  0  0  0  0  0  0  0  0  0  0
    6.8492   -6.8456   -1.8857 C   0  0  0  0  0  0  0  0  0  0  0  0
    7.7548   -7.7546   -2.3816 C   0  0  0  0  0  0  0  0  0  0  0  0
    7.9060   -9.5770   -2.0014 Br  0  0  0  0  0  0  0  0  0  0  0  0
    8.5819   -7.0482   -3.2584 C   0  0  0  0  0  0  0  0  0  0  0  0
    8.2454   -5.7591   -3.3420 N   0  0  0  0  0  0  0  0  0  0  0  0
    7.1847   -5.6338   -2.5036 N   0  0  0  0  0  0  0  0  0  0  0  0
    6.4641   -4.4770   -2.2273 C   0  0  0  0  0  0  0  0  0  0  0  0
    5.0453   -2.5136    0.0653 C   0  0  0  0  0  0  0  0  0  0  0  0
    4.2835   -1.3982    0.4277 C   0  0  0  0  0  0  0  0  0  0  0  0
    0.9565    1.3779   -0.2120 H   0  0  0  0  0  0  0  0  0  0  0  0
    0.5966   -0.2979   -0.6534 H   0  0  0  0  0  0  0  0  0  0  0  0
    1.6680    0.7223   -1.6880 H   0  0  0  0  0  0  0  0  0  0  0  0
    1.9358   -1.5511   -2.0307 H   0  0  0  0  0  0  0  0  0  0  0  0
    3.2483   -3.5057   -2.6531 H   0  0  0  0  0  0  0  0  0  0  0  0
    4.3109   -5.8794   -0.0558 H   0  0  0  0  0  0  0  0  0  0  0  0
    9.4177   -7.4079   -3.8448 H   0  0  0  0  0  0  0  0  0  0  0  0
    6.8039   -3.5845   -2.7425 H   0  0  0  0  0  0  0  0  0  0  0  0
    5.9271   -2.7613    0.6534 H   0  0  0  0  0  0  0  0  0  0  0  0
    4.5792   -0.7964    1.2845 H   0  0  0  0  0  0  0  0  0  0  0  0
  1  2  1  0  0  0  0
  1 19  1  0  0  0  0
  1 20  1  0  0  0  0
  1 21  1  0  0  0  0
  2  3  1  0  0  0  0
  3  4  1  0  0  0  0
  3 18  2  0  0  0  0
  4  5  2  0  0  0  0
  4 22  1  0  0  0  0
  5  6  1  0  0  0  0
  5 23  1  0  0  0  0
  6  7  1  0  0  0  0
  6 17  2  0  0  0  0
  7  8  1  0  0  0  0
  7 16  2  0  0  0  0
  8  9  2  0  0  0  0
  8 24  1  0  0  0  0
  9 10  1  0  0  0  0
 10 11  2  0  0  0  0
 10 15  1  0  0  0  0
 11 12  1  0  0  0  0
 11 13  1  0  0  0  0
 13 14  2  0  0  0  0
 13 25  1  0  0  0  0
 14 15  1  0  0  0  0
 15 16  1  0  0  0  0
 16 26  1  0  0  0  0
 17 18  1  0  0  0  0
 17 27  1  0  0  0  0
 18 28  1  0  0  0  0
M  END
$$$$
