CHEMBL3671530
 OpenBabel04072215373D

 61 63  0  0  1  0  0  0  0  0999 V2000
    3.6876    1.4654    3.5571 C   0  0  0  0  0  0  0  0  0  0  0  0
    3.6955    0.2529    2.9861 C   0  0  0  0  0  0  0  0  0  0  0  0
    3.7924    0.1474    1.5063 C   0  0  0  0  0  0  0  0  0  0  0  0
    3.3493    1.0171    0.7573 O   0  0  0  0  0  0  0  0  0  0  0  0
    4.4364   -0.9467    0.9890 N   0  0  0  0  0  0  0  0  0  0  0  0
    5.3217   -1.7439    1.7375 C   0  0  0  0  0  0  0  0  0  0  0  0
    6.4999   -1.1586    2.2066 C   0  0  0  0  0  0  0  0  0  0  0  0
    7.3037   -1.8313    3.1515 C   0  0  0  0  0  0  0  0  0  0  0  0
    8.4293   -1.2768    3.7803 C   0  0  0  0  0  0  0  0  0  0  0  0
    8.8027    0.0670    3.5085 N   0  0  0  0  0  0  0  0  0  0  0  0
    9.6286    0.8409    4.3597 C   0  0  0  0  0  0  0  0  0  0  0  0
    9.4517    0.8196    5.7506 C   0  0  0  0  0  0  0  0  0  0  0  0
   10.3246    1.5099    6.5940 C   0  0  0  0  0  0  0  0  0  0  0  0
   11.3681    2.2506    6.0457 C   0  0  0  0  0  0  0  0  0  0  0  0
   12.6011    3.1098    7.1918 Br  0  0  0  0  0  0  0  0  0  0  0  0
   11.5203    2.3461    4.6650 C   0  0  0  0  0  0  0  0  0  0  0  0
   10.6427    1.6515    3.8360 C   0  0  0  0  0  0  0  0  0  0  0  0
   10.8000    1.7328    2.5055 F   0  0  0  0  0  0  0  0  0  0  0  0
    9.1445   -1.9660    4.6892 N   0  0  0  0  0  0  0  0  0  0  0  0
    8.7256   -3.1954    4.9875 C   0  0  0  0  0  0  0  0  0  0  0  0
    7.6461   -3.7999    4.4846 N   0  0  0  0  0  0  0  0  0  0  0  0
    6.9399   -3.1167    3.5797 C   0  0  0  0  0  0  0  0  0  0  0  0
    5.7859   -3.6950    3.0633 C   0  0  0  0  0  0  0  0  0  0  0  0
    4.9775   -3.0428    2.1271 C   0  0  0  0  0  0  0  0  0  0  0  0
    3.8700   -3.7519    1.7305 O   0  0  0  0  0  0  0  0  0  0  0  0
    3.4605   -3.5426    0.3736 C   0  0  0  0  0  0  0  0  0  0  0  0
    2.8715   -4.8280   -0.2180 C   0  0  0  0  0  0  0  0  0  0  0  0
    2.5364   -4.6772   -1.6250 N   0  0  0  0  0  0  0  0  0  0  0  0
    3.5205   -4.6377   -2.5965 C   0  0  0  0  0  0  0  0  0  0  0  0
    4.6981   -4.9092   -2.3700 O   0  0  0  0  0  0  0  0  0  0  0  0
    3.0212   -4.2386   -4.0059 C   0  0  3  0  0  0  0  0  0  0  0  0
    2.4312   -5.5005   -4.6451 C   0  0  0  0  0  0  0  0  0  0  0  0
    2.0478   -3.1011   -3.9053 N   0  0  0  0  0  0  0  0  0  0  0  0
    2.7103   -1.9018   -3.3604 C   0  0  0  0  0  0  0  0  0  0  0  0
    1.5037   -2.7442   -5.2250 C   0  0  0  0  0  0  0  0  0  0  0  0
    3.6779    1.5704    4.6360 H   0  0  0  0  0  0  0  0  0  0  0  0
    3.7106    2.3717    2.9597 H   0  0  0  0  0  0  0  0  0  0  0  0
    3.6897   -0.6503    3.5800 H   0  0  0  0  0  0  0  0  0  0  0  0
    4.7275   -0.7360    0.0374 H   0  0  0  0  0  0  0  0  0  0  0  0
    6.7555   -0.1480    1.8955 H   0  0  0  0  0  0  0  0  0  0  0  0
    9.0664    0.1727    2.5313 H   0  0  0  0  0  0  0  0  0  0  0  0
    8.6448    0.2365    6.1878 H   0  0  0  0  0  0  0  0  0  0  0  0
   10.1884    1.4406    7.6702 H   0  0  0  0  0  0  0  0  0  0  0  0
   12.3196    2.9317    4.2231 H   0  0  0  0  0  0  0  0  0  0  0  0
    9.3102   -3.7495    5.7139 H   0  0  0  0  0  0  0  0  0  0  0  0
    5.4965   -4.6832    3.4158 H   0  0  0  0  0  0  0  0  0  0  0  0
    4.3033   -3.2304   -0.2538 H   0  0  0  0  0  0  0  0  0  0  0  0
    2.6896   -2.7630    0.3563 H   0  0  0  0  0  0  0  0  0  0  0  0
    1.9603   -5.1148    0.3174 H   0  0  0  0  0  0  0  0  0  0  0  0
    3.5875   -5.6505   -0.1078 H   0  0  0  0  0  0  0  0  0  0  0  0
    1.6655   -4.2212   -1.8876 H   0  0  0  0  0  0  0  0  0  0  0  0
    3.8966   -3.9214   -4.5883 H   0  0  0  0  0  0  0  0  0  0  0  0
    1.5489   -5.8570   -4.1021 H   0  0  0  0  0  0  0  0  0  0  0  0
    3.1687   -6.3118   -4.6370 H   0  0  0  0  0  0  0  0  0  0  0  0
    2.1528   -5.3397   -5.6915 H   0  0  0  0  0  0  0  0  0  0  0  0
    3.1078   -2.0741   -2.3560 H   0  0  0  0  0  0  0  0  0  0  0  0
    1.9873   -1.0842   -3.2589 H   0  0  0  0  0  0  0  0  0  0  0  0
    3.5324   -1.5585   -3.9992 H   0  0  0  0  0  0  0  0  0  0  0  0
    0.8979   -3.5522   -5.6449 H   0  0  0  0  0  0  0  0  0  0  0  0
    2.2936   -2.4871   -5.9398 H   0  0  0  0  0  0  0  0  0  0  0  0
    0.8285   -1.8840   -5.1402 H   0  0  0  0  0  0  0  0  0  0  0  0
  1  2  2  0  0  0  0
  1 36  1  0  0  0  0
  1 37  1  0  0  0  0
  2  3  1  0  0  0  0
  2 38  1  0  0  0  0
  3  4  2  0  0  0  0
  3  5  1  0  0  0  0
  5  6  1  0  0  0  0
  5 39  1  0  0  0  0
  6  7  1  0  0  0  0
  6 24  2  0  0  0  0
  7  8  2  0  0  0  0
  7 40  1  0  0  0  0
  8  9  1  0  0  0  0
  8 22  1  0  0  0  0
  9 10  1  0  0  0  0
  9 19  2  0  0  0  0
 10 11  1  0  0  0  0
 10 41  1  0  0  0  0
 11 12  1  0  0  0  0
 11 17  2  0  0  0  0
 12 13  2  0  0  0  0
 12 42  1  0  0  0  0
 13 14  1  0  0  0  0
 13 43  1  0  0  0  0
 14 15  1  0  0  0  0
 14 16  2  0  0  0  0
 16 17  1  0  0  0  0
 16 44  1  0  0  0  0
 17 18  1  0  0  0  0
 19 20  1  0  0  0  0
 20 21  2  0  0  0  0
 20 45  1  0  0  0  0
 21 22  1  0  0  0  0
 22 23  2  0  0  0  0
 23 24  1  0  0  0  0
 23 46  1  0  0  0  0
 24 25  1  0  0  0  0
 25 26  1  0  0  0  0
 26 27  1  0  0  0  0
 26 47  1  0  0  0  0
 26 48  1  0  0  0  0
 27 28  1  0  0  0  0
 27 49  1  0  0  0  0
 27 50  1  0  0  0  0
 28 29  1  0  0  0  0
 28 51  1  0  0  0  0
 29 30  2  0  0  0  0
 29 31  1  0  0  0  0
 31 32  1  0  0  0  0
 31 33  1  0  0  0  0
 31 52  1  0  0  0  0
 32 53  1  0  0  0  0
 32 54  1  0  0  0  0
 32 55  1  0  0  0  0
 33 34  1  0  0  0  0
 33 35  1  0  0  0  0
 34 56  1  0  0  0  0
 34 57  1  0  0  0  0
 34 58  1  0  0  0  0
 35 59  1  0  0  0  0
 35 60  1  0  0  0  0
 35 61  1  0  0  0  0
M  END
$$$$
