CHEMBL3125884
 OpenBabel04072215363D

 56 60  0  0  0  0  0  0  0  0999 V2000
    0.6395    0.8209   -0.4704 N   0  0  0  0  0  0  0  0  0  0  0  0
    1.7687    0.6947   -0.6899 C   0  0  0  0  0  0  0  0  0  0  0  0
    3.1651    0.5062   -0.9565 C   0  0  0  0  0  0  0  0  0  0  0  0
    4.1408    1.4211   -0.5374 C   0  0  0  0  0  0  0  0  0  0  0  0
    3.6904    2.5483    0.1197 O   0  0  0  0  0  0  0  0  0  0  0  0
    4.3903    3.7262   -0.0068 C   0  0  0  0  0  0  0  0  0  0  0  0
    4.4376    4.5288    1.1333 C   0  0  0  0  0  0  0  0  0  0  0  0
    5.1700    5.7107    1.1126 C   0  0  0  0  0  0  0  0  0  0  0  0
    5.8628    6.0776   -0.0389 C   0  0  0  0  0  0  0  0  0  0  0  0
    5.8057    5.2890   -1.1964 C   0  0  0  0  0  0  0  0  0  0  0  0
    6.5355    5.5976   -2.3645 N   0  0  0  0  0  0  0  0  0  0  0  0
    7.7044    6.3457   -2.3547 C   0  0  0  0  0  0  0  0  0  0  0  0
    8.2883    6.7085   -1.3460 O   0  0  0  0  0  0  0  0  0  0  0  0
    8.1176    6.6567   -3.6496 N   0  0  0  0  0  0  0  0  0  0  0  0
    9.2547    7.4837   -3.8101 C   0  0  0  0  0  0  0  0  0  0  0  0
   10.4433    7.2053   -3.1273 C   0  0  0  0  0  0  0  0  0  0  0  0
   11.4960    8.1196   -3.1392 C   0  0  0  0  0  0  0  0  0  0  0  0
   11.3728    9.3273   -3.8369 C   0  0  0  0  0  0  0  0  0  0  0  0
   12.4660   10.3656   -3.7839 C   0  0  0  0  0  0  0  0  0  0  0  0
   13.5557    9.9776   -3.0636 F   0  0  0  0  0  0  0  0  0  0  0  0
   12.9331   10.6912   -5.0202 F   0  0  0  0  0  0  0  0  0  0  0  0
   12.0468   11.5344   -3.2231 F   0  0  0  0  0  0  0  0  0  0  0  0
   10.1970    9.5726   -4.5682 C   0  0  0  0  0  0  0  0  0  0  0  0
    9.1518    8.6428   -4.5785 C   0  0  0  0  0  0  0  0  0  0  0  0
    5.0105    4.1419   -1.1936 C   0  0  0  0  0  0  0  0  0  0  0  0
    5.4954    1.1499   -0.7488 C   0  0  0  0  0  0  0  0  0  0  0  0
    5.8911    0.0159   -1.4638 C   0  0  0  0  0  0  0  0  0  0  0  0
    4.9239   -0.9000   -1.9190 C   0  0  0  0  0  0  0  0  0  0  0  0
    5.1911   -2.0733   -2.6006 N   0  0  0  0  0  0  0  0  0  0  0  0
    4.0737   -2.7031   -2.8275 C   0  0  0  0  0  0  0  0  0  0  0  0
    3.8466   -3.9163   -3.3957 N   0  0  0  0  0  0  0  0  0  0  0  0
    4.8333   -4.7852   -3.7777 C   0  0  0  0  0  0  0  0  0  0  0  0
    6.0445   -4.6620   -3.7211 O   0  0  0  0  0  0  0  0  0  0  0  0
    4.2127   -6.0612   -4.2871 C   0  0  0  0  0  0  0  0  0  0  0  0
    3.7690   -5.6061   -5.7480 C   0  0  0  0  0  0  0  0  0  0  0  0
    4.0650   -6.9823   -5.4950 C   0  0  0  0  0  0  0  0  0  0  0  0
    2.6403   -1.9355   -2.3271 S   0  0  0  0  0  0  0  0  0  0  0  0
    3.5720   -0.6451   -1.6557 C   0  0  0  0  0  0  0  0  0  0  0  0
    3.9184    4.2285    2.0394 H   0  0  0  0  0  0  0  0  0  0  0  0
    5.2228    6.3403    1.9976 H   0  0  0  0  0  0  0  0  0  0  0  0
    6.4429    6.9975   -0.0120 H   0  0  0  0  0  0  0  0  0  0  0  0
    6.4218    4.9898   -3.1656 H   0  0  0  0  0  0  0  0  0  0  0  0
    7.3527    6.8221   -4.2900 H   0  0  0  0  0  0  0  0  0  0  0  0
   10.5416    6.2931   -2.5423 H   0  0  0  0  0  0  0  0  0  0  0  0
   12.3940    7.8974   -2.5646 H   0  0  0  0  0  0  0  0  0  0  0  0
   10.0769   10.5145   -5.1018 H   0  0  0  0  0  0  0  0  0  0  0  0
    8.2354    8.8822   -5.1104 H   0  0  0  0  0  0  0  0  0  0  0  0
    4.9250    3.5398   -2.0906 H   0  0  0  0  0  0  0  0  0  0  0  0
    6.2688    1.8177   -0.3740 H   0  0  0  0  0  0  0  0  0  0  0  0
    6.9427   -0.1749   -1.6622 H   0  0  0  0  0  0  0  0  0  0  0  0
    2.8823   -4.1930   -3.4977 H   0  0  0  0  0  0  0  0  0  0  0  0
    4.8435   -6.7808   -3.7591 H   0  0  0  0  0  0  0  0  0  0  0  0
    4.4810   -5.0504   -6.3537 H   0  0  0  0  0  0  0  0  0  0  0  0
    2.7424   -5.2805   -5.8651 H   0  0  0  0  0  0  0  0  0  0  0  0
    4.9551   -7.4114   -5.9417 H   0  0  0  0  0  0  0  0  0  0  0  0
    3.2354   -7.6858   -5.4602 H   0  0  0  0  0  0  0  0  0  0  0  0
  1  2  3  0  0  0  0
  2  3  1  0  0  0  0
  3  4  1  0  0  0  0
  3 38  2  0  0  0  0
  4  5  1  0  0  0  0
  4 26  2  0  0  0  0
  5  6  1  0  0  0  0
  6  7  1  0  0  0  0
  6 25  2  0  0  0  0
  7  8  2  0  0  0  0
  7 39  1  0  0  0  0
  8  9  1  0  0  0  0
  8 40  1  0  0  0  0
  9 10  2  0  0  0  0
  9 41  1  0  0  0  0
 10 11  1  0  0  0  0
 10 25  1  0  0  0  0
 11 12  1  0  0  0  0
 11 42  1  0  0  0  0
 12 13  2  0  0  0  0
 12 14  1  0  0  0  0
 14 15  1  0  0  0  0
 14 43  1  0  0  0  0
 15 16  1  0  0  0  0
 15 24  2  0  0  0  0
 16 17  2  0  0  0  0
 16 44  1  0  0  0  0
 17 18  1  0  0  0  0
 17 45  1  0  0  0  0
 18 19  1  0  0  0  0
 18 23  2  0  0  0  0
 19 20  1  0  0  0  0
 19 21  1  0  0  0  0
 19 22  1  0  0  0  0
 23 24  1  0  0  0  0
 23 46  1  0  0  0  0
 24 47  1  0  0  0  0
 25 48  1  0  0  0  0
 26 27  1  0  0  0  0
 26 49  1  0  0  0  0
 27 28  2  0  0  0  0
 27 50  1  0  0  0  0
 28 29  1  0  0  0  0
 28 38  1  0  0  0  0
 29 30  2  0  0  0  0
 30 31  1  0  0  0  0
 30 37  1  0  0  0  0
 31 32  1  0  0  0  0
 31 51  1  0  0  0  0
 32 33  2  0  0  0  0
 32 34  1  0  0  0  0
 34 35  1  0  0  0  0
 34 36  1  0  0  0  0
 34 52  1  0  0  0  0
 35 36  1  0  0  0  0
 35 53  1  0  0  0  0
 35 54  1  0  0  0  0
 36 55  1  0  0  0  0
 36 56  1  0  0  0  0
 37 38  1  0  0  0  0
M  END
$$$$
