CHEMBL118440
 OpenBabel04072215363D

 31 34  0  0  0  0  0  0  0  0999 V2000
   -3.2315    0.6581   -0.1606 O   0  0  0  0  0  0  0  0  0  0  0  0
   -2.0917    0.1970   -0.0866 C   0  0  0  0  0  0  0  0  0  0  0  0
   -1.0043    1.0288   -0.0515 N   0  0  0  0  0  0  0  0  0  0  0  0
    0.3175    0.5720   -0.0139 C   0  0  0  0  0  0  0  0  0  0  0  0
    1.3692    1.4867   -0.0061 C   0  0  0  0  0  0  0  0  0  0  0  0
    2.6842    1.0200    0.0064 C   0  0  0  0  0  0  0  0  0  0  0  0
    2.9412   -0.3520    0.0119 C   0  0  0  0  0  0  0  0  0  0  0  0
    1.8842   -1.2653    0.0138 C   0  0  0  0  0  0  0  0  0  0  0  0
    0.5648   -0.8052    0.0031 C   0  0  0  0  0  0  0  0  0  0  0  0
   -0.5668   -1.7314    0.0114 C   0  0  0  0  0  0  0  0  0  0  0  0
   -1.8355   -1.2837   -0.0286 C   0  0  0  0  0  0  0  0  0  0  0  0
   -2.8968   -2.2341   -0.0111 C   0  0  0  0  0  0  0  0  0  0  0  0
   -2.8661   -3.5504    0.1139 N   0  0  0  0  0  0  0  0  0  0  0  0
   -4.1740   -3.9674    0.0620 C   0  0  0  0  0  0  0  0  0  0  0  0
   -4.7082   -5.2600    0.1547 C   0  0  0  0  0  0  0  0  0  0  0  0
   -6.0971   -5.4194    0.0618 C   0  0  0  0  0  0  0  0  0  0  0  0
   -6.9340   -4.3156   -0.1224 C   0  0  0  0  0  0  0  0  0  0  0  0
   -6.4178   -3.0176   -0.2113 C   0  0  0  0  0  0  0  0  0  0  0  0
   -5.0316   -2.8894   -0.1104 C   0  0  0  0  0  0  0  0  0  0  0  0
   -4.1995   -1.8024   -0.1406 N   0  0  0  0  0  0  0  0  0  0  0  0
   -1.1990    2.0201   -0.0814 H   0  0  0  0  0  0  0  0  0  0  0  0
    1.1817    2.5561   -0.0137 H   0  0  0  0  0  0  0  0  0  0  0  0
    3.5111    1.7262    0.0085 H   0  0  0  0  0  0  0  0  0  0  0  0
    3.9672   -0.7120    0.0159 H   0  0  0  0  0  0  0  0  0  0  0  0
    2.1005   -2.3313    0.0202 H   0  0  0  0  0  0  0  0  0  0  0  0
   -0.3503   -2.7955    0.0556 H   0  0  0  0  0  0  0  0  0  0  0  0
   -4.0523   -6.1112    0.2959 H   0  0  0  0  0  0  0  0  0  0  0  0
   -6.5260   -6.4161    0.1335 H   0  0  0  0  0  0  0  0  0  0  0  0
   -8.0090   -4.4669   -0.1963 H   0  0  0  0  0  0  0  0  0  0  0  0
   -7.0658   -2.1593   -0.3521 H   0  0  0  0  0  0  0  0  0  0  0  0
   -4.4783   -0.8324   -0.2367 H   0  0  0  0  0  0  0  0  0  0  0  0
  1  2  2  0  0  0  0
  2  3  1  0  0  0  0
  2 11  1  0  0  0  0
  3  4  1  0  0  0  0
  3 21  1  0  0  0  0
  4  5  1  0  0  0  0
  4  9  2  0  0  0  0
  5  6  2  0  0  0  0
  5 22  1  0  0  0  0
  6  7  1  0  0  0  0
  6 23  1  0  0  0  0
  7  8  2  0  0  0  0
  7 24  1  0  0  0  0
  8  9  1  0  0  0  0
  8 25  1  0  0  0  0
  9 10  1  0  0  0  0
 10 11  2  0  0  0  0
 10 26  1  0  0  0  0
 11 12  1  0  0  0  0
 12 13  2  0  0  0  0
 12 20  1  0  0  0  0
 13 14  1  0  0  0  0
 14 15  1  0  0  0  0
 14 19  2  0  0  0  0
 15 16  2  0  0  0  0
 15 27  1  0  0  0  0
 16 17  1  0  0  0  0
 16 28  1  0  0  0  0
 17 18  2  0  0  0  0
 17 29  1  0  0  0  0
 18 19  1  0  0  0  0
 18 30  1  0  0  0  0
 19 20  1  0  0  0  0
 20 31  1  0  0  0  0
M  END
$$$$
