CHEMBL1258603
 OpenBabel04072215363D

 60 64  0  0  1  0  0  0  0  0999 V2000
    1.0790   -0.3665   -0.1309 C   0  0  0  0  0  0  0  0  0  0  0  0
    2.5763   -0.5511   -0.1867 C   0  0  0  0  0  0  0  0  0  0  0  0
    3.2444    0.7607   -0.1380 C   0  0  0  0  0  0  0  0  0  0  0  0
    4.5696    0.6375   -0.1307 C   0  0  0  0  0  0  0  0  0  0  0  0
    5.6016    1.5994   -0.0923 C   0  0  0  0  0  0  0  0  0  0  0  0
    5.7116    2.7925    0.4618 C   0  0  0  0  0  0  0  0  0  0  0  0
    4.7903    3.6218    1.2800 C   0  0  0  0  0  0  0  0  0  0  0  0
    3.6712    3.3721    1.6753 O   0  0  0  0  0  0  0  0  0  0  0  0
    5.5145    4.7811    1.5091 N   0  0  0  0  0  0  0  0  0  0  0  0
    6.7755    4.7292    0.9147 C   0  0  0  0  0  0  0  0  0  0  0  0
    7.7704    5.6752    0.9235 C   0  0  0  0  0  0  0  0  0  0  0  0
    8.9584    5.3755    0.2382 C   0  0  0  0  0  0  0  0  0  0  0  0
    9.1232    4.1533   -0.4253 C   0  0  0  0  0  0  0  0  0  0  0  0
   10.2689    3.8847   -1.0635 F   0  0  0  0  0  0  0  0  0  0  0  0
    8.1198    3.2065   -0.4284 C   0  0  0  0  0  0  0  0  0  0  0  0
    6.9527    3.5212    0.2544 C   0  0  0  0  0  0  0  0  0  0  0  0
    4.8265   -0.7680   -0.1966 C   0  0  0  0  0  0  0  0  0  0  0  0
    6.0823   -1.2654   -0.1045 C   0  0  0  0  0  0  0  0  0  0  0  0
    5.9351   -2.6237   -0.1447 C   0  0  0  0  0  0  0  0  0  0  0  0
    5.8519   -3.9064   -0.1859 C   0  0  0  0  0  0  0  0  0  0  0  0
    4.3320   -4.1514   -0.2306 C   0  0  0  0  0  0  0  0  0  0  0  0
    3.3107   -3.1547   -0.2425 C   0  0  0  0  0  0  0  0  0  0  0  0
    1.9389   -3.3409   -0.2071 O   0  0  0  0  0  0  0  0  0  0  0  0
    1.1881   -4.3853    0.4157 C   0  0  0  0  0  0  0  0  0  0  0  0
   -0.1613   -4.6187   -0.3392 C   0  0  0  0  0  0  0  0  0  0  0  0
   -1.0604   -5.6793    0.1534 N   0  0  0  0  0  0  0  0  0  0  0  0
   -2.2716   -5.7950   -0.6587 C   0  0  0  0  0  0  0  0  0  0  0  0
   -3.4053   -5.3886    0.2523 C   0  0  0  0  0  0  0  0  0  0  0  0
   -2.9878   -5.9833    1.5756 C   0  0  0  0  0  0  0  0  0  0  0  0
   -1.4438   -5.8624    1.5747 C   0  0  1  0  0  0  0  0  0  0  0  0
   -0.8593   -7.1886    2.1280 C   0  0  0  0  0  0  0  0  0  0  0  0
    0.5656   -7.1940    2.1744 O   0  0  0  0  0  0  0  0  0  0  0  0
    3.5099   -1.5709   -0.2436 C   0  0  0  0  0  0  0  0  0  0  0  0
    0.8179    0.7103   -0.1168 H   0  0  0  0  0  0  0  0  0  0  0  0
    0.6328   -0.7513    0.7894 H   0  0  0  0  0  0  0  0  0  0  0  0
    0.5669   -0.7484   -1.0154 H   0  0  0  0  0  0  0  0  0  0  0  0
    2.7015    1.6914   -0.0928 H   0  0  0  0  0  0  0  0  0  0  0  0
    6.4784    1.2596   -0.6257 H   0  0  0  0  0  0  0  0  0  0  0  0
    5.1248    5.5325    2.0527 H   0  0  0  0  0  0  0  0  0  0  0  0
    7.6458    6.6150    1.4426 H   0  0  0  0  0  0  0  0  0  0  0  0
    9.7740    6.0890    0.2135 H   0  0  0  0  0  0  0  0  0  0  0  0
    8.2749    2.2691   -0.9507 H   0  0  0  0  0  0  0  0  0  0  0  0
    7.0381   -0.7748   -0.0721 H   0  0  0  0  0  0  0  0  0  0  0  0
    5.3699   -2.5726    0.8384 H   0  0  0  0  0  0  0  0  0  0  0  0
    6.7363   -4.4944   -0.4032 H   0  0  0  0  0  0  0  0  0  0  0  0
    4.1893   -5.2331   -0.1971 H   0  0  0  0  0  0  0  0  0  0  0  0
    0.9390   -4.0679    1.4386 H   0  0  0  0  0  0  0  0  0  0  0  0
    1.7653   -5.3010    0.3981 H   0  0  0  0  0  0  0  0  0  0  0  0
    0.0358   -4.8104   -1.4131 H   0  0  0  0  0  0  0  0  0  0  0  0
   -0.7116   -3.6751   -0.3911 H   0  0  0  0  0  0  0  0  0  0  0  0
   -2.3501   -6.8491   -0.9466 H   0  0  0  0  0  0  0  0  0  0  0  0
   -2.2770   -5.1954   -1.5721 H   0  0  0  0  0  0  0  0  0  0  0  0
   -4.3646   -5.7726   -0.1047 H   0  0  0  0  0  0  0  0  0  0  0  0
   -3.4703   -4.2979    0.3344 H   0  0  0  0  0  0  0  0  0  0  0  0
   -3.3119   -7.0322    1.6033 H   0  0  0  0  0  0  0  0  0  0  0  0
   -3.4651   -5.4730    2.4203 H   0  0  0  0  0  0  0  0  0  0  0  0
   -1.1620   -5.0308    2.2337 H   0  0  0  0  0  0  0  0  0  0  0  0
   -1.1954   -8.0528    1.5391 H   0  0  0  0  0  0  0  0  0  0  0  0
   -1.2031   -7.3405    3.1575 H   0  0  0  0  0  0  0  0  0  0  0  0
    0.8966   -7.1717    1.2592 H   0  0  0  0  0  0  0  0  0  0  0  0
  1  2  1  0  0  0  0
  1 34  1  0  0  0  0
  1 35  1  0  0  0  0
  1 36  1  0  0  0  0
  2  3  1  0  0  0  0
  2 33  2  0  0  0  0
  3  4  2  0  0  0  0
  3 37  1  0  0  0  0
  4  5  1  0  0  0  0
  4 17  1  0  0  0  0
  5  6  2  3  0  0  0
  5 38  1  0  0  0  0
  6  7  1  0  0  0  0
  6 16  1  0  0  0  0
  7  8  2  0  0  0  0
  7  9  1  0  0  0  0
  9 10  1  0  0  0  0
  9 39  1  0  0  0  0
 10 11  1  0  0  0  0
 10 16  2  0  0  0  0
 11 12  2  0  0  0  0
 11 40  1  0  0  0  0
 12 13  1  0  0  0  0
 12 41  1  0  0  0  0
 13 14  1  0  0  0  0
 13 15  2  0  0  0  0
 15 16  1  0  0  0  0
 15 42  1  0  0  0  0
 17 18  2  0  0  0  0
 17 33  1  0  0  0  0
 18 19  1  0  0  0  0
 18 43  1  0  0  0  0
 19 20  2  0  0  0  0
 19 44  1  0  0  0  0
 20 21  1  0  0  0  0
 20 45  1  0  0  0  0
 21 22  2  0  0  0  0
 21 46  1  0  0  0  0
 22 23  1  0  0  0  0
 22 33  1  0  0  0  0
 23 24  1  0  0  0  0
 24 25  1  0  0  0  0
 24 47  1  0  0  0  0
 24 48  1  0  0  0  0
 25 26  1  0  0  0  0
 25 49  1  0  0  0  0
 25 50  1  0  0  0  0
 26 27  1  0  0  0  0
 26 30  1  0  0  0  0
 27 28  1  0  0  0  0
 27 51  1  0  0  0  0
 27 52  1  0  0  0  0
 28 29  1  0  0  0  0
 28 53  1  0  0  0  0
 28 54  1  0  0  0  0
 29 30  1  0  0  0  0
 29 55  1  0  0  0  0
 29 56  1  0  0  0  0
 30 31  1  0  0  0  0
 30 57  1  1  0  0  0
 31 32  1  0  0  0  0
 31 58  1  0  0  0  0
 31 59  1  0  0  0  0
 32 60  1  0  0  0  0
M  END
$$$$
