CHEMBL3656051
 OpenBabel04072215373D

 50 53  0  0  0  0  0  0  0  0999 V2000
    1.1145   -0.0753   -0.8780 C   0  0  0  0  0  0  0  0  0  0  0  0
    2.4524    0.2293   -1.2724 O   0  0  0  0  0  0  0  0  0  0  0  0
    3.0891    1.0678   -0.4038 C   0  0  0  0  0  0  0  0  0  0  0  0
    2.5740    1.5352    0.6054 O   0  0  0  0  0  0  0  0  0  0  0  0
    4.4684    1.3529   -0.7801 C   0  0  0  0  0  0  0  0  0  0  0  0
    5.1659    0.9584   -1.9080 C   0  0  0  0  0  0  0  0  0  0  0  0
    6.4451    1.4586   -1.8278 N   0  0  0  0  0  0  0  0  0  0  0  0
    6.6031    2.1748   -0.6618 C   0  0  0  0  0  0  0  0  0  0  0  0
    7.8629    2.7952   -0.2620 C   0  0  0  0  0  0  0  0  0  0  0  0
    7.9649    3.4786    0.9435 C   0  0  0  0  0  0  0  0  0  0  0  0
    9.2130    3.9206    1.3712 C   0  0  0  0  0  0  0  0  0  0  0  0
    9.4318    4.5267    2.5965 O   0  0  0  0  0  0  0  0  0  0  0  0
    8.6398    4.1657    3.6747 C   0  0  0  0  0  0  0  0  0  0  0  0
    8.1988    2.8561    3.8853 C   0  0  0  0  0  0  0  0  0  0  0  0
    7.2976    2.5895    4.9096 C   0  0  0  0  0  0  0  0  0  0  0  0
    6.9209    3.6006    5.7904 C   0  0  0  0  0  0  0  0  0  0  0  0
    5.9506    3.3010    6.6618 F   0  0  0  0  0  0  0  0  0  0  0  0
    7.4731    4.8860    5.7044 C   0  0  0  0  0  0  0  0  0  0  0  0
    7.2399    5.9218    6.6468 N   0  0  0  0  0  0  0  0  0  0  0  0
    6.7675    5.7824    7.9498 C   0  0  0  0  0  0  0  0  0  0  0  0
    6.4972    4.7186    8.4963 O   0  0  0  0  0  0  0  0  0  0  0  0
    6.6897    7.0424    8.6805 C   0  0  0  0  0  0  0  0  0  0  0  0
    7.0687    8.2030    8.0531 O   0  0  0  0  0  0  0  0  0  0  0  0
    6.9337    9.2098    8.9527 C   0  0  0  0  0  0  0  0  0  0  0  0
    6.4731    8.7279   10.1526 C   0  0  0  0  0  0  0  0  0  0  0  0
    6.3070    7.3245    9.9890 C   0  0  0  0  0  0  0  0  0  0  0  0
    5.8336    6.3665   11.0230 C   0  0  0  0  0  0  0  0  0  0  0  0
    8.3088    5.1682    4.6046 C   0  0  0  0  0  0  0  0  0  0  0  0
   10.2991    3.7769    0.5175 C   0  0  0  0  0  0  0  0  0  0  0  0
   10.0974    3.1243   -0.6931 C   0  0  0  0  0  0  0  0  0  0  0  0
    8.9101    2.6084   -1.0952 N   0  0  0  0  0  0  0  0  0  0  0  0
    5.3842    2.1203   -0.0085 C   0  0  0  0  0  0  0  0  0  0  0  0
    0.7418   -0.8767   -1.5209 H   0  0  0  0  0  0  0  0  0  0  0  0
    0.4757    0.8040   -1.0082 H   0  0  0  0  0  0  0  0  0  0  0  0
    1.0775   -0.4268    0.1589 H   0  0  0  0  0  0  0  0  0  0  0  0
    4.8624    0.3621   -2.7595 H   0  0  0  0  0  0  0  0  0  0  0  0
    7.1869    1.3223   -2.5041 H   0  0  0  0  0  0  0  0  0  0  0  0
    7.0868    3.6240    1.5593 H   0  0  0  0  0  0  0  0  0  0  0  0
    8.4982    2.0449    3.2270 H   0  0  0  0  0  0  0  0  0  0  0  0
    6.8629    1.6008    5.0221 H   0  0  0  0  0  0  0  0  0  0  0  0
    7.5778    6.8511    6.4214 H   0  0  0  0  0  0  0  0  0  0  0  0
    7.2034   10.1959    8.6008 H   0  0  0  0  0  0  0  0  0  0  0  0
    6.2832    9.3113   11.0438 H   0  0  0  0  0  0  0  0  0  0  0  0
    5.6640    6.8750   11.9789 H   0  0  0  0  0  0  0  0  0  0  0  0
    6.5747    5.5795   11.1936 H   0  0  0  0  0  0  0  0  0  0  0  0
    4.8896    5.9029   10.7197 H   0  0  0  0  0  0  0  0  0  0  0  0
    8.7213    6.1644    4.4654 H   0  0  0  0  0  0  0  0  0  0  0  0
   11.2803    4.1514    0.7845 H   0  0  0  0  0  0  0  0  0  0  0  0
   10.9183    2.9865   -1.3926 H   0  0  0  0  0  0  0  0  0  0  0  0
    5.1534    2.5693    0.9498 H   0  0  0  0  0  0  0  0  0  0  0  0
  1  2  1  0  0  0  0
  1 33  1  0  0  0  0
  1 34  1  0  0  0  0
  1 35  1  0  0  0  0
  2  3  1  0  0  0  0
  3  4  2  0  0  0  0
  3  5  1  0  0  0  0
  5  6  2  0  0  0  0
  5 32  1  0  0  0  0
  6  7  1  0  0  0  0
  6 36  1  0  0  0  0
  7  8  1  0  0  0  0
  7 37  1  0  0  0  0
  8  9  1  0  0  0  0
  8 32  2  0  0  0  0
  9 10  1  0  0  0  0
  9 31  2  0  0  0  0
 10 11  2  0  0  0  0
 10 38  1  0  0  0  0
 11 12  1  0  0  0  0
 11 29  1  0  0  0  0
 12 13  1  0  0  0  0
 13 14  1  0  0  0  0
 13 28  2  0  0  0  0
 14 15  2  0  0  0  0
 14 39  1  0  0  0  0
 15 16  1  0  0  0  0
 15 40  1  0  0  0  0
 16 17  1  0  0  0  0
 16 18  2  0  0  0  0
 18 19  1  0  0  0  0
 18 28  1  0  0  0  0
 19 20  1  0  0  0  0
 19 41  1  0  0  0  0
 20 21  2  0  0  0  0
 20 22  1  0  0  0  0
 22 23  1  0  0  0  0
 22 26  2  0  0  0  0
 23 24  1  0  0  0  0
 24 25  2  0  0  0  0
 24 42  1  0  0  0  0
 25 26  1  0  0  0  0
 25 43  1  0  0  0  0
 26 27  1  0  0  0  0
 27 44  1  0  0  0  0
 27 45  1  0  0  0  0
 27 46  1  0  0  0  0
 28 47  1  0  0  0  0
 29 30  2  0  0  0  0
 29 48  1  0  0  0  0
 30 31  1  0  0  0  0
 30 49  1  0  0  0  0
 32 50  1  0  0  0  0
M  END
$$$$
