CHEMBL199455
 OpenBabel04072215363D

 58 61  0  0  0  0  0  0  0  0999 V2000
    8.3733   -0.9384    8.0271 C   0  0  0  0  0  0  0  0  0  0  0  0
    7.0294   -1.4018    7.9908 O   0  0  0  0  0  0  0  0  0  0  0  0
    6.5590   -1.9207    6.8007 C   0  0  0  0  0  0  0  0  0  0  0  0
    7.2646   -2.0110    5.6644 C   0  0  0  0  0  0  0  0  0  0  0  0
    6.6972   -2.5758    4.4379 C   0  0  0  0  0  0  0  0  0  0  0  0
    7.3379   -2.5712    3.3883 O   0  0  0  0  0  0  0  0  0  0  0  0
    5.3429   -3.2041    4.4924 C   0  0  0  0  0  0  0  0  0  0  0  0
    4.9935   -3.8471    3.3122 N   0  0  0  0  0  0  0  0  0  0  0  0
    4.5195   -5.1876    3.2554 C   0  0  0  0  0  0  0  0  0  0  0  0
    3.9952   -5.7499    4.3577 N   0  0  0  0  0  0  0  0  0  0  0  0
    3.5183   -6.9919    4.2239 C   0  0  0  0  0  0  0  0  0  0  0  0
    3.5120   -7.7234    3.1004 N   0  0  0  0  0  0  0  0  0  0  0  0
    4.0421   -7.1582    2.0048 C   0  0  0  0  0  0  0  0  0  0  0  0
    4.0975   -7.8547    0.7933 C   0  0  0  0  0  0  0  0  0  0  0  0
    4.7059   -7.3422   -0.3891 C   0  0  0  0  0  0  0  0  0  0  0  0
    4.6345   -8.2580   -1.4064 O   0  0  0  0  0  0  0  0  0  0  0  0
    5.7215   -8.3028   -2.3116 C   0  0  0  0  0  0  0  0  0  0  0  0
    6.4153   -9.6474   -2.3464 C   0  0  0  0  0  0  0  0  0  0  0  0
    5.5038  -10.8112   -2.7110 C   0  0  0  0  0  0  0  0  0  0  0  0
    6.2967  -12.0378   -2.9019 N   0  0  0  0  0  0  0  0  0  0  0  0
    5.4475  -13.1550   -3.3425 C   0  0  0  0  0  0  0  0  0  0  0  0
    4.9183  -13.7704   -2.0633 C   0  0  0  0  0  0  0  0  0  0  0  0
    6.0402  -13.5809   -1.0632 C   0  0  0  0  0  0  0  0  0  0  0  0
    6.9441  -12.5182   -1.6699 C   0  0  0  0  0  0  0  0  0  0  0  0
    5.2580   -6.0672   -0.3574 C   0  0  0  0  0  0  0  0  0  0  0  0
    5.9800   -5.3048   -1.2172 O   0  0  0  0  0  0  0  0  0  0  0  0
    6.0124   -5.3706   -2.6246 C   0  0  0  0  0  0  0  0  0  0  0  0
    5.1541   -5.3553    0.8466 C   0  0  0  0  0  0  0  0  0  0  0  0
    4.5714   -5.8735    2.0245 C   0  0  0  0  0  0  0  0  0  0  0  0
    4.6250   -3.0831    5.6122 C   0  0  0  0  0  0  0  0  0  0  0  0
    5.1432   -2.4064    6.8139 C   0  0  0  0  0  0  0  0  0  0  0  0
    4.4258   -2.2604    7.7973 O   0  0  0  0  0  0  0  0  0  0  0  0
    8.5634   -0.5262    9.0213 H   0  0  0  0  0  0  0  0  0  0  0  0
    8.5319   -0.1394    7.2952 H   0  0  0  0  0  0  0  0  0  0  0  0
    9.0733   -1.7643    7.8605 H   0  0  0  0  0  0  0  0  0  0  0  0
    8.2892   -1.6808    5.5642 H   0  0  0  0  0  0  0  0  0  0  0  0
    5.7773   -3.7298    2.6663 H   0  0  0  0  0  0  0  0  0  0  0  0
    3.1037   -7.4505    5.1153 H   0  0  0  0  0  0  0  0  0  0  0  0
    3.6743   -8.8595    0.7801 H   0  0  0  0  0  0  0  0  0  0  0  0
    6.5194   -7.6336   -2.0073 H   0  0  0  0  0  0  0  0  0  0  0  0
    5.3374   -8.0375   -3.3027 H   0  0  0  0  0  0  0  0  0  0  0  0
    6.8549   -9.8015   -1.3560 H   0  0  0  0  0  0  0  0  0  0  0  0
    7.2416   -9.5793   -3.0654 H   0  0  0  0  0  0  0  0  0  0  0  0
    5.0086  -10.5657   -3.6601 H   0  0  0  0  0  0  0  0  0  0  0  0
    4.7206  -10.9389   -1.9564 H   0  0  0  0  0  0  0  0  0  0  0  0
    6.0727  -13.8785   -3.8793 H   0  0  0  0  0  0  0  0  0  0  0  0
    4.6477  -12.8512   -4.0263 H   0  0  0  0  0  0  0  0  0  0  0  0
    4.6561  -14.8281   -2.1900 H   0  0  0  0  0  0  0  0  0  0  0  0
    4.0205  -13.2417   -1.7229 H   0  0  0  0  0  0  0  0  0  0  0  0
    6.5995  -14.5112   -0.9183 H   0  0  0  0  0  0  0  0  0  0  0  0
    5.6447  -13.2666   -0.0915 H   0  0  0  0  0  0  0  0  0  0  0  0
    7.9085  -12.9649   -1.9400 H   0  0  0  0  0  0  0  0  0  0  0  0
    7.1744  -11.7450   -0.9325 H   0  0  0  0  0  0  0  0  0  0  0  0
    6.2534   -4.3649   -2.9855 H   0  0  0  0  0  0  0  0  0  0  0  0
    5.0697   -5.6834   -3.0715 H   0  0  0  0  0  0  0  0  0  0  0  0
    6.8588   -5.9818   -2.9559 H   0  0  0  0  0  0  0  0  0  0  0  0
    5.5796   -4.3537    0.8434 H   0  0  0  0  0  0  0  0  0  0  0  0
    3.6234   -3.4909    5.6915 H   0  0  0  0  0  0  0  0  0  0  0  0
  1  2  1  0  0  0  0
  1 33  1  0  0  0  0
  1 34  1  0  0  0  0
  1 35  1  0  0  0  0
  2  3  1  0  0  0  0
  3  4  2  0  0  0  0
  3 31  1  0  0  0  0
  4  5  1  0  0  0  0
  4 36  1  0  0  0  0
  5  6  2  0  0  0  0
  5  7  1  0  0  0  0
  7  8  1  0  0  0  0
  7 30  2  0  0  0  0
  8  9  1  0  0  0  0
  8 37  1  0  0  0  0
  9 10  1  0  0  0  0
  9 29  2  0  0  0  0
 10 11  2  0  0  0  0
 11 12  1  0  0  0  0
 11 38  1  0  0  0  0
 12 13  2  0  0  0  0
 13 14  1  0  0  0  0
 13 29  1  0  0  0  0
 14 15  2  0  0  0  0
 14 39  1  0  0  0  0
 15 16  1  0  0  0  0
 15 25  1  0  0  0  0
 16 17  1  0  0  0  0
 17 18  1  0  0  0  0
 17 40  1  0  0  0  0
 17 41  1  0  0  0  0
 18 19  1  0  0  0  0
 18 42  1  0  0  0  0
 18 43  1  0  0  0  0
 19 20  1  0  0  0  0
 19 44  1  0  0  0  0
 19 45  1  0  0  0  0
 20 21  1  0  0  0  0
 20 24  1  0  0  0  0
 21 22  1  0  0  0  0
 21 46  1  0  0  0  0
 21 47  1  0  0  0  0
 22 23  1  0  0  0  0
 22 48  1  0  0  0  0
 22 49  1  0  0  0  0
 23 24  1  0  0  0  0
 23 50  1  0  0  0  0
 23 51  1  0  0  0  0
 24 52  1  0  0  0  0
 24 53  1  0  0  0  0
 25 26  1  0  0  0  0
 25 28  2  0  0  0  0
 26 27  1  0  0  0  0
 27 54  1  0  0  0  0
 27 55  1  0  0  0  0
 27 56  1  0  0  0  0
 28 29  1  0  0  0  0
 28 57  1  0  0  0  0
 30 31  1  0  0  0  0
 30 58  1  0  0  0  0
 31 32  2  0  0  0  0
M  END
$$$$
