CHEMBL3745816
 OpenBabel04072215373D

 53 57  0  0  0  0  0  0  0  0999 V2000
   -0.2035    0.5894    2.2193 C   0  0  0  0  0  0  0  0  0  0  0  0
    0.1505    0.1171    0.7969 C   0  0  0  0  0  0  0  0  0  0  0  0
   -1.1378   -0.0506   -0.0276 C   0  0  0  0  0  0  0  0  0  0  0  0
    1.0184    1.1980    0.1250 C   0  0  0  0  0  0  0  0  0  0  0  0
    0.8620   -1.2040    0.9064 C   0  0  0  0  0  0  0  0  0  0  0  0
    0.5028   -2.4345    1.4136 C   0  0  0  0  0  0  0  0  0  0  0  0
    1.6715   -3.2239    1.3195 C   0  0  0  0  0  0  0  0  0  0  0  0
    1.7679   -4.5279    1.7711 N   0  0  0  0  0  0  0  0  0  0  0  0
    2.8412   -5.3296    1.4682 C   0  0  0  0  0  0  0  0  0  0  0  0
    3.8058   -5.1087    0.7499 O   0  0  0  0  0  0  0  0  0  0  0  0
    2.6735   -6.6402    1.9646 N   0  0  0  0  0  0  0  0  0  0  0  0
    3.0547   -7.7597    1.2388 C   0  0  0  0  0  0  0  0  0  0  0  0
    2.7901   -8.8901    1.9644 C   0  0  0  0  0  0  0  0  0  0  0  0
    2.2908   -8.4768    3.2219 C   0  0  0  0  0  0  0  0  0  0  0  0
    1.9558   -9.1882    4.3900 C   0  0  0  0  0  0  0  0  0  0  0  0
    1.5611   -8.5059    5.5360 C   0  0  0  0  0  0  0  0  0  0  0  0
    1.3255   -9.2983    6.6471 O   0  0  0  0  0  0  0  0  0  0  0  0
    1.4147   -8.6920    7.8808 C   0  0  0  0  0  0  0  0  0  0  0  0
    2.4832   -7.9253    8.1647 N   0  0  0  0  0  0  0  0  0  0  0  0
    2.3774   -7.1298    9.2457 C   0  0  0  0  0  0  0  0  0  0  0  0
    1.3007   -7.0105   10.0415 N   0  0  0  0  0  0  0  0  0  0  0  0
    0.3019   -7.8466    9.7299 C   0  0  0  0  0  0  0  0  0  0  0  0
    0.3233   -8.7512    8.7009 C   0  0  0  0  0  0  0  0  0  0  0  0
   -0.9658   -9.4635    8.6200 C   0  0  0  0  0  0  0  0  0  0  0  0
   -1.9294   -8.4996    9.2123 N   0  0  0  0  0  0  0  0  0  0  0  0
   -1.1161   -7.7777   10.2444 C   0  0  0  0  0  0  0  0  0  0  0  0
    1.4161   -7.1143    5.4957 C   0  0  0  0  0  0  0  0  0  0  0  0
    1.7462   -6.3776    4.3449 C   0  0  0  0  0  0  0  0  0  0  0  0
    2.1856   -7.0765    3.2043 C   0  0  0  0  0  0  0  0  0  0  0  0
    2.6592   -2.5236    0.7559 N   0  0  0  0  0  0  0  0  0  0  0  0
    2.1565   -1.2674    0.4988 O   0  0  0  0  0  0  0  0  0  0  0  0
   -0.7494    1.5375    2.2036 H   0  0  0  0  0  0  0  0  0  0  0  0
    0.7039    0.7326    2.8215 H   0  0  0  0  0  0  0  0  0  0  0  0
   -0.8258   -0.1458    2.7430 H   0  0  0  0  0  0  0  0  0  0  0  0
   -1.7064    0.8855   -0.0678 H   0  0  0  0  0  0  0  0  0  0  0  0
   -1.7952   -0.8181    0.3967 H   0  0  0  0  0  0  0  0  0  0  0  0
   -0.9120   -0.3473   -1.0592 H   0  0  0  0  0  0  0  0  0  0  0  0
    0.4867    2.1565    0.0786 H   0  0  0  0  0  0  0  0  0  0  0  0
    1.2853    0.9196   -0.9013 H   0  0  0  0  0  0  0  0  0  0  0  0
    1.9513    1.3675    0.6751 H   0  0  0  0  0  0  0  0  0  0  0  0
   -0.4611   -2.7038    1.8145 H   0  0  0  0  0  0  0  0  0  0  0  0
    0.9392   -4.9298    2.1909 H   0  0  0  0  0  0  0  0  0  0  0  0
    3.4686   -7.6330    0.2466 H   0  0  0  0  0  0  0  0  0  0  0  0
    2.9879   -9.9055    1.6442 H   0  0  0  0  0  0  0  0  0  0  0  0
    2.0595  -10.2738    4.4108 H   0  0  0  0  0  0  0  0  0  0  0  0
    3.2246   -6.4906    9.4636 H   0  0  0  0  0  0  0  0  0  0  0  0
   -0.9443  -10.3662    9.2459 H   0  0  0  0  0  0  0  0  0  0  0  0
   -1.2529   -9.7484    7.6046 H   0  0  0  0  0  0  0  0  0  0  0  0
   -2.1273   -7.8159    8.4763 H   0  0  0  0  0  0  0  0  0  0  0  0
   -1.2081   -8.2862   11.2078 H   0  0  0  0  0  0  0  0  0  0  0  0
   -1.4530   -6.7401   10.3312 H   0  0  0  0  0  0  0  0  0  0  0  0
    1.0871   -6.5620    6.3688 H   0  0  0  0  0  0  0  0  0  0  0  0
    1.7148   -5.2939    4.3823 H   0  0  0  0  0  0  0  0  0  0  0  0
  1  2  1  0  0  0  0
  1 32  1  0  0  0  0
  1 33  1  0  0  0  0
  1 34  1  0  0  0  0
  2  3  1  0  0  0  0
  2  4  1  0  0  0  0
  2  5  1  0  0  0  0
  3 35  1  0  0  0  0
  3 36  1  0  0  0  0
  3 37  1  0  0  0  0
  4 38  1  0  0  0  0
  4 39  1  0  0  0  0
  4 40  1  0  0  0  0
  5  6  2  0  0  0  0
  5 31  1  0  0  0  0
  6  7  1  0  0  0  0
  6 41  1  0  0  0  0
  7  8  1  0  0  0  0
  7 30  2  0  0  0  0
  8  9  1  0  0  0  0
  8 42  1  0  0  0  0
  9 10  2  0  0  0  0
  9 11  1  0  0  0  0
 11 12  1  0  0  0  0
 11 29  1  0  0  0  0
 12 13  2  0  0  0  0
 12 43  1  0  0  0  0
 13 14  1  0  0  0  0
 13 44  1  0  0  0  0
 14 15  1  0  0  0  0
 14 29  2  0  0  0  0
 15 16  2  0  0  0  0
 15 45  1  0  0  0  0
 16 17  1  0  0  0  0
 16 27  1  0  0  0  0
 17 18  1  0  0  0  0
 18 19  1  0  0  0  0
 18 23  2  0  0  0  0
 19 20  2  0  0  0  0
 20 21  1  0  0  0  0
 20 46  1  0  0  0  0
 21 22  2  0  0  0  0
 22 23  1  0  0  0  0
 22 26  1  0  0  0  0
 23 24  1  0  0  0  0
 24 25  1  0  0  0  0
 24 47  1  0  0  0  0
 24 48  1  0  0  0  0
 25 26  1  0  0  0  0
 25 49  1  0  0  0  0
 26 50  1  0  0  0  0
 26 51  1  0  0  0  0
 27 28  2  0  0  0  0
 27 52  1  0  0  0  0
 28 29  1  0  0  0  0
 28 53  1  0  0  0  0
 30 31  1  0  0  0  0
M  END
$$$$
