CHEMBL1965131
 OpenBabel04072215363D

 36 38  0  0  0  0  0  0  0  0999 V2000
    2.4879    0.6105   -0.2184 C   0  0  0  0  0  0  0  0  0  0  0  0
    0.9966    0.4608   -0.2827 C   0  0  0  0  0  0  0  0  0  0  0  0
    0.4020   -0.6329   -0.9221 C   0  0  0  0  0  0  0  0  0  0  0  0
   -0.9891   -0.7693   -0.9412 C   0  0  0  0  0  0  0  0  0  0  0  0
   -1.7943    0.1977   -0.3261 C   0  0  0  0  0  0  0  0  0  0  0  0
   -3.2641   -0.0067   -0.2755 C   0  0  0  0  0  0  0  0  0  0  0  0
   -3.7206   -1.1442   -0.3168 O   0  0  0  0  0  0  0  0  0  0  0  0
   -4.0216    1.1478   -0.1647 N   0  0  0  0  0  0  0  0  0  0  0  0
   -5.4182    1.1114   -0.0777 C   0  0  0  0  0  0  0  0  0  0  0  0
   -6.1499    0.4909    0.9319 C   0  0  0  0  0  0  0  0  0  0  0  0
   -5.7873   -0.1947    2.1690 C   0  0  0  0  0  0  0  0  0  0  0  0
   -4.6213   -0.9014    2.1993 N   0  0  0  0  0  0  0  0  0  0  0  0
   -6.4790   -0.2106    3.1879 O   0  0  0  0  0  0  0  0  0  0  0  0
   -7.8330    0.6882    0.6735 S   0  0  0  0  0  0  0  0  0  0  0  0
   -7.6173    1.6325   -0.7331 C   0  0  0  0  0  0  0  0  0  0  0  0
   -8.6574    2.1607   -1.5271 C   0  0  0  0  0  0  0  0  0  0  0  0
   -8.3436    2.9224   -2.6508 C   0  0  0  0  0  0  0  0  0  0  0  0
   -7.0201    3.1754   -2.9734 C   0  0  0  0  0  0  0  0  0  0  0  0
   -6.7029    4.1273   -4.3801 Cl  0  0  0  0  0  0  0  0  0  0  0  0
   -5.9942    2.6535   -2.1711 C   0  0  0  0  0  0  0  0  0  0  0  0
   -4.3330    2.9565   -2.5160 Cl  0  0  0  0  0  0  0  0  0  0  0  0
   -6.2658    1.8435   -1.0241 C   0  0  0  0  0  0  0  0  0  0  0  0
   -1.2039    1.2917    0.3145 C   0  0  0  0  0  0  0  0  0  0  0  0
    0.1833    1.4233    0.3322 C   0  0  0  0  0  0  0  0  0  0  0  0
    2.9984   -0.2042   -0.7434 H   0  0  0  0  0  0  0  0  0  0  0  0
    2.8201    0.6005    0.8250 H   0  0  0  0  0  0  0  0  0  0  0  0
    2.7911    1.5547   -0.6827 H   0  0  0  0  0  0  0  0  0  0  0  0
    1.0164   -1.3968   -1.3956 H   0  0  0  0  0  0  0  0  0  0  0  0
   -1.4382   -1.6352   -1.4211 H   0  0  0  0  0  0  0  0  0  0  0  0
   -3.6424    1.9272   -0.6955 H   0  0  0  0  0  0  0  0  0  0  0  0
   -4.2605   -1.2630    1.3196 H   0  0  0  0  0  0  0  0  0  0  0  0
   -4.5062   -1.5025    3.0025 H   0  0  0  0  0  0  0  0  0  0  0  0
   -9.6972    1.9690   -1.2698 H   0  0  0  0  0  0  0  0  0  0  0  0
   -9.1491    3.3156   -3.2673 H   0  0  0  0  0  0  0  0  0  0  0  0
   -1.8033    2.0268    0.8449 H   0  0  0  0  0  0  0  0  0  0  0  0
    0.6328    2.2679    0.8502 H   0  0  0  0  0  0  0  0  0  0  0  0
  1  2  1  0  0  0  0
  1 25  1  0  0  0  0
  1 26  1  0  0  0  0
  1 27  1  0  0  0  0
  2  3  1  0  0  0  0
  2 24  2  0  0  0  0
  3  4  2  0  0  0  0
  3 28  1  0  0  0  0
  4  5  1  0  0  0  0
  4 29  1  0  0  0  0
  5  6  1  0  0  0  0
  5 23  2  0  0  0  0
  6  7  2  0  0  0  0
  6  8  1  0  0  0  0
  8  9  1  0  0  0  0
  8 30  1  0  0  0  0
  9 10  2  0  0  0  0
  9 22  1  0  0  0  0
 10 11  1  0  0  0  0
 10 14  1  0  0  0  0
 11 12  1  0  0  0  0
 11 13  2  0  0  0  0
 12 31  1  0  0  0  0
 12 32  1  0  0  0  0
 14 15  1  0  0  0  0
 15 16  1  0  0  0  0
 15 22  2  0  0  0  0
 16 17  2  0  0  0  0
 16 33  1  0  0  0  0
 17 18  1  0  0  0  0
 17 34  1  0  0  0  0
 18 19  1  0  0  0  0
 18 20  2  0  0  0  0
 20 21  1  0  0  0  0
 20 22  1  0  0  0  0
 23 24  1  0  0  0  0
 23 35  1  0  0  0  0
 24 36  1  0  0  0  0
M  END
$$$$
