CHEMBL201303
 OpenBabel04072215363D

 48 51  0  0  0  0  0  0  0  0999 V2000
    0.9722    0.0421   -0.1475 O   0  0  0  0  0  0  0  0  0  0  0  0
    2.1892    0.0553   -0.0397 C   0  0  0  0  0  0  0  0  0  0  0  0
    2.8683   -0.5506    1.0164 N   0  0  0  0  0  0  0  0  0  0  0  0
    2.2165   -1.2683    2.0420 C   0  0  0  0  0  0  0  0  0  0  0  0
    0.9134   -1.7389    1.8893 C   0  0  0  0  0  0  0  0  0  0  0  0
    0.2361   -2.3382    2.9403 C   0  0  0  0  0  0  0  0  0  0  0  0
    0.8916   -2.5876    4.1406 C   0  0  0  0  0  0  0  0  0  0  0  0
    0.3021   -3.2278    5.2112 O   0  0  0  0  0  0  0  0  0  0  0  0
   -0.6573   -4.1921    4.9736 C   0  0  0  0  0  0  0  0  0  0  0  0
   -0.6744   -5.0062    3.8334 C   0  0  0  0  0  0  0  0  0  0  0  0
   -1.7078   -5.9142    3.6252 C   0  0  0  0  0  0  0  0  0  0  0  0
   -2.6924   -6.0717    4.5968 C   0  0  0  0  0  0  0  0  0  0  0  0
   -2.6448   -5.3155    5.7718 C   0  0  0  0  0  0  0  0  0  0  0  0
   -1.6279   -4.3719    5.9573 C   0  0  0  0  0  0  0  0  0  0  0  0
    2.2068   -2.1442    4.3044 C   0  0  0  0  0  0  0  0  0  0  0  0
    2.8755   -1.4911    3.2551 C   0  0  0  0  0  0  0  0  0  0  0  0
    2.9912    0.7419   -1.0283 C   0  0  0  0  0  0  0  0  0  0  0  0
    4.6925    0.8612   -0.9762 S   0  0  0  0  0  0  0  0  0  0  0  0
    4.6579    1.6348   -2.5046 C   0  0  0  0  0  0  0  0  0  0  0  0
    3.4697    1.8826   -3.0095 N   0  0  0  0  0  0  0  0  0  0  0  0
    2.4953    1.3740   -2.1662 C   0  0  0  0  0  0  0  0  0  0  0  0
    1.0295    1.4714   -2.5222 C   0  0  0  0  0  0  0  0  0  0  0  0
    0.7114    2.1310   -3.8603 C   0  0  0  0  0  0  0  0  0  0  0  0
   -0.7784    2.1869   -4.1312 C   0  0  0  0  0  0  0  0  0  0  0  0
   -1.5300    3.2798   -3.6894 C   0  0  0  0  0  0  0  0  0  0  0  0
   -2.8932    3.3058   -3.9448 C   0  0  0  0  0  0  0  0  0  0  0  0
   -3.5558    2.3267   -4.5948 N   0  0  0  0  0  0  0  0  0  0  0  0
   -2.8154    1.2758   -5.0103 C   0  0  0  0  0  0  0  0  0  0  0  0
   -1.4464    1.1610   -4.8076 C   0  0  0  0  0  0  0  0  0  0  0  0
    3.8502   -0.3457    1.1186 H   0  0  0  0  0  0  0  0  0  0  0  0
    0.3675   -1.6613    0.9563 H   0  0  0  0  0  0  0  0  0  0  0  0
   -0.7961   -2.6307    2.7706 H   0  0  0  0  0  0  0  0  0  0  0  0
    0.0952   -4.9177    3.0724 H   0  0  0  0  0  0  0  0  0  0  0  0
   -1.7398   -6.4901    2.7063 H   0  0  0  0  0  0  0  0  0  0  0  0
   -3.4914   -6.7890    4.4414 H   0  0  0  0  0  0  0  0  0  0  0  0
   -3.4057   -5.4574    6.5318 H   0  0  0  0  0  0  0  0  0  0  0  0
   -1.6086   -3.7768    6.8664 H   0  0  0  0  0  0  0  0  0  0  0  0
    2.7098   -2.2973    5.2553 H   0  0  0  0  0  0  0  0  0  0  0  0
    3.8876   -1.1332    3.4206 H   0  0  0  0  0  0  0  0  0  0  0  0
    5.5735    1.8957   -3.0201 H   0  0  0  0  0  0  0  0  0  0  0  0
    0.5173    2.0146   -1.7176 H   0  0  0  0  0  0  0  0  0  0  0  0
    0.6204    0.4514   -2.5364 H   0  0  0  0  0  0  0  0  0  0  0  0
    1.2092    1.5971   -4.6771 H   0  0  0  0  0  0  0  0  0  0  0  0
    1.1125    3.1525   -3.8716 H   0  0  0  0  0  0  0  0  0  0  0  0
   -1.0641    4.1052   -3.1604 H   0  0  0  0  0  0  0  0  0  0  0  0
   -3.5040    4.1446   -3.6243 H   0  0  0  0  0  0  0  0  0  0  0  0
   -3.3731    0.5018   -5.5318 H   0  0  0  0  0  0  0  0  0  0  0  0
   -0.9226    0.2882   -5.1807 H   0  0  0  0  0  0  0  0  0  0  0  0
  1  2  2  0  0  0  0
  2  3  1  0  0  0  0
  2 17  1  0  0  0  0
  3  4  1  0  0  0  0
  3 30  1  0  0  0  0
  4  5  1  0  0  0  0
  4 16  2  0  0  0  0
  5  6  2  0  0  0  0
  5 31  1  0  0  0  0
  6  7  1  0  0  0  0
  6 32  1  0  0  0  0
  7  8  1  0  0  0  0
  7 15  2  0  0  0  0
  8  9  1  0  0  0  0
  9 10  1  0  0  0  0
  9 14  2  0  0  0  0
 10 11  2  0  0  0  0
 10 33  1  0  0  0  0
 11 12  1  0  0  0  0
 11 34  1  0  0  0  0
 12 13  2  0  0  0  0
 12 35  1  0  0  0  0
 13 14  1  0  0  0  0
 13 36  1  0  0  0  0
 14 37  1  0  0  0  0
 15 16  1  0  0  0  0
 15 38  1  0  0  0  0
 16 39  1  0  0  0  0
 17 18  1  0  0  0  0
 17 21  2  0  0  0  0
 18 19  1  0  0  0  0
 19 20  2  0  0  0  0
 19 40  1  0  0  0  0
 20 21  1  0  0  0  0
 21 22  1  0  0  0  0
 22 23  1  0  0  0  0
 22 41  1  0  0  0  0
 22 42  1  0  0  0  0
 23 24  1  0  0  0  0
 23 43  1  0  0  0  0
 23 44  1  0  0  0  0
 24 25  1  0  0  0  0
 24 29  2  0  0  0  0
 25 26  2  0  0  0  0
 25 45  1  0  0  0  0
 26 27  1  0  0  0  0
 26 46  1  0  0  0  0
 27 28  2  0  0  0  0
 28 29  1  0  0  0  0
 28 47  1  0  0  0  0
 29 48  1  0  0  0  0
M  END
$$$$
