CHEMBL6246
 OpenBabel04072215383D

 28 31  0  0  0  0  0  0  0  0999 V2000
    0.9544   -0.1212   -0.0636 O   0  0  0  0  0  0  0  0  0  0  0  0
    2.1774   -0.0767   -0.0655 C   0  0  0  0  0  0  0  0  0  0  0  0
    2.9501   -1.2435   -0.0666 O   0  0  0  0  0  0  0  0  0  0  0  0
    4.3613   -1.2301   -0.0676 C   0  0  0  0  0  0  0  0  0  0  0  0
    5.0451   -2.4387   -0.0685 C   0  0  0  0  0  0  0  0  0  0  0  0
    4.4012   -3.6432   -0.0690 O   0  0  0  0  0  0  0  0  0  0  0  0
    6.4370   -2.4318   -0.0690 C   0  0  0  0  0  0  0  0  0  0  0  0
    7.1270   -3.6090   -0.0697 O   0  0  0  0  0  0  0  0  0  0  0  0
    7.1488   -1.2360   -0.0691 C   0  0  0  0  0  0  0  0  0  0  0  0
    6.4471   -0.0234   -0.0686 C   0  0  0  0  0  0  0  0  0  0  0  0
    7.1850    1.2659   -0.0693 C   0  0  0  0  0  0  0  0  0  0  0  0
    8.4078    1.3113   -0.0696 O   0  0  0  0  0  0  0  0  0  0  0  0
    6.4131    2.4316   -0.0698 O   0  0  0  0  0  0  0  0  0  0  0  0
    5.0027    2.4162   -0.0691 C   0  0  0  0  0  0  0  0  0  0  0  0
    4.3233    3.6263   -0.0699 C   0  0  0  0  0  0  0  0  0  0  0  0
    4.9750    4.8264   -0.0707 O   0  0  0  0  0  0  0  0  0  0  0  0
    2.9320    3.6237   -0.0694 C   0  0  0  0  0  0  0  0  0  0  0  0
    2.2477    4.8043   -0.0713 O   0  0  0  0  0  0  0  0  0  0  0  0
    2.2172    2.4291   -0.0674 C   0  0  0  0  0  0  0  0  0  0  0  0
    2.9155    1.2134   -0.0667 C   0  0  0  0  0  0  0  0  0  0  0  0
    4.3129    1.2090   -0.0678 C   0  0  0  0  0  0  0  0  0  0  0  0
    5.0494   -0.0217   -0.0678 C   0  0  0  0  0  0  0  0  0  0  0  0
    3.4414   -3.4602   -0.0692 H   0  0  0  0  0  0  0  0  0  0  0  0
    6.4456   -4.3115   -0.0693 H   0  0  0  0  0  0  0  0  0  0  0  0
    8.2365   -1.2534   -0.0696 H   0  0  0  0  0  0  0  0  0  0  0  0
    5.9335    4.6348   -0.0673 H   0  0  0  0  0  0  0  0  0  0  0  0
    2.9330    5.5036   -0.0751 H   0  0  0  0  0  0  0  0  0  0  0  0
    1.1296    2.4500   -0.0661 H   0  0  0  0  0  0  0  0  0  0  0  0
  1  2  2  0  0  0  0
  2  3  1  0  0  0  0
  2 20  1  0  0  0  0
  3  4  1  0  0  0  0
  4  5  1  0  0  0  0
  4 22  2  0  0  0  0
  5  6  1  0  0  0  0
  5  7  2  0  0  0  0
  6 23  1  0  0  0  0
  7  8  1  0  0  0  0
  7  9  1  0  0  0  0
  8 24  1  0  0  0  0
  9 10  2  0  0  0  0
  9 25  1  0  0  0  0
 10 11  1  0  0  0  0
 10 22  1  0  0  0  0
 11 12  2  0  0  0  0
 11 13  1  0  0  0  0
 13 14  1  0  0  0  0
 14 15  1  0  0  0  0
 14 21  2  0  0  0  0
 15 16  1  0  0  0  0
 15 17  2  0  0  0  0
 16 26  1  0  0  0  0
 17 18  1  0  0  0  0
 17 19  1  0  0  0  0
 18 27  1  0  0  0  0
 19 20  2  0  0  0  0
 19 28  1  0  0  0  0
 20 21  1  0  0  0  0
 21 22  1  0  0  0  0
M  END
$$$$
