CHEMBL3221554
 OpenBabel04072215363D

 52 53  0  0  0  0  0  0  0  0999 V2000
    3.5073    5.3983    4.6277 C   0  0  0  0  0  0  0  0  0  0  0  0
    3.8737    4.7567    3.3006 C   0  0  0  0  0  0  0  0  0  0  0  0
    4.5235    3.5569    3.5027 O   0  0  0  0  0  0  0  0  0  0  0  0
    4.0363    2.3563    3.0990 C   0  0  0  0  0  0  0  0  0  0  0  0
    2.8347    2.1959    2.9291 O   0  0  0  0  0  0  0  0  0  0  0  0
    4.8874    1.3323    2.8554 N   0  0  0  0  0  0  0  0  0  0  0  0
    6.2917    1.4646    3.0330 C   0  0  0  0  0  0  0  0  0  0  0  0
    6.8478    1.1596    4.2862 C   0  0  0  0  0  0  0  0  0  0  0  0
    8.2262    1.2547    4.5005 C   0  0  0  0  0  0  0  0  0  0  0  0
    9.0788    1.6233    3.4568 C   0  0  0  0  0  0  0  0  0  0  0  0
   10.4920    1.6783    3.6713 N   0  0  0  0  0  0  0  0  0  0  0  0
   11.4094    1.5308    2.5902 C   0  0  0  0  0  0  0  0  0  0  0  0
   11.0500    0.7312    1.5417 N   0  0  0  0  0  0  0  0  0  0  0  0
   11.8480    0.5535    0.4746 C   0  0  0  0  0  0  0  0  0  0  0  0
   13.0328    1.1995    0.3909 N   0  0  0  0  0  0  0  0  0  0  0  0
   13.4461    2.0199    1.3944 C   0  0  0  0  0  0  0  0  0  0  0  0
   14.6524    2.7048    1.2518 C   0  0  0  0  0  0  0  0  0  0  0  0
   15.1364    3.5745    2.2548 C   0  0  0  0  0  0  0  0  0  0  0  0
   16.3346    4.2246    2.0550 O   0  0  0  0  0  0  0  0  0  0  0  0
   17.1351    4.0995    0.8962 C   0  0  0  0  0  0  0  0  0  0  0  0
   14.3319    3.7307    3.4527 C   0  0  0  0  0  0  0  0  0  0  0  0
   14.5744    4.4882    4.5631 O   0  0  0  0  0  0  0  0  0  0  0  0
   15.5899    5.3205    4.9734 C   0  0  0  0  0  0  0  0  0  0  0  0
   13.1164    3.0349    3.5549 C   0  0  0  0  0  0  0  0  0  0  0  0
   12.6629    2.1943    2.5424 C   0  0  0  0  0  0  0  0  0  0  0  0
    8.5159    1.9639    2.2074 C   0  0  0  0  0  0  0  0  0  0  0  0
    7.1348    1.9034    1.9827 C   0  0  0  0  0  0  0  0  0  0  0  0
    6.6113    2.3315    0.6290 C   0  0  0  0  0  0  0  0  0  0  0  0
    2.2581   -1.2553   -2.4790 Cl  0  0  0  0  0  0  0  0  0  0  0  0
    2.9949    6.3685    4.4493 H   0  0  0  0  0  0  0  0  0  0  0  0
    4.4239    5.5817    5.2252 H   0  0  0  0  0  0  0  0  0  0  0  0
    2.8201    4.7299    5.1880 H   0  0  0  0  0  0  0  0  0  0  0  0
    4.5590    5.4228    2.7365 H   0  0  0  0  0  0  0  0  0  0  0  0
    2.9545    4.6197    2.6909 H   0  0  0  0  0  0  0  0  0  0  0  0
    4.5118    0.4293    2.5281 H   0  0  0  0  0  0  0  0  0  0  0  0
    6.2111    0.8440    5.1032 H   0  0  0  0  0  0  0  0  0  0  0  0
    8.6372    1.0121    5.4721 H   0  0  0  0  0  0  0  0  0  0  0  0
   10.8526    1.7397    4.6351 H   0  0  0  0  0  0  0  0  0  0  0  0
   11.5331   -0.1196   -0.3151 H   0  0  0  0  0  0  0  0  0  0  0  0
   15.2020    2.5514    0.3320 H   0  0  0  0  0  0  0  0  0  0  0  0
   18.0416    4.7289    0.9873 H   0  0  0  0  0  0  0  0  0  0  0  0
   16.6020    4.4388   -0.0265 H   0  0  0  0  0  0  0  0  0  0  0  0
   17.4881    3.0510    0.7362 H   0  0  0  0  0  0  0  0  0  0  0  0
   15.3222    5.6888    5.9931 H   0  0  0  0  0  0  0  0  0  0  0  0
   15.6574    6.2138    4.3239 H   0  0  0  0  0  0  0  0  0  0  0  0
   16.5436    4.7669    5.0820 H   0  0  0  0  0  0  0  0  0  0  0  0
   12.5297    3.1781    4.4521 H   0  0  0  0  0  0  0  0  0  0  0  0
    9.1518    2.2983    1.3988 H   0  0  0  0  0  0  0  0  0  0  0  0
    7.4327    2.7211   -0.0152 H   0  0  0  0  0  0  0  0  0  0  0  0
    5.8852    3.1606    0.7572 H   0  0  0  0  0  0  0  0  0  0  0  0
    6.1351    1.4968    0.0759 H   0  0  0  0  0  0  0  0  0  0  0  0
    1.0472   -0.9981   -1.8789 H   0  0  0  0  0  0  0  0  0  0  0  0
  1  2  1  0  0  0  0
  1 30  1  0  0  0  0
  1 31  1  0  0  0  0
  1 32  1  0  0  0  0
  2  3  1  0  0  0  0
  2 33  1  0  0  0  0
  2 34  1  0  0  0  0
  3  4  1  0  0  0  0
  4  5  2  0  0  0  0
  4  6  1  0  0  0  0
  6  7  1  0  0  0  0
  6 35  1  0  0  0  0
  7  8  1  0  0  0  0
  7 27  2  0  0  0  0
  8  9  2  0  0  0  0
  8 36  1  0  0  0  0
  9 10  1  0  0  0  0
  9 37  1  0  0  0  0
 10 11  1  0  0  0  0
 10 26  2  0  0  0  0
 11 12  1  0  0  0  0
 11 38  1  0  0  0  0
 12 13  1  0  0  0  0
 12 25  2  0  0  0  0
 13 14  2  0  0  0  0
 14 15  1  0  0  0  0
 14 39  1  0  0  0  0
 15 16  2  0  0  0  0
 16 17  1  0  0  0  0
 16 25  1  0  0  0  0
 17 18  2  0  0  0  0
 17 40  1  0  0  0  0
 18 19  1  0  0  0  0
 18 21  1  0  0  0  0
 19 20  1  0  0  0  0
 20 41  1  0  0  0  0
 20 42  1  0  0  0  0
 20 43  1  0  0  0  0
 21 22  1  0  0  0  0
 21 24  2  0  0  0  0
 22 23  1  0  0  0  0
 23 44  1  0  0  0  0
 23 45  1  0  0  0  0
 23 46  1  0  0  0  0
 24 25  1  0  0  0  0
 24 47  1  0  0  0  0
 26 27  1  0  0  0  0
 26 48  1  0  0  0  0
 27 28  1  0  0  0  0
 28 49  1  0  0  0  0
 28 50  1  0  0  0  0
 28 51  1  0  0  0  0
 29 52  1  0  0  0  0
M  END
$$$$
