CHEMBL3952249
 OpenBabel04072215373D

 46 49  0  0  0  0  0  0  0  0999 V2000
    8.7564   -5.6137   -5.8090 C   0  0  0  0  0  0  0  0  0  0  0  0
    7.9420   -5.1806   -4.7252 O   0  0  0  0  0  0  0  0  0  0  0  0
    7.3710   -3.9439   -4.8462 C   0  0  0  0  0  0  0  0  0  0  0  0
    7.5291   -3.0768   -5.9253 C   0  0  0  0  0  0  0  0  0  0  0  0
    6.8683   -1.8450   -5.9378 C   0  0  0  0  0  0  0  0  0  0  0  0
    6.0256   -1.4635   -4.8856 C   0  0  0  0  0  0  0  0  0  0  0  0
    5.3698   -0.2183   -4.8673 N   0  0  0  0  0  0  0  0  0  0  0  0
    4.8248    0.4101   -5.9952 C   0  0  0  0  0  0  0  0  0  0  0  0
    4.8301    1.7490   -6.0261 N   0  0  0  0  0  0  0  0  0  0  0  0
    4.3045    2.3354   -7.1242 C   0  0  0  0  0  0  0  0  0  0  0  0
    3.7781    1.6390   -8.1898 C   0  0  0  0  0  0  0  0  0  0  0  0
    3.7937    0.2633   -8.0491 C   0  0  0  0  0  0  0  0  0  0  0  0
    4.3227   -0.3524   -6.9786 N   0  0  0  0  0  0  0  0  0  0  0  0
    3.2700   -0.6397   -9.1310 C   0  0  0  0  0  0  0  0  0  0  0  0
    2.3054    0.1176  -10.0380 C   0  0  0  0  0  0  0  0  0  0  0  0
    2.9478    1.3574  -10.4766 N   0  0  0  0  0  0  0  0  0  0  0  0
    3.3916    1.6817  -11.7568 C   0  0  0  0  0  0  0  0  0  0  0  0
    3.8046    2.8101  -12.0295 O   0  0  0  0  0  0  0  0  0  0  0  0
    3.3838    0.6876  -12.8620 C   0  0  0  0  0  0  0  0  0  0  0  0
    3.6767   -0.6688  -12.7163 C   0  0  0  0  0  0  0  0  0  0  0  0
    3.6209   -1.5210  -13.8176 C   0  0  0  0  0  0  0  0  0  0  0  0
    3.3369   -0.9727  -15.0527 C   0  0  0  0  0  0  0  0  0  0  0  0
    3.1136    0.3424  -15.2524 N   0  0  0  0  0  0  0  0  0  0  0  0
    3.1503    1.1442  -14.1537 C   0  0  0  0  0  0  0  0  0  0  0  0
    3.1728    2.3139   -9.3877 C   0  0  0  0  0  0  0  0  0  0  0  0
    5.9142   -2.3137   -3.7841 C   0  0  0  0  0  0  0  0  0  0  0  0
    6.5657   -3.5534   -3.7742 C   0  0  0  0  0  0  0  0  0  0  0  0
    9.0943   -6.6320   -5.5910 H   0  0  0  0  0  0  0  0  0  0  0  0
    9.6443   -4.9808   -5.9071 H   0  0  0  0  0  0  0  0  0  0  0  0
    8.1901   -5.6479   -6.7454 H   0  0  0  0  0  0  0  0  0  0  0  0
    8.1535   -3.3245   -6.7769 H   0  0  0  0  0  0  0  0  0  0  0  0
    7.0070   -1.1885   -6.7940 H   0  0  0  0  0  0  0  0  0  0  0  0
    5.8612    0.4901   -4.3408 H   0  0  0  0  0  0  0  0  0  0  0  0
    4.3226    3.4223   -7.1121 H   0  0  0  0  0  0  0  0  0  0  0  0
    2.7734   -1.5133   -8.6949 H   0  0  0  0  0  0  0  0  0  0  0  0
    4.1410   -0.9970   -9.6897 H   0  0  0  0  0  0  0  0  0  0  0  0
    1.4010    0.3947   -9.4803 H   0  0  0  0  0  0  0  0  0  0  0  0
    1.9654   -0.4929  -10.8750 H   0  0  0  0  0  0  0  0  0  0  0  0
    3.9662   -1.0900  -11.7646 H   0  0  0  0  0  0  0  0  0  0  0  0
    3.8070   -2.5843  -13.7088 H   0  0  0  0  0  0  0  0  0  0  0  0
    3.2917   -1.5941  -15.9445 H   0  0  0  0  0  0  0  0  0  0  0  0
    2.9848    2.1991  -14.3592 H   0  0  0  0  0  0  0  0  0  0  0  0
    2.1928    2.7208   -9.1098 H   0  0  0  0  0  0  0  0  0  0  0  0
    3.8082    3.1433   -9.7131 H   0  0  0  0  0  0  0  0  0  0  0  0
    5.2791   -2.0385   -2.9459 H   0  0  0  0  0  0  0  0  0  0  0  0
    6.4353   -4.2207   -2.9274 H   0  0  0  0  0  0  0  0  0  0  0  0
  1  2  1  0  0  0  0
  1 28  1  0  0  0  0
  1 29  1  0  0  0  0
  1 30  1  0  0  0  0
  2  3  1  0  0  0  0
  3  4  1  0  0  0  0
  3 27  2  0  0  0  0
  4  5  2  0  0  0  0
  4 31  1  0  0  0  0
  5  6  1  0  0  0  0
  5 32  1  0  0  0  0
  6  7  1  0  0  0  0
  6 26  2  0  0  0  0
  7  8  1  0  0  0  0
  7 33  1  0  0  0  0
  8  9  1  0  0  0  0
  8 13  2  0  0  0  0
  9 10  2  0  0  0  0
 10 11  1  0  0  0  0
 10 34  1  0  0  0  0
 11 12  2  0  0  0  0
 11 25  1  0  0  0  0
 12 13  1  0  0  0  0
 12 14  1  0  0  0  0
 14 15  1  0  0  0  0
 14 35  1  0  0  0  0
 14 36  1  0  0  0  0
 15 16  1  0  0  0  0
 15 37  1  0  0  0  0
 15 38  1  0  0  0  0
 16 17  1  0  0  0  0
 16 25  1  0  0  0  0
 17 18  2  0  0  0  0
 17 19  1  0  0  0  0
 19 20  1  0  0  0  0
 19 24  2  0  0  0  0
 20 21  2  0  0  0  0
 20 39  1  0  0  0  0
 21 22  1  0  0  0  0
 21 40  1  0  0  0  0
 22 23  2  0  0  0  0
 22 41  1  0  0  0  0
 23 24  1  0  0  0  0
 24 42  1  0  0  0  0
 25 43  1  0  0  0  0
 25 44  1  0  0  0  0
 26 27  1  0  0  0  0
 26 45  1  0  0  0  0
 27 46  1  0  0  0  0
M  END
$$$$
