CHEMBL3671531
 OpenBabel04072215373D

 67 69  0  0  0  0  0  0  0  0999 V2000
    1.4979   -0.2918   -1.4362 C   0  0  0  0  0  0  0  0  0  0  0  0
    2.5329   -0.0420   -0.6235 C   0  0  0  0  0  0  0  0  0  0  0  0
    3.1125    1.3253   -0.5184 C   0  0  0  0  0  0  0  0  0  0  0  0
    2.4962    2.3186   -0.8809 O   0  0  0  0  0  0  0  0  0  0  0  0
    4.4020    1.3048   -0.0194 N   0  0  0  0  0  0  0  0  0  0  0  0
    5.1297    2.4901    0.1968 C   0  0  0  0  0  0  0  0  0  0  0  0
    6.3233    2.6210   -0.5126 C   0  0  0  0  0  0  0  0  0  0  0  0
    7.0073    3.8521   -0.5475 C   0  0  0  0  0  0  0  0  0  0  0  0
    8.0713    4.1458   -1.4153 C   0  0  0  0  0  0  0  0  0  0  0  0
    8.3990    3.2342   -2.4581 N   0  0  0  0  0  0  0  0  0  0  0  0
    9.1132    3.5816   -3.6269 C   0  0  0  0  0  0  0  0  0  0  0  0
    8.8030    4.7624   -4.3159 C   0  0  0  0  0  0  0  0  0  0  0  0
    9.6000    5.2140   -5.3669 C   0  0  0  0  0  0  0  0  0  0  0  0
   10.7147    4.4739   -5.7503 C   0  0  0  0  0  0  0  0  0  0  0  0
   11.8716    5.1637   -7.0761 Br  0  0  0  0  0  0  0  0  0  0  0  0
   11.0021    3.2577   -5.1353 C   0  0  0  0  0  0  0  0  0  0  0  0
   10.1954    2.8188   -4.0850 C   0  0  0  0  0  0  0  0  0  0  0  0
   10.4993    1.6614   -3.4754 F   0  0  0  0  0  0  0  0  0  0  0  0
    8.7056    5.3393   -1.3786 N   0  0  0  0  0  0  0  0  0  0  0  0
    8.2581    6.2367   -0.5008 C   0  0  0  0  0  0  0  0  0  0  0  0
    7.2198    6.0863    0.3225 N   0  0  0  0  0  0  0  0  0  0  0  0
    6.5850    4.9139    0.2828 C   0  0  0  0  0  0  0  0  0  0  0  0
    5.4610    4.7215    1.0673 C   0  0  0  0  0  0  0  0  0  0  0  0
    4.7283    3.5247    1.0519 C   0  0  0  0  0  0  0  0  0  0  0  0
    3.7093    3.4999    1.9676 O   0  0  0  0  0  0  0  0  0  0  0  0
    3.4738    2.2676    2.6532 C   0  0  0  0  0  0  0  0  0  0  0  0
    4.6998    1.6918    3.3686 C   0  0  0  0  0  0  0  0  0  0  0  0
    4.4153    0.4071    3.9535 N   0  0  0  0  0  0  0  0  0  0  0  0
    4.4693   -0.7808    3.2703 C   0  0  0  0  0  0  0  0  0  0  0  0
    4.8031   -0.8744    2.0907 O   0  0  0  0  0  0  0  0  0  0  0  0
    3.9938   -1.9850    4.0645 C   0  0  0  0  0  0  0  0  0  0  0  0
    4.1536   -1.8390    5.5849 C   0  0  0  0  0  0  0  0  0  0  0  0
    3.3906   -0.7220    6.2111 N   0  0  0  0  0  0  0  0  0  0  0  0
    1.9386   -0.7774    5.9607 C   0  0  0  0  0  0  0  0  0  0  0  0
    1.1998   -1.9477    6.5931 C   0  0  0  0  0  0  0  0  0  0  0  0
    3.7505   -0.6340    7.6385 C   0  0  0  0  0  0  0  0  0  0  0  0
    3.1006    0.5178    8.3974 C   0  0  0  0  0  0  0  0  0  0  0  0
    1.0357   -1.2727   -1.4677 H   0  0  0  0  0  0  0  0  0  0  0  0
    1.0828    0.4793   -2.0800 H   0  0  0  0  0  0  0  0  0  0  0  0
    2.9353   -0.8116    0.0255 H   0  0  0  0  0  0  0  0  0  0  0  0
    4.9266    0.4573   -0.2070 H   0  0  0  0  0  0  0  0  0  0  0  0
    6.6726    1.7869   -1.1102 H   0  0  0  0  0  0  0  0  0  0  0  0
    8.6017    2.3013   -2.1201 H   0  0  0  0  0  0  0  0  0  0  0  0
    7.9493    5.3594   -4.0027 H   0  0  0  0  0  0  0  0  0  0  0  0
    9.3572    6.1585   -5.8455 H   0  0  0  0  0  0  0  0  0  0  0  0
   11.8615    2.6669   -5.4343 H   0  0  0  0  0  0  0  0  0  0  0  0
    8.7825    7.1865   -0.4684 H   0  0  0  0  0  0  0  0  0  0  0  0
    5.1371    5.5327    1.7164 H   0  0  0  0  0  0  0  0  0  0  0  0
    2.9917    1.5383    2.0008 H   0  0  0  0  0  0  0  0  0  0  0  0
    2.7124    2.4812    3.4150 H   0  0  0  0  0  0  0  0  0  0  0  0
    5.0071    2.3578    4.1817 H   0  0  0  0  0  0  0  0  0  0  0  0
    5.5617    1.5731    2.7085 H   0  0  0  0  0  0  0  0  0  0  0  0
    4.0199    0.3904    4.8963 H   0  0  0  0  0  0  0  0  0  0  0  0
    4.6015   -2.8402    3.7425 H   0  0  0  0  0  0  0  0  0  0  0  0
    2.9596   -2.2053    3.7812 H   0  0  0  0  0  0  0  0  0  0  0  0
    5.2218   -1.6618    5.7723 H   0  0  0  0  0  0  0  0  0  0  0  0
    3.9087   -2.7924    6.0650 H   0  0  0  0  0  0  0  0  0  0  0  0
    1.7545   -0.7816    4.8801 H   0  0  0  0  0  0  0  0  0  0  0  0
    1.4737    0.1619    6.2871 H   0  0  0  0  0  0  0  0  0  0  0  0
    1.7550   -2.8841    6.5067 H   0  0  0  0  0  0  0  0  0  0  0  0
    0.2384   -2.0924    6.0906 H   0  0  0  0  0  0  0  0  0  0  0  0
    1.0038   -1.7610    7.6535 H   0  0  0  0  0  0  0  0  0  0  0  0
    4.8359   -0.4861    7.7105 H   0  0  0  0  0  0  0  0  0  0  0  0
    3.5224   -1.5758    8.1505 H   0  0  0  0  0  0  0  0  0  0  0  0
    3.3332    1.4832    7.9366 H   0  0  0  0  0  0  0  0  0  0  0  0
    3.4771    0.5352    9.4256 H   0  0  0  0  0  0  0  0  0  0  0  0
    2.0137    0.4106    8.4555 H   0  0  0  0  0  0  0  0  0  0  0  0
  1  2  2  0  0  0  0
  1 38  1  0  0  0  0
  1 39  1  0  0  0  0
  2  3  1  0  0  0  0
  2 40  1  0  0  0  0
  3  4  2  0  0  0  0
  3  5  1  0  0  0  0
  5  6  1  0  0  0  0
  5 41  1  0  0  0  0
  6  7  1  0  0  0  0
  6 24  2  0  0  0  0
  7  8  2  0  0  0  0
  7 42  1  0  0  0  0
  8  9  1  0  0  0  0
  8 22  1  0  0  0  0
  9 10  1  0  0  0  0
  9 19  2  0  0  0  0
 10 11  1  0  0  0  0
 10 43  1  0  0  0  0
 11 12  1  0  0  0  0
 11 17  2  0  0  0  0
 12 13  2  0  0  0  0
 12 44  1  0  0  0  0
 13 14  1  0  0  0  0
 13 45  1  0  0  0  0
 14 15  1  0  0  0  0
 14 16  2  0  0  0  0
 16 17  1  0  0  0  0
 16 46  1  0  0  0  0
 17 18  1  0  0  0  0
 19 20  1  0  0  0  0
 20 21  2  0  0  0  0
 20 47  1  0  0  0  0
 21 22  1  0  0  0  0
 22 23  2  0  0  0  0
 23 24  1  0  0  0  0
 23 48  1  0  0  0  0
 24 25  1  0  0  0  0
 25 26  1  0  0  0  0
 26 27  1  0  0  0  0
 26 49  1  0  0  0  0
 26 50  1  0  0  0  0
 27 28  1  0  0  0  0
 27 51  1  0  0  0  0
 27 52  1  0  0  0  0
 28 29  1  0  0  0  0
 28 53  1  0  0  0  0
 29 30  2  0  0  0  0
 29 31  1  0  0  0  0
 31 32  1  0  0  0  0
 31 54  1  0  0  0  0
 31 55  1  0  0  0  0
 32 33  1  0  0  0  0
 32 56  1  0  0  0  0
 32 57  1  0  0  0  0
 33 34  1  0  0  0  0
 33 36  1  0  0  0  0
 34 35  1  0  0  0  0
 34 58  1  0  0  0  0
 34 59  1  0  0  0  0
 35 60  1  0  0  0  0
 35 61  1  0  0  0  0
 35 62  1  0  0  0  0
 36 37  1  0  0  0  0
 36 63  1  0  0  0  0
 36 64  1  0  0  0  0
 37 65  1  0  0  0  0
 37 66  1  0  0  0  0
 37 67  1  0  0  0  0
M  END
$$$$
