CHEMBL382478
 OpenBabel04072215373D

 51 55  0  0  0  0  0  0  0  0999 V2000
    1.9474   -1.0037   -0.4306 O   0  0  0  0  0  0  0  0  0  0  0  0
    2.0455    0.1466   -0.0235 C   0  0  0  0  0  0  0  0  0  0  0  0
    1.4136    0.6427    1.1137 N   0  0  0  0  0  0  0  0  0  0  0  0
    0.5009   -0.0506    1.9469 C   0  0  0  0  0  0  0  0  0  0  0  0
    0.1141   -1.3712    1.7447 C   0  0  0  0  0  0  0  0  0  0  0  0
   -0.7440   -2.0168    2.6463 C   0  0  0  0  0  0  0  0  0  0  0  0
   -1.2449   -1.3688    3.7853 C   0  0  0  0  0  0  0  0  0  0  0  0
   -2.0586   -2.0961    4.7914 C   0  0  0  0  0  0  0  0  0  0  0  0
   -1.8241   -3.4578    5.0699 C   0  0  0  0  0  0  0  0  0  0  0  0
   -2.5493   -4.1458    6.0495 C   0  0  0  0  0  0  0  0  0  0  0  0
   -3.5257   -3.4839    6.7828 C   0  0  0  0  0  0  0  0  0  0  0  0
   -3.7878   -2.1414    6.5232 C   0  0  0  0  0  0  0  0  0  0  0  0
   -3.0688   -1.4599    5.5353 C   0  0  0  0  0  0  0  0  0  0  0  0
   -0.8973   -0.0169    3.9437 C   0  0  0  0  0  0  0  0  0  0  0  0
   -0.0398    0.6340    3.0403 C   0  0  0  0  0  0  0  0  0  0  0  0
    2.8858    1.1194   -0.8076 C   0  0  0  0  0  0  0  0  0  0  0  0
    2.5433    2.4884   -0.7481 C   0  0  0  0  0  0  0  0  0  0  0  0
    3.2447    3.4485   -1.4776 C   0  0  0  0  0  0  0  0  0  0  0  0
    4.3065    3.0626   -2.2798 C   0  0  0  0  0  0  0  0  0  0  0  0
    4.6462    1.7140   -2.3754 C   0  0  0  0  0  0  0  0  0  0  0  0
    3.9332    0.7121   -1.6748 C   0  0  0  0  0  0  0  0  0  0  0  0
    4.3141   -0.7288   -1.9879 C   0  0  0  0  0  0  0  0  0  0  0  0
    5.4812   -1.2146   -1.2219 N   0  0  0  0  0  0  0  0  0  0  0  0
    5.3072   -1.9712   -0.0552 C   0  0  0  0  0  0  0  0  0  0  0  0
    6.2959   -2.5430    0.6532 C   0  0  0  0  0  0  0  0  0  0  0  0
    7.6540   -2.3419    0.1343 C   0  0  0  0  0  0  0  0  0  0  0  0
    8.8068   -2.7383    0.5746 N   0  0  0  0  0  0  0  0  0  0  0  0
    9.6921   -2.2363   -0.3742 C   0  0  0  0  0  0  0  0  0  0  0  0
    9.1874   -1.5656   -1.3734 N   0  0  0  0  0  0  0  0  0  0  0  0
    7.8518   -1.5840   -1.1020 C   0  0  0  0  0  0  0  0  0  0  0  0
    6.7845   -1.0739   -1.7181 C   0  0  0  0  0  0  0  0  0  0  0  0
    1.6540    1.5694    1.4263 H   0  0  0  0  0  0  0  0  0  0  0  0
    0.4713   -1.9527    0.9017 H   0  0  0  0  0  0  0  0  0  0  0  0
   -1.0012   -3.0528    2.4381 H   0  0  0  0  0  0  0  0  0  0  0  0
   -1.0488   -4.0049    4.5378 H   0  0  0  0  0  0  0  0  0  0  0  0
   -2.3371   -5.1943    6.2418 H   0  0  0  0  0  0  0  0  0  0  0  0
   -4.0787   -4.0115    7.5555 H   0  0  0  0  0  0  0  0  0  0  0  0
   -4.5545   -1.6215    7.0922 H   0  0  0  0  0  0  0  0  0  0  0  0
   -3.3163   -0.4167    5.3514 H   0  0  0  0  0  0  0  0  0  0  0  0
   -1.2621    0.5478    4.7988 H   0  0  0  0  0  0  0  0  0  0  0  0
    0.2003    1.6783    3.2222 H   0  0  0  0  0  0  0  0  0  0  0  0
    1.6870    2.8349   -0.1757 H   0  0  0  0  0  0  0  0  0  0  0  0
    2.9468    4.4934   -1.4330 H   0  0  0  0  0  0  0  0  0  0  0  0
    4.8537    3.8040   -2.8570 H   0  0  0  0  0  0  0  0  0  0  0  0
    5.4643    1.4379   -3.0392 H   0  0  0  0  0  0  0  0  0  0  0  0
    4.5519   -0.7816   -3.0612 H   0  0  0  0  0  0  0  0  0  0  0  0
    3.4790   -1.4259   -1.9076 H   0  0  0  0  0  0  0  0  0  0  0  0
    4.2703   -2.0909    0.2505 H   0  0  0  0  0  0  0  0  0  0  0  0
    6.1465   -3.1346    1.5432 H   0  0  0  0  0  0  0  0  0  0  0  0
   10.7753   -2.4092   -0.2671 H   0  0  0  0  0  0  0  0  0  0  0  0
    6.8870   -0.5269   -2.6477 H   0  0  0  0  0  0  0  0  0  0  0  0
  1  2  2  0  0  0  0
  2  3  1  0  0  0  0
  2 16  1  0  0  0  0
  3  4  1  0  0  0  0
  3 32  1  0  0  0  0
  4  5  1  0  0  0  0
  4 15  2  0  0  0  0
  5  6  2  0  0  0  0
  5 33  1  0  0  0  0
  6  7  1  0  0  0  0
  6 34  1  0  0  0  0
  7  8  1  0  0  0  0
  7 14  2  0  0  0  0
  8  9  1  0  0  0  0
  8 13  2  0  0  0  0
  9 10  2  0  0  0  0
  9 35  1  0  0  0  0
 10 11  1  0  0  0  0
 10 36  1  0  0  0  0
 11 12  2  0  0  0  0
 11 37  1  0  0  0  0
 12 13  1  0  0  0  0
 12 38  1  0  0  0  0
 13 39  1  0  0  0  0
 14 15  1  0  0  0  0
 14 40  1  0  0  0  0
 15 41  1  0  0  0  0
 16 17  1  0  0  0  0
 16 21  2  0  0  0  0
 17 18  2  0  0  0  0
 17 42  1  0  0  0  0
 18 19  1  0  0  0  0
 18 43  1  0  0  0  0
 19 20  2  0  0  0  0
 19 44  1  0  0  0  0
 20 21  1  0  0  0  0
 20 45  1  0  0  0  0
 21 22  1  0  0  0  0
 22 23  1  0  0  0  0
 22 46  1  0  0  0  0
 22 47  1  0  0  0  0
 23 24  1  0  0  0  0
 23 31  1  0  0  0  0
 24 25  2  0  0  0  0
 24 48  1  0  0  0  0
 25 26  1  0  0  0  0
 25 49  1  0  0  0  0
 26 27  2  0  0  0  0
 26 30  1  0  0  0  0
 27 28  1  0  0  0  0
 28 29  2  0  0  0  0
 28 50  1  0  0  0  0
 29 30  1  0  0  0  0
 30 31  2  0  0  0  0
 31 51  1  0  0  0  0
M  END
$$$$
