CHEMBL3968883
 OpenBabel04072215373D

 42 45  0  0  0  0  0  0  0  0999 V2000
    2.7368   -0.8677    1.0686 O   0  0  0  0  0  0  0  0  0  0  0  0
    2.3751   -0.6133   -0.0719 C   0  0  0  0  0  0  0  0  0  0  0  0
    1.0459   -0.5276   -0.4733 N   0  0  0  0  0  0  0  0  0  0  0  0
   -0.0926   -0.7314    0.3450 C   0  0  0  0  0  0  0  0  0  0  0  0
   -0.0490   -0.7807    1.7412 C   0  0  0  0  0  0  0  0  0  0  0  0
   -1.2087   -1.0180    2.4867 C   0  0  0  0  0  0  0  0  0  0  0  0
   -2.4281   -1.2061    1.8439 C   0  0  0  0  0  0  0  0  0  0  0  0
   -2.4897   -1.1459    0.4543 C   0  0  0  0  0  0  0  0  0  0  0  0
   -1.3301   -0.9010   -0.2908 C   0  0  0  0  0  0  0  0  0  0  0  0
    3.2378   -0.4060   -1.1436 N   0  0  0  0  0  0  0  0  0  0  0  0
    4.6471   -0.5549   -1.1418 C   0  0  0  0  0  0  0  0  0  0  0  0
    5.3861   -0.9776   -0.0332 C   0  0  0  0  0  0  0  0  0  0  0  0
    6.7810   -1.1069   -0.0996 C   0  0  0  0  0  0  0  0  0  0  0  0
    7.4624   -0.8215   -1.2812 C   0  0  0  0  0  0  0  0  0  0  0  0
    8.8936   -0.9117   -1.3221 C   0  0  0  0  0  0  0  0  0  0  0  0
   10.0991   -0.9230   -1.3125 C   0  0  0  0  0  0  0  0  0  0  0  0
   11.5388   -0.8191   -1.2697 C   0  0  0  0  0  0  0  0  0  0  0  0
   12.2011    0.5080   -1.2388 C   0  0  0  0  0  0  0  0  0  0  0  0
   13.5389    0.5202   -1.2013 C   0  0  0  0  0  0  0  0  0  0  0  0
   14.2371   -0.7079   -1.1910 C   0  0  0  0  0  0  0  0  0  0  0  0
   15.5274   -0.9678   -1.1604 N   0  0  0  0  0  0  0  0  0  0  0  0
   15.6153   -2.3369   -1.1621 C   0  0  0  0  0  0  0  0  0  0  0  0
   14.3660   -2.9130   -1.1939 C   0  0  0  0  0  0  0  0  0  0  0  0
   13.4792   -1.8707   -1.2170 N   0  0  0  0  0  0  0  0  0  0  0  0
   12.1151   -1.9787   -1.2597 N   0  0  0  0  0  0  0  0  0  0  0  0
    6.7354   -0.4117   -2.4001 C   0  0  0  0  0  0  0  0  0  0  0  0
    5.3384   -0.2776   -2.3296 C   0  0  0  0  0  0  0  0  0  0  0  0
    0.8711   -0.4799   -1.4643 H   0  0  0  0  0  0  0  0  0  0  0  0
    0.8757   -0.6314    2.2894 H   0  0  0  0  0  0  0  0  0  0  0  0
   -1.1503   -1.0588    3.5716 H   0  0  0  0  0  0  0  0  0  0  0  0
   -3.3253   -1.3992    2.4262 H   0  0  0  0  0  0  0  0  0  0  0  0
   -3.4405   -1.2978   -0.0503 H   0  0  0  0  0  0  0  0  0  0  0  0
   -1.4107   -0.8708   -1.3737 H   0  0  0  0  0  0  0  0  0  0  0  0
    2.8272   -0.0645   -1.9981 H   0  0  0  0  0  0  0  0  0  0  0  0
    4.9124   -1.2161    0.9136 H   0  0  0  0  0  0  0  0  0  0  0  0
    7.3215   -1.4305    0.7876 H   0  0  0  0  0  0  0  0  0  0  0  0
   11.5970    1.4043   -1.2458 H   0  0  0  0  0  0  0  0  0  0  0  0
   14.1055    1.4428   -1.1772 H   0  0  0  0  0  0  0  0  0  0  0  0
   16.5764   -2.8351   -1.1395 H   0  0  0  0  0  0  0  0  0  0  0  0
   14.0351   -3.9396   -1.2027 H   0  0  0  0  0  0  0  0  0  0  0  0
    7.2464   -0.1886   -3.3340 H   0  0  0  0  0  0  0  0  0  0  0  0
    4.8053    0.0451   -3.2203 H   0  0  0  0  0  0  0  0  0  0  0  0
  1  2  2  0  0  0  0
  2  3  1  0  0  0  0
  2 10  1  0  0  0  0
  3  4  1  0  0  0  0
  3 28  1  0  0  0  0
  4  5  1  0  0  0  0
  4  9  2  0  0  0  0
  5  6  2  0  0  0  0
  5 29  1  0  0  0  0
  6  7  1  0  0  0  0
  6 30  1  0  0  0  0
  7  8  2  0  0  0  0
  7 31  1  0  0  0  0
  8  9  1  0  0  0  0
  8 32  1  0  0  0  0
  9 33  1  0  0  0  0
 10 11  1  0  0  0  0
 10 34  1  0  0  0  0
 11 12  1  0  0  0  0
 11 27  2  0  0  0  0
 12 13  2  0  0  0  0
 12 35  1  0  0  0  0
 13 14  1  0  0  0  0
 13 36  1  0  0  0  0
 14 15  1  0  0  0  0
 14 26  2  0  0  0  0
 15 16  3  0  0  0  0
 16 17  1  0  0  0  0
 17 18  1  0  0  0  0
 17 25  2  0  0  0  0
 18 19  2  0  0  0  0
 18 37  1  0  0  0  0
 19 20  1  0  0  0  0
 19 38  1  0  0  0  0
 20 21  2  0  0  0  0
 20 24  1  0  0  0  0
 21 22  1  0  0  0  0
 22 23  2  0  0  0  0
 22 39  1  0  0  0  0
 23 24  1  0  0  0  0
 23 40  1  0  0  0  0
 24 25  1  0  0  0  0
 26 27  1  0  0  0  0
 26 41  1  0  0  0  0
 27 42  1  0  0  0  0
M  END
$$$$
