CHEMBL187396
 OpenBabel04072215363D

 79 82  0  0  0  0  0  0  0  0999 V2000
    1.3008    5.1467    0.3277 C   0  0  0  0  0  0  0  0  0  0  0  0
    2.6774    4.8228    0.1775 O   0  0  0  0  0  0  0  0  0  0  0  0
    2.9676    3.7192   -0.5722 C   0  0  0  0  0  0  0  0  0  0  0  0
    2.0355    2.8224   -1.1002 C   0  0  0  0  0  0  0  0  0  0  0  0
    2.4678    1.7478   -1.8684 C   0  0  0  0  0  0  0  0  0  0  0  0
    1.6466    0.8567   -2.5042 O   0  0  0  0  0  0  0  0  0  0  0  0
    0.3743    1.3695   -2.8920 C   0  0  0  0  0  0  0  0  0  0  0  0
    3.8378    1.5293   -2.0447 C   0  0  0  0  0  0  0  0  0  0  0  0
    4.8079    2.4315   -1.5608 C   0  0  0  0  0  0  0  0  0  0  0  0
    6.2361    2.2916   -1.9501 C   0  0  0  0  0  0  0  0  0  0  0  0
    6.5208    1.8187   -3.2473 C   0  0  0  0  0  0  0  0  0  0  0  0
    7.8325    1.7372   -3.7282 C   0  0  0  0  0  0  0  0  0  0  0  0
    8.1328    1.2652   -5.0026 C   0  0  0  0  0  0  0  0  0  0  0  0
    9.3788    1.2133   -5.5107 N   0  0  0  0  0  0  0  0  0  0  0  0
   10.3890    1.6172   -4.7228 C   0  0  0  0  0  0  0  0  0  0  0  0
   11.7006    1.6463   -5.2196 N   0  0  0  0  0  0  0  0  0  0  0  0
   11.8549    1.2952   -6.6323 C   0  0  0  0  0  0  0  0  0  0  0  0
   13.3190    0.9749   -6.9478 C   0  0  0  0  0  0  0  0  0  0  0  0
   13.7193   -0.4068   -6.4166 C   0  0  0  0  0  0  0  0  0  0  0  0
   15.1987   -0.7006   -6.6852 C   0  0  0  0  0  0  0  0  0  0  0  0
   15.6476   -1.9996   -6.1517 N   0  0  0  0  0  0  0  0  0  0  0  0
   15.5132   -2.1256   -4.6818 C   0  0  0  0  0  0  0  0  0  0  0  0
   16.4739   -1.2179   -3.8973 C   0  0  0  0  0  0  0  0  0  0  0  0
   17.8387   -1.4712   -4.2559 O   0  0  0  0  0  0  0  0  0  0  0  0
   18.0402   -1.3314   -5.6686 C   0  0  0  0  0  0  0  0  0  0  0  0
   17.0789   -2.2286   -6.4722 C   0  0  0  0  0  0  0  0  0  0  0  0
   10.1613    2.0785   -3.4241 C   0  0  0  0  0  0  0  0  0  0  0  0
    8.8723    2.1693   -2.9110 C   0  0  0  0  0  0  0  0  0  0  0  0
    8.6350    2.6771   -1.6785 N   0  0  0  0  0  0  0  0  0  0  0  0
    7.3582    2.6885   -1.2006 C   0  0  0  0  0  0  0  0  0  0  0  0
    7.2401    3.2237    0.1070 N   0  0  0  0  0  0  0  0  0  0  0  0
    7.1664    2.3369    1.1677 C   0  0  0  0  0  0  0  0  0  0  0  0
    7.1914    1.1169    1.0499 O   0  0  0  0  0  0  0  0  0  0  0  0
    7.1352    2.9976    2.3822 N   0  0  0  0  0  0  0  0  0  0  0  0
    7.2384    2.3164    3.6919 C   0  0  0  0  0  0  0  0  0  0  0  0
    8.6391    1.6987    3.8554 C   0  0  0  0  0  0  0  0  0  0  0  0
    7.0501    3.3451    4.8273 C   0  0  0  0  0  0  0  0  0  0  0  0
    6.1632    1.2307    3.8688 C   0  0  0  0  0  0  0  0  0  0  0  0
    4.3326    3.5253   -0.8212 C   0  0  0  0  0  0  0  0  0  0  0  0
    1.2356    6.0786    0.8942 H   0  0  0  0  0  0  0  0  0  0  0  0
    0.7754    4.3713    0.8950 H   0  0  0  0  0  0  0  0  0  0  0  0
    0.8280    5.3134   -0.6466 H   0  0  0  0  0  0  0  0  0  0  0  0
    0.9760    2.9529   -0.9192 H   0  0  0  0  0  0  0  0  0  0  0  0
   -0.0034    0.7513   -3.7135 H   0  0  0  0  0  0  0  0  0  0  0  0
    0.4340    2.4004   -3.2630 H   0  0  0  0  0  0  0  0  0  0  0  0
   -0.3311    1.2975   -2.0593 H   0  0  0  0  0  0  0  0  0  0  0  0
    4.1344    0.6536   -2.6190 H   0  0  0  0  0  0  0  0  0  0  0  0
    5.7132    1.5471   -3.9215 H   0  0  0  0  0  0  0  0  0  0  0  0
    7.3551    0.9166   -5.6777 H   0  0  0  0  0  0  0  0  0  0  0  0
   12.3163    1.1450   -4.5890 H   0  0  0  0  0  0  0  0  0  0  0  0
   11.5516    2.1609   -7.2337 H   0  0  0  0  0  0  0  0  0  0  0  0
   11.2349    0.4414   -6.9322 H   0  0  0  0  0  0  0  0  0  0  0  0
   13.9720    1.7450   -6.5184 H   0  0  0  0  0  0  0  0  0  0  0  0
   13.4646    0.9950   -8.0346 H   0  0  0  0  0  0  0  0  0  0  0  0
   13.0975   -1.1807   -6.8829 H   0  0  0  0  0  0  0  0  0  0  0  0
   13.5179   -0.4314   -5.3431 H   0  0  0  0  0  0  0  0  0  0  0  0
   15.7985    0.1290   -6.2962 H   0  0  0  0  0  0  0  0  0  0  0  0
   15.3449   -0.7069   -7.7736 H   0  0  0  0  0  0  0  0  0  0  0  0
   15.7343   -3.1696   -4.4220 H   0  0  0  0  0  0  0  0  0  0  0  0
   14.4818   -1.9669   -4.3542 H   0  0  0  0  0  0  0  0  0  0  0  0
   16.3739   -1.4193   -2.8260 H   0  0  0  0  0  0  0  0  0  0  0  0
   16.2480   -0.1565   -4.0511 H   0  0  0  0  0  0  0  0  0  0  0  0
   19.0747   -1.6182   -5.8817 H   0  0  0  0  0  0  0  0  0  0  0  0
   17.9366   -0.2756   -5.9426 H   0  0  0  0  0  0  0  0  0  0  0  0
   17.3060   -3.2770   -6.2365 H   0  0  0  0  0  0  0  0  0  0  0  0
   17.2564   -2.1133   -7.5476 H   0  0  0  0  0  0  0  0  0  0  0  0
   10.9941    2.4072   -2.8133 H   0  0  0  0  0  0  0  0  0  0  0  0
    8.0151    3.8477    0.2906 H   0  0  0  0  0  0  0  0  0  0  0  0
    6.6213    3.8669    2.3534 H   0  0  0  0  0  0  0  0  0  0  0  0
    9.4161    2.4698    3.7881 H   0  0  0  0  0  0  0  0  0  0  0  0
    8.8511    0.9546    3.0817 H   0  0  0  0  0  0  0  0  0  0  0  0
    8.7445    1.2045    4.8281 H   0  0  0  0  0  0  0  0  0  0  0  0
    7.8077    4.1345    4.7896 H   0  0  0  0  0  0  0  0  0  0  0  0
    7.1253    2.8621    5.8116 H   0  0  0  0  0  0  0  0  0  0  0  0
    6.0667    3.8250    4.7728 H   0  0  0  0  0  0  0  0  0  0  0  0
    6.2923    0.4011    3.1682 H   0  0  0  0  0  0  0  0  0  0  0  0
    5.1599    1.6426    3.7153 H   0  0  0  0  0  0  0  0  0  0  0  0
    6.2008    0.8004    4.8762 H   0  0  0  0  0  0  0  0  0  0  0  0
    5.0194    4.2818   -0.4500 H   0  0  0  0  0  0  0  0  0  0  0  0
  1  2  1  0  0  0  0
  1 40  1  0  0  0  0
  1 41  1  0  0  0  0
  1 42  1  0  0  0  0
  2  3  1  0  0  0  0
  3  4  1  0  0  0  0
  3 39  2  0  0  0  0
  4  5  2  0  0  0  0
  4 43  1  0  0  0  0
  5  6  1  0  0  0  0
  5  8  1  0  0  0  0
  6  7  1  0  0  0  0
  7 44  1  0  0  0  0
  7 45  1  0  0  0  0
  7 46  1  0  0  0  0
  8  9  2  0  0  0  0
  8 47  1  0  0  0  0
  9 10  1  0  0  0  0
  9 39  1  0  0  0  0
 10 11  1  0  0  0  0
 10 30  2  0  0  0  0
 11 12  2  0  0  0  0
 11 48  1  0  0  0  0
 12 13  1  0  0  0  0
 12 28  1  0  0  0  0
 13 14  2  0  0  0  0
 13 49  1  0  0  0  0
 14 15  1  0  0  0  0
 15 16  1  0  0  0  0
 15 27  2  0  0  0  0
 16 17  1  0  0  0  0
 16 50  1  0  0  0  0
 17 18  1  0  0  0  0
 17 51  1  0  0  0  0
 17 52  1  0  0  0  0
 18 19  1  0  0  0  0
 18 53  1  0  0  0  0
 18 54  1  0  0  0  0
 19 20  1  0  0  0  0
 19 55  1  0  0  0  0
 19 56  1  0  0  0  0
 20 21  1  0  0  0  0
 20 57  1  0  0  0  0
 20 58  1  0  0  0  0
 21 22  1  0  0  0  0
 21 26  1  0  0  0  0
 22 23  1  0  0  0  0
 22 59  1  0  0  0  0
 22 60  1  0  0  0  0
 23 24  1  0  0  0  0
 23 61  1  0  0  0  0
 23 62  1  0  0  0  0
 24 25  1  0  0  0  0
 25 26  1  0  0  0  0
 25 63  1  0  0  0  0
 25 64  1  0  0  0  0
 26 65  1  0  0  0  0
 26 66  1  0  0  0  0
 27 28  1  0  0  0  0
 27 67  1  0  0  0  0
 28 29  2  0  0  0  0
 29 30  1  0  0  0  0
 30 31  1  0  0  0  0
 31 32  1  0  0  0  0
 31 68  1  0  0  0  0
 32 33  2  0  0  0  0
 32 34  1  0  0  0  0
 34 35  1  0  0  0  0
 34 69  1  0  0  0  0
 35 36  1  0  0  0  0
 35 37  1  0  0  0  0
 35 38  1  0  0  0  0
 36 70  1  0  0  0  0
 36 71  1  0  0  0  0
 36 72  1  0  0  0  0
 37 73  1  0  0  0  0
 37 74  1  0  0  0  0
 37 75  1  0  0  0  0
 38 76  1  0  0  0  0
 38 77  1  0  0  0  0
 38 78  1  0  0  0  0
 39 79  1  0  0  0  0
M  END
$$$$
