CHEMBL3676388
 OpenBabel04072215373D

 58 60  0  0  0  0  0  0  0  0999 V2000
    1.6675   -0.9137    1.2931 C   0  0  0  0  0  0  0  0  0  0  0  0
    2.7371   -0.5313    0.5838 C   0  0  0  0  0  0  0  0  0  0  0  0
    3.3788   -1.4799   -0.3644 C   0  0  0  0  0  0  0  0  0  0  0  0
    2.9851   -2.6314   -0.4999 O   0  0  0  0  0  0  0  0  0  0  0  0
    4.4642   -0.9184   -1.0152 N   0  0  0  0  0  0  0  0  0  0  0  0
    5.2030   -1.7362   -1.8934 C   0  0  0  0  0  0  0  0  0  0  0  0
    6.2473   -2.4732   -1.3449 C   0  0  0  0  0  0  0  0  0  0  0  0
    6.8985   -3.4608   -2.1109 C   0  0  0  0  0  0  0  0  0  0  0  0
    7.8814   -4.3189   -1.6037 C   0  0  0  0  0  0  0  0  0  0  0  0
    8.1854   -4.2759   -0.2082 N   0  0  0  0  0  0  0  0  0  0  0  0
    9.3247   -4.8830    0.3681 C   0  0  0  0  0  0  0  0  0  0  0  0
   10.5698   -4.6336   -0.2498 C   0  0  0  0  0  0  0  0  0  0  0  0
   11.7615   -5.2764    0.1128 C   0  0  0  0  0  0  0  0  0  0  0  0
   12.7886   -4.8922   -0.7000 O   0  0  0  0  0  0  0  0  0  0  0  0
   14.0403   -5.5489   -0.6510 C   0  0  0  0  0  0  0  0  0  0  0  0
   11.7145   -6.1668    1.1828 C   0  0  0  0  0  0  0  0  0  0  0  0
   13.0573   -7.0694    1.7878 Cl  0  0  0  0  0  0  0  0  0  0  0  0
   10.4974   -6.3784    1.8544 C   0  0  0  0  0  0  0  0  0  0  0  0
    9.3032   -5.7448    1.4710 C   0  0  0  0  0  0  0  0  0  0  0  0
    8.2284   -6.1884    2.1930 O   0  0  0  0  0  0  0  0  0  0  0  0
    7.1635   -5.3026    2.4964 C   0  0  0  0  0  0  0  0  0  0  0  0
    8.5044   -5.2228   -2.3790 N   0  0  0  0  0  0  0  0  0  0  0  0
    8.1202   -5.2856   -3.6551 C   0  0  0  0  0  0  0  0  0  0  0  0
    7.1707   -4.5444   -4.2342 N   0  0  0  0  0  0  0  0  0  0  0  0
    6.5604   -3.6438   -3.4577 C   0  0  0  0  0  0  0  0  0  0  0  0
    5.5644   -2.8452   -4.0053 C   0  0  0  0  0  0  0  0  0  0  0  0
    4.8796   -1.8814   -3.2503 C   0  0  0  0  0  0  0  0  0  0  0  0
    3.9547   -1.1521   -3.9632 O   0  0  0  0  0  0  0  0  0  0  0  0
    3.7766    0.1943   -3.5171 C   0  0  0  0  0  0  0  0  0  0  0  0
    3.4583    1.1344   -4.6835 C   0  0  0  0  0  0  0  0  0  0  0  0
    3.2941    2.5164   -4.2447 N   0  0  0  0  0  0  0  0  0  0  0  0
    4.3294    3.2261   -3.6777 C   0  0  0  0  0  0  0  0  0  0  0  0
    3.9673    4.6095   -3.2121 C   0  0  0  0  0  0  0  0  0  0  0  0
    5.4591    2.7746   -3.5178 O   0  0  0  0  0  0  0  0  0  0  0  0
    1.1600   -0.2234    1.9575 H   0  0  0  0  0  0  0  0  0  0  0  0
    1.2637   -1.9206    1.2126 H   0  0  0  0  0  0  0  0  0  0  0  0
    3.1190    0.4790    0.6519 H   0  0  0  0  0  0  0  0  0  0  0  0
    5.0024   -0.2799   -0.4416 H   0  0  0  0  0  0  0  0  0  0  0  0
    6.5194   -2.3196   -0.3048 H   0  0  0  0  0  0  0  0  0  0  0  0
    7.3316   -4.4982    0.2793 H   0  0  0  0  0  0  0  0  0  0  0  0
   10.6031   -3.9439   -1.0941 H   0  0  0  0  0  0  0  0  0  0  0  0
   14.6385   -5.1735   -1.4880 H   0  0  0  0  0  0  0  0  0  0  0  0
   13.9421   -6.6290   -0.7915 H   0  0  0  0  0  0  0  0  0  0  0  0
   14.5741   -5.2899    0.2669 H   0  0  0  0  0  0  0  0  0  0  0  0
   10.4658   -7.0744    2.6917 H   0  0  0  0  0  0  0  0  0  0  0  0
    6.6727   -5.6726    3.4033 H   0  0  0  0  0  0  0  0  0  0  0  0
    6.4057   -5.3391    1.7094 H   0  0  0  0  0  0  0  0  0  0  0  0
    7.5015   -4.2801    2.6890 H   0  0  0  0  0  0  0  0  0  0  0  0
    8.6181   -6.0230   -4.2777 H   0  0  0  0  0  0  0  0  0  0  0  0
    5.3050   -2.9764   -5.0540 H   0  0  0  0  0  0  0  0  0  0  0  0
    4.6809    0.5636   -3.0266 H   0  0  0  0  0  0  0  0  0  0  0  0
    2.9434    0.2229   -2.8064 H   0  0  0  0  0  0  0  0  0  0  0  0
    2.5284    0.8278   -5.1747 H   0  0  0  0  0  0  0  0  0  0  0  0
    4.2531    1.0984   -5.4367 H   0  0  0  0  0  0  0  0  0  0  0  0
    2.4319    2.9942   -4.4745 H   0  0  0  0  0  0  0  0  0  0  0  0
    2.8989    4.8106   -3.3215 H   0  0  0  0  0  0  0  0  0  0  0  0
    4.5331    5.3423   -3.7921 H   0  0  0  0  0  0  0  0  0  0  0  0
    4.2263    4.7007   -2.1521 H   0  0  0  0  0  0  0  0  0  0  0  0
  1  2  2  0  0  0  0
  1 35  1  0  0  0  0
  1 36  1  0  0  0  0
  2  3  1  0  0  0  0
  2 37  1  0  0  0  0
  3  4  2  0  0  0  0
  3  5  1  0  0  0  0
  5  6  1  0  0  0  0
  5 38  1  0  0  0  0
  6  7  1  0  0  0  0
  6 27  2  0  0  0  0
  7  8  2  0  0  0  0
  7 39  1  0  0  0  0
  8  9  1  0  0  0  0
  8 25  1  0  0  0  0
  9 10  1  0  0  0  0
  9 22  2  0  0  0  0
 10 11  1  0  0  0  0
 10 40  1  0  0  0  0
 11 12  1  0  0  0  0
 11 19  2  0  0  0  0
 12 13  2  0  0  0  0
 12 41  1  0  0  0  0
 13 14  1  0  0  0  0
 13 16  1  0  0  0  0
 14 15  1  0  0  0  0
 15 42  1  0  0  0  0
 15 43  1  0  0  0  0
 15 44  1  0  0  0  0
 16 17  1  0  0  0  0
 16 18  2  0  0  0  0
 18 19  1  0  0  0  0
 18 45  1  0  0  0  0
 19 20  1  0  0  0  0
 20 21  1  0  0  0  0
 21 46  1  0  0  0  0
 21 47  1  0  0  0  0
 21 48  1  0  0  0  0
 22 23  1  0  0  0  0
 23 24  2  0  0  0  0
 23 49  1  0  0  0  0
 24 25  1  0  0  0  0
 25 26  2  0  0  0  0
 26 27  1  0  0  0  0
 26 50  1  0  0  0  0
 27 28  1  0  0  0  0
 28 29  1  0  0  0  0
 29 30  1  0  0  0  0
 29 51  1  0  0  0  0
 29 52  1  0  0  0  0
 30 31  1  0  0  0  0
 30 53  1  0  0  0  0
 30 54  1  0  0  0  0
 31 32  1  0  0  0  0
 31 55  1  0  0  0  0
 32 33  1  0  0  0  0
 32 34  2  0  0  0  0
 33 56  1  0  0  0  0
 33 57  1  0  0  0  0
 33 58  1  0  0  0  0
M  END
$$$$
