CHEMBL2071212
 OpenBabel04072215363D

 43 46  0  0  1  0  0  0  0  0999 V2000
    3.6593   -9.8573   -5.3613 C   0  0  0  0  0  0  0  0  0  0  0  0
    3.4513   -8.8739   -4.3296 N   0  0  0  0  0  0  0  0  0  0  0  0
    2.5323   -7.8614   -4.3283 C   0  0  0  0  0  0  0  0  0  0  0  0
    2.7517   -7.1728   -3.1624 C   0  0  0  0  0  0  0  0  0  0  0  0
    2.0914   -6.0623   -2.7784 N   0  0  0  0  0  0  0  0  0  0  0  0
    2.2893   -5.2936   -1.6307 C   0  0  0  0  0  0  0  0  0  0  0  0
    1.9272   -4.0062   -1.7311 N   0  0  0  0  0  0  0  0  0  0  0  0
    2.2024   -3.2247   -0.6689 C   0  0  0  0  0  0  0  0  0  0  0  0
    2.7764   -3.6871    0.4903 C   0  0  0  0  0  0  0  0  0  0  0  0
    3.1089   -2.6047    1.7851 Cl  0  0  0  0  0  0  0  0  0  0  0  0
    3.0531   -5.0469    0.5424 C   0  0  0  0  0  0  0  0  0  0  0  0
    3.4608   -5.6155    1.7439 N   0  0  0  0  0  0  0  0  0  0  0  0
    3.6944   -7.0476    1.9097 C   0  0  2  0  0  0  0  0  0  0  0  0
    2.3567   -7.8294    1.8728 C   0  0  1  0  0  0  0  0  0  0  0  0
    2.5953   -9.3400    1.8182 C   0  0  0  0  0  0  0  0  0  0  0  0
    3.0483   -9.6469    3.2462 C   0  0  0  0  0  0  0  0  0  0  0  0
    3.0386   -8.2569    3.8856 C   0  0  2  0  0  0  0  0  0  0  0  0
    1.8843   -7.6831    3.2395 O   0  0  0  0  0  0  0  0  0  0  0  0
    4.2012   -7.4134    3.3386 C   0  0  2  0  0  0  0  0  0  0  0  0
    4.5889   -6.2582    4.2563 C   0  0  0  0  0  0  0  0  0  0  0  0
    4.8411   -6.5574    5.5628 N   0  0  0  0  0  0  0  0  0  0  0  0
    4.8311   -5.1163    3.8696 O   0  0  0  0  0  0  0  0  0  0  0  0
    2.8281   -5.8407   -0.5228 N   0  0  0  0  0  0  0  0  0  0  0  0
    3.8240   -7.8378   -2.5375 C   0  0  0  0  0  0  0  0  0  0  0  0
    4.2520   -8.8842   -3.2475 N   0  0  0  0  0  0  0  0  0  0  0  0
    2.9278   -9.7135   -6.1604 H   0  0  0  0  0  0  0  0  0  0  0  0
    3.5394  -10.8486   -4.9166 H   0  0  0  0  0  0  0  0  0  0  0  0
    4.6721   -9.7369   -5.7576 H   0  0  0  0  0  0  0  0  0  0  0  0
    1.8297   -7.7285   -5.1361 H   0  0  0  0  0  0  0  0  0  0  0  0
    1.5412   -5.5206   -3.4352 H   0  0  0  0  0  0  0  0  0  0  0  0
    1.9358   -2.1782   -0.7835 H   0  0  0  0  0  0  0  0  0  0  0  0
    4.1203   -5.0156    2.2527 H   0  0  0  0  0  0  0  0  0  0  0  0
    4.3982   -7.4088    1.1492 H   0  0  0  0  0  0  0  0  0  0  0  0
    1.6126   -7.4776    1.1557 H   0  0  0  0  0  0  0  0  0  0  0  0
    3.3251   -9.6362    1.0595 H   0  0  0  0  0  0  0  0  0  0  0  0
    1.6560   -9.8684    1.6163 H   0  0  0  0  0  0  0  0  0  0  0  0
    4.0227  -10.1412    3.2941 H   0  0  0  0  0  0  0  0  0  0  0  0
    2.3101  -10.2964    3.7301 H   0  0  0  0  0  0  0  0  0  0  0  0
    2.9105   -8.2780    4.9693 H   0  0  0  0  0  0  0  0  0  0  0  0
    5.1061   -8.0323    3.2655 H   0  0  0  0  0  0  0  0  0  0  0  0
    5.0792   -5.7733    6.1575 H   0  0  0  0  0  0  0  0  0  0  0  0
    4.5944   -7.4281    6.0114 H   0  0  0  0  0  0  0  0  0  0  0  0
    4.3244   -7.5934   -1.6099 H   0  0  0  0  0  0  0  0  0  0  0  0
  1  2  1  0  0  0  0
  1 26  1  0  0  0  0
  1 27  1  0  0  0  0
  1 28  1  0  0  0  0
  2  3  1  0  0  0  0
  2 25  1  0  0  0  0
  3  4  2  0  0  0  0
  3 29  1  0  0  0  0
  4  5  1  0  0  0  0
  4 24  1  0  0  0  0
  5  6  1  0  0  0  0
  5 30  1  0  0  0  0
  6  7  1  0  0  0  0
  6 23  2  0  0  0  0
  7  8  2  0  0  0  0
  8  9  1  0  0  0  0
  8 31  1  0  0  0  0
  9 10  1  0  0  0  0
  9 11  2  0  0  0  0
 11 12  1  0  0  0  0
 11 23  1  0  0  0  0
 12 13  1  0  0  0  0
 12 32  1  0  0  0  0
 13 14  1  0  0  0  0
 13 19  1  0  0  0  0
 13 33  1  6  0  0  0
 14 15  1  0  0  0  0
 14 18  1  0  0  0  0
 14 34  1  6  0  0  0
 15 16  1  0  0  0  0
 15 35  1  0  0  0  0
 15 36  1  0  0  0  0
 16 17  1  0  0  0  0
 16 37  1  0  0  0  0
 16 38  1  0  0  0  0
 17 18  1  0  0  0  0
 17 19  1  0  0  0  0
 17 39  1  1  0  0  0
 19 20  1  0  0  0  0
 19 40  1  6  0  0  0
 20 21  1  0  0  0  0
 20 22  2  0  0  0  0
 21 41  1  0  0  0  0
 21 42  1  0  0  0  0
 24 25  2  0  0  0  0
 24 43  1  0  0  0  0
M  END
$$$$
