CHEMBL466943
 OpenBabel04072215383D

 50 54  0  0  0  0  0  0  0  0999 V2000
   -2.2931   -0.9433    2.6456 C   0  0  0  0  0  0  0  0  0  0  0  0
   -1.4269    0.1107    2.1735 N   0  0  0  0  0  0  0  0  0  0  0  0
   -1.9021    0.9940    1.2804 N   0  0  0  0  0  0  0  0  0  0  0  0
   -0.8831    1.8514    1.0816 C   0  0  0  0  0  0  0  0  0  0  0  0
   -1.0076    3.0213    0.2024 C   0  0  0  0  0  0  0  0  0  0  0  0
   -0.0460    3.4563   -0.4381 O   0  0  0  0  0  0  0  0  0  0  0  0
   -2.3144    3.7601    0.1366 C   0  0  0  0  0  0  0  0  0  0  0  0
   -3.1771    3.7357    1.2528 C   0  0  0  0  0  0  0  0  0  0  0  0
   -4.3486    4.4866    1.2730 C   0  0  0  0  0  0  0  0  0  0  0  0
   -4.6594    5.2951    0.1907 C   0  0  0  0  0  0  0  0  0  0  0  0
   -3.8195    5.3231   -0.9269 C   0  0  0  0  0  0  0  0  0  0  0  0
   -2.6287    4.5732   -0.9839 C   0  0  0  0  0  0  0  0  0  0  0  0
   -1.8834    4.5007   -2.1803 N   0  0  0  0  0  0  0  0  0  0  0  0
   -1.7208    5.6959   -3.0028 C   0  0  0  0  0  0  0  0  0  0  0  0
   -2.1092    5.4716   -4.4512 C   0  0  0  0  0  0  0  0  0  0  0  0
   -1.5251    6.2902   -5.4258 C   0  0  0  0  0  0  0  0  0  0  0  0
   -1.9213    6.2093   -6.7638 C   0  0  0  0  0  0  0  0  0  0  0  0
   -2.8898    5.3155   -7.1838 C   0  0  0  0  0  0  0  0  0  0  0  0
   -3.2358    5.3038   -8.4836 N   0  0  0  0  0  0  0  0  0  0  0  0
   -4.1604    4.4067   -8.8833 C   0  0  0  0  0  0  0  0  0  0  0  0
   -4.7606    3.4946   -8.0376 C   0  0  0  0  0  0  0  0  0  0  0  0
   -4.4137    3.5256   -6.6886 C   0  0  0  0  0  0  0  0  0  0  0  0
   -3.4673    4.4560   -6.2267 C   0  0  0  0  0  0  0  0  0  0  0  0
   -3.0886    4.5547   -4.8655 C   0  0  0  0  0  0  0  0  0  0  0  0
    0.2640    1.4660    1.8423 C   0  0  0  0  0  0  0  0  0  0  0  0
    1.5687    1.9645    2.0297 C   0  0  0  0  0  0  0  0  0  0  0  0
    2.4211    1.3222    2.9366 C   0  0  0  0  0  0  0  0  0  0  0  0
    1.9910    0.2047    3.6499 C   0  0  0  0  0  0  0  0  0  0  0  0
    0.7028   -0.3088    3.4788 C   0  0  0  0  0  0  0  0  0  0  0  0
   -0.1362    0.3445    2.5655 C   0  0  0  0  0  0  0  0  0  0  0  0
   -3.2795   -0.8384    2.1849 H   0  0  0  0  0  0  0  0  0  0  0  0
   -2.3834   -0.8539    3.7307 H   0  0  0  0  0  0  0  0  0  0  0  0
   -1.8538   -1.9044    2.3687 H   0  0  0  0  0  0  0  0  0  0  0  0
   -2.9514    3.1311    2.1276 H   0  0  0  0  0  0  0  0  0  0  0  0
   -5.0131    4.4357    2.1315 H   0  0  0  0  0  0  0  0  0  0  0  0
   -5.5679    5.8917    0.2009 H   0  0  0  0  0  0  0  0  0  0  0  0
   -4.1331    5.9320   -1.7705 H   0  0  0  0  0  0  0  0  0  0  0  0
   -0.9646    4.0782   -1.9961 H   0  0  0  0  0  0  0  0  0  0  0  0
   -0.6585    5.9708   -2.9659 H   0  0  0  0  0  0  0  0  0  0  0  0
   -2.2685    6.5680   -2.6290 H   0  0  0  0  0  0  0  0  0  0  0  0
   -0.7579    7.0113   -5.1523 H   0  0  0  0  0  0  0  0  0  0  0  0
   -1.4621    6.8654   -7.4985 H   0  0  0  0  0  0  0  0  0  0  0  0
   -4.4076    4.4425   -9.9409 H   0  0  0  0  0  0  0  0  0  0  0  0
   -5.4787    2.7782   -8.4203 H   0  0  0  0  0  0  0  0  0  0  0  0
   -4.8747    2.8168   -6.0055 H   0  0  0  0  0  0  0  0  0  0  0  0
   -3.5650    3.9121   -4.1259 H   0  0  0  0  0  0  0  0  0  0  0  0
    1.9106    2.8407    1.4840 H   0  0  0  0  0  0  0  0  0  0  0  0
    3.4275    1.7043    3.0897 H   0  0  0  0  0  0  0  0  0  0  0  0
    2.6694   -0.2748    4.3523 H   0  0  0  0  0  0  0  0  0  0  0  0
    0.3720   -1.1764    4.0401 H   0  0  0  0  0  0  0  0  0  0  0  0
  1  2  1  0  0  0  0
  1 31  1  0  0  0  0
  1 32  1  0  0  0  0
  1 33  1  0  0  0  0
  2  3  1  0  0  0  0
  2 30  1  0  0  0  0
  3  4  2  0  0  0  0
  4  5  1  0  0  0  0
  4 25  1  0  0  0  0
  5  6  2  0  0  0  0
  5  7  1  0  0  0  0
  7  8  1  0  0  0  0
  7 12  2  0  0  0  0
  8  9  2  0  0  0  0
  8 34  1  0  0  0  0
  9 10  1  0  0  0  0
  9 35  1  0  0  0  0
 10 11  2  0  0  0  0
 10 36  1  0  0  0  0
 11 12  1  0  0  0  0
 11 37  1  0  0  0  0
 12 13  1  0  0  0  0
 13 14  1  0  0  0  0
 13 38  1  0  0  0  0
 14 15  1  0  0  0  0
 14 39  1  0  0  0  0
 14 40  1  0  0  0  0
 15 16  1  0  0  0  0
 15 24  2  0  0  0  0
 16 17  2  0  0  0  0
 16 41  1  0  0  0  0
 17 18  1  0  0  0  0
 17 42  1  0  0  0  0
 18 19  1  0  0  0  0
 18 23  2  0  0  0  0
 19 20  2  0  0  0  0
 20 21  1  0  0  0  0
 20 43  1  0  0  0  0
 21 22  2  0  0  0  0
 21 44  1  0  0  0  0
 22 23  1  0  0  0  0
 22 45  1  0  0  0  0
 23 24  1  0  0  0  0
 24 46  1  0  0  0  0
 25 26  1  0  0  0  0
 25 30  2  0  0  0  0
 26 27  2  0  0  0  0
 26 47  1  0  0  0  0
 27 28  1  0  0  0  0
 27 48  1  0  0  0  0
 28 29  2  0  0  0  0
 28 49  1  0  0  0  0
 29 30  1  0  0  0  0
 29 50  1  0  0  0  0
M  END
$$$$
