CHEMBL101544
 OpenBabel04072215353D

 20 21  0  0  0  0  0  0  0  0999 V2000
    2.7893    3.0069    1.1855 N   0  0  0  0  0  0  0  0  0  0  0  0
    3.4072    2.0830    0.8508 C   0  0  0  0  0  0  0  0  0  0  0  0
    4.1332    0.9369    0.4377 C   0  0  0  0  0  0  0  0  0  0  0  0
    3.5938   -0.1450   -0.2115 C   0  0  0  0  0  0  0  0  0  0  0  0
    4.4800   -1.1562   -0.4877 N   0  0  0  0  0  0  0  0  0  0  0  0
    5.6824   -0.8783   -0.0294 C   0  0  0  0  0  0  0  0  0  0  0  0
    6.7543   -1.7038   -0.0478 N   0  0  0  0  0  0  0  0  0  0  0  0
    6.6763   -3.1015   -0.0666 C   0  0  0  0  0  0  0  0  0  0  0  0
    5.6249   -3.8015   -0.6562 C   0  0  0  0  0  0  0  0  0  0  0  0
    5.5388   -5.1817   -0.5109 C   0  0  0  0  0  0  0  0  0  0  0  0
    6.5365   -5.8471    0.1789 C   0  0  0  0  0  0  0  0  0  0  0  0
    7.5888   -5.0972    0.6732 C   0  0  0  0  0  0  0  0  0  0  0  0
    7.6789   -3.7499    0.5660 N   0  0  0  0  0  0  0  0  0  0  0  0
    5.8077    0.6921    0.6853 S   0  0  0  0  0  0  0  0  0  0  0  0
    2.5568   -0.2655   -0.5005 H   0  0  0  0  0  0  0  0  0  0  0  0
    7.5804   -1.4374    0.4760 H   0  0  0  0  0  0  0  0  0  0  0  0
    4.8495   -3.2908   -1.2148 H   0  0  0  0  0  0  0  0  0  0  0  0
    4.6905   -5.7164   -0.9270 H   0  0  0  0  0  0  0  0  0  0  0  0
    6.4960   -6.9202    0.3213 H   0  0  0  0  0  0  0  0  0  0  0  0
    8.4110   -5.5750    1.1980 H   0  0  0  0  0  0  0  0  0  0  0  0
  1  2  3  0  0  0  0
  2  3  1  0  0  0  0
  3  4  2  0  0  0  0
  3 14  1  0  0  0  0
  4  5  1  0  0  0  0
  4 15  1  0  0  0  0
  5  6  2  0  0  0  0
  6  7  1  0  0  0  0
  6 14  1  0  0  0  0
  7  8  1  0  0  0  0
  7 16  1  0  0  0  0
  8  9  1  0  0  0  0
  8 13  2  0  0  0  0
  9 10  2  0  0  0  0
  9 17  1  0  0  0  0
 10 11  1  0  0  0  0
 10 18  1  0  0  0  0
 11 12  2  0  0  0  0
 11 19  1  0  0  0  0
 12 13  1  0  0  0  0
 12 20  1  0  0  0  0
M  END
$$$$
