CHEMBL389963
 OpenBabel04072215373D

 69 74  0  0  1  0  0  0  0  0999 V2000
  -11.0310  -12.4416    6.1662 C   0  0  0  0  0  0  0  0  0  0  0  0
  -11.4509  -11.0837    6.0215 O   0  0  0  0  0  0  0  0  0  0  0  0
  -12.1364  -10.7914    4.8723 C   0  0  0  0  0  0  0  0  0  0  0  0
  -12.8580  -11.7673    4.1651 C   0  0  0  0  0  0  0  0  0  0  0  0
  -13.4125  -11.5287    2.9138 C   0  0  0  0  0  0  0  0  0  0  0  0
  -13.9611  -12.5627    2.2560 N   0  0  0  0  0  0  0  0  0  0  0  0
  -14.3979  -12.3650    0.9957 C   0  0  0  0  0  0  0  0  0  0  0  0
  -14.2714  -11.1685    0.3285 C   0  0  0  0  0  0  0  0  0  0  0  0
  -13.6951  -10.0960    1.0057 C   0  0  0  0  0  0  0  0  0  0  0  0
  -13.5609   -8.9737    0.2104 O   0  0  0  0  0  0  0  0  0  0  0  0
  -12.5225   -8.0874    0.3882 C   0  0  0  0  0  0  0  0  0  0  0  0
  -11.2225   -8.4413    0.7926 C   0  0  0  0  0  0  0  0  0  0  0  0
  -10.2876   -7.4646    1.1701 C   0  0  0  0  0  0  0  0  0  0  0  0
  -10.7068   -6.1514    1.0162 C   0  0  0  0  0  0  0  0  0  0  0  0
  -10.0237   -5.0136    1.3299 O   0  0  0  0  0  0  0  0  0  0  0  0
  -10.8579   -4.0090    0.9164 C   0  0  0  0  0  0  0  0  0  0  0  0
  -10.3619   -2.7731    1.0586 N   0  0  0  0  0  0  0  0  0  0  0  0
  -10.5931   -1.6866    0.1943 C   0  0  0  0  0  0  0  0  0  0  0  0
  -11.4436   -1.7124   -0.9132 C   0  0  0  0  0  0  0  0  0  0  0  0
  -11.5930   -0.5851   -1.7268 C   0  0  0  0  0  0  0  0  0  0  0  0
  -10.9065    0.5969   -1.4331 C   0  0  0  0  0  0  0  0  0  0  0  0
  -11.1071    1.9440   -2.4921 Cl  0  0  0  0  0  0  0  0  0  0  0  0
  -10.0962    0.6712   -0.2898 C   0  0  0  0  0  0  0  0  0  0  0  0
   -9.4399    1.8534   -0.0258 O   0  0  0  0  0  0  0  0  0  0  0  0
   -8.6478    1.8373    1.1681 C   0  0  0  0  0  0  0  0  0  0  0  0
   -7.9226    3.1600    1.4158 C   0  0  2  0  0  0  0  0  0  0  0  0
   -6.9201    3.4936    0.3077 C   0  0  0  0  0  0  0  0  0  0  0  0
   -5.7478    4.1667    1.0174 C   0  0  0  0  0  0  0  0  0  0  0  0
   -6.1524    4.2355    2.4814 C   0  0  0  0  0  0  0  0  0  0  0  0
   -7.0641    3.1011    2.6170 N   0  0  0  0  0  0  0  0  0  0  0  0
   -7.8012    3.1400    3.8729 C   0  0  0  0  0  0  0  0  0  0  0  0
   -9.9683   -0.4744    0.5070 C   0  0  0  0  0  0  0  0  0  0  0  0
  -12.0076   -4.4136    0.4226 N   0  0  0  0  0  0  0  0  0  0  0  0
  -11.9321   -5.7718    0.4996 C   0  0  0  0  0  0  0  0  0  0  0  0
  -12.8701   -6.7473    0.1692 C   0  0  0  0  0  0  0  0  0  0  0  0
  -13.3183  -10.2378    2.3681 C   0  0  0  0  0  0  0  0  0  0  0  0
  -12.8236   -9.2128    3.2038 C   0  0  0  0  0  0  0  0  0  0  0  0
  -12.1474   -9.4825    4.3958 C   0  0  0  0  0  0  0  0  0  0  0  0
  -11.5473   -8.3612    4.8939 O   0  0  0  0  0  0  0  0  0  0  0  0
  -10.4930   -8.4886    5.8325 C   0  0  0  0  0  0  0  0  0  0  0  0
  -10.1462  -12.4578    6.8087 H   0  0  0  0  0  0  0  0  0  0  0  0
  -10.7425  -12.9033    5.2136 H   0  0  0  0  0  0  0  0  0  0  0  0
  -11.8200  -13.0232    6.6532 H   0  0  0  0  0  0  0  0  0  0  0  0
  -12.9656  -12.7742    4.5575 H   0  0  0  0  0  0  0  0  0  0  0  0
  -14.8439  -13.2310    0.5146 H   0  0  0  0  0  0  0  0  0  0  0  0
  -14.5971  -11.0704   -0.7008 H   0  0  0  0  0  0  0  0  0  0  0  0
  -10.9494   -9.4876    0.9131 H   0  0  0  0  0  0  0  0  0  0  0  0
   -9.3195   -7.7140    1.5860 H   0  0  0  0  0  0  0  0  0  0  0  0
   -9.4859   -2.7165    1.5602 H   0  0  0  0  0  0  0  0  0  0  0  0
  -11.9889   -2.6132   -1.1848 H   0  0  0  0  0  0  0  0  0  0  0  0
  -12.2399   -0.6431   -2.5986 H   0  0  0  0  0  0  0  0  0  0  0  0
   -7.8910    1.0448    1.0938 H   0  0  0  0  0  0  0  0  0  0  0  0
   -9.3121    1.6441    2.0189 H   0  0  0  0  0  0  0  0  0  0  0  0
   -8.6505    3.9804    1.4845 H   0  0  0  0  0  0  0  0  0  0  0  0
   -7.3650    4.1572   -0.4412 H   0  0  0  0  0  0  0  0  0  0  0  0
   -6.5635    2.5965   -0.2132 H   0  0  0  0  0  0  0  0  0  0  0  0
   -5.5396    5.1605    0.6099 H   0  0  0  0  0  0  0  0  0  0  0  0
   -4.8454    3.5569    0.8978 H   0  0  0  0  0  0  0  0  0  0  0  0
   -6.6592    5.1865    2.6877 H   0  0  0  0  0  0  0  0  0  0  0  0
   -5.2854    4.1484    3.1440 H   0  0  0  0  0  0  0  0  0  0  0  0
   -7.1062    3.1258    4.7200 H   0  0  0  0  0  0  0  0  0  0  0  0
   -8.4338    2.2530    3.9853 H   0  0  0  0  0  0  0  0  0  0  0  0
   -8.4348    4.0287    3.9599 H   0  0  0  0  0  0  0  0  0  0  0  0
   -9.3631   -0.4624    1.4082 H   0  0  0  0  0  0  0  0  0  0  0  0
  -13.8528   -6.4676   -0.1914 H   0  0  0  0  0  0  0  0  0  0  0  0
  -12.8753   -8.1746    2.8902 H   0  0  0  0  0  0  0  0  0  0  0  0
   -9.9061   -7.5635    5.7860 H   0  0  0  0  0  0  0  0  0  0  0  0
   -9.8044   -9.3071    5.6023 H   0  0  0  0  0  0  0  0  0  0  0  0
  -10.9037   -8.5700    6.8415 H   0  0  0  0  0  0  0  0  0  0  0  0
  1  2  1  0  0  0  0
  1 41  1  0  0  0  0
  1 42  1  0  0  0  0
  1 43  1  0  0  0  0
  2  3  1  0  0  0  0
  3  4  1  0  0  0  0
  3 38  2  0  0  0  0
  4  5  2  0  0  0  0
  4 44  1  0  0  0  0
  5  6  1  0  0  0  0
  5 36  1  0  0  0  0
  6  7  2  0  0  0  0
  7  8  1  0  0  0  0
  7 45  1  0  0  0  0
  8  9  2  0  0  0  0
  8 46  1  0  0  0  0
  9 10  1  0  0  0  0
  9 36  1  0  0  0  0
 10 11  1  0  0  0  0
 11 12  1  0  0  0  0
 11 35  2  0  0  0  0
 12 13  2  0  0  0  0
 12 47  1  0  0  0  0
 13 14  1  0  0  0  0
 13 48  1  0  0  0  0
 14 15  1  0  0  0  0
 14 34  2  0  0  0  0
 15 16  1  0  0  0  0
 16 17  1  0  0  0  0
 16 33  2  0  0  0  0
 17 18  1  0  0  0  0
 17 49  1  0  0  0  0
 18 19  1  0  0  0  0
 18 32  2  0  0  0  0
 19 20  2  0  0  0  0
 19 50  1  0  0  0  0
 20 21  1  0  0  0  0
 20 51  1  0  0  0  0
 21 22  1  0  0  0  0
 21 23  2  0  0  0  0
 23 24  1  0  0  0  0
 23 32  1  0  0  0  0
 24 25  1  0  0  0  0
 25 52  1  0  0  0  0
 25 53  1  0  0  0  0
 26 27  1  0  0  0  0
 26 30  1  0  0  0  0
 26 25  1  0  0  0  0
 26 54  1  1  0  0  0
 27 28  1  0  0  0  0
 27 55  1  0  0  0  0
 27 56  1  0  0  0  0
 28 29  1  0  0  0  0
 28 57  1  0  0  0  0
 28 58  1  0  0  0  0
 29 30  1  0  0  0  0
 29 59  1  0  0  0  0
 29 60  1  0  0  0  0
 30 31  1  0  0  0  0
 31 61  1  0  0  0  0
 31 62  1  0  0  0  0
 31 63  1  0  0  0  0
 32 64  1  0  0  0  0
 33 34  1  0  0  0  0
 34 35  1  0  0  0  0
 35 65  1  0  0  0  0
 36 37  2  0  0  0  0
 37 38  1  0  0  0  0
 37 66  1  0  0  0  0
 38 39  1  0  0  0  0
 39 40  1  0  0  0  0
 40 67  1  0  0  0  0
 40 68  1  0  0  0  0
 40 69  1  0  0  0  0
M  END
$$$$
