CHEMBL3928696
 OpenBabel04072215373D

 43 46  0  0  0  0  0  0  0  0999 V2000
    3.1501   -1.2613    0.4012 C   0  0  0  0  0  0  0  0  0  0  0  0
    2.4818   -0.0169    0.2147 O   0  0  0  0  0  0  0  0  0  0  0  0
    3.1263    0.9882   -0.4532 C   0  0  0  0  0  0  0  0  0  0  0  0
    4.1941    0.7785   -1.3253 C   0  0  0  0  0  0  0  0  0  0  0  0
    4.7497    1.8387   -2.0787 C   0  0  0  0  0  0  0  0  0  0  0  0
    5.8155    1.6900   -2.9888 C   0  0  0  0  0  0  0  0  0  0  0  0
    6.4020    0.4077   -3.1623 N   0  0  0  0  0  0  0  0  0  0  0  0
    7.5850    0.0843   -3.8659 C   0  0  0  0  0  0  0  0  0  0  0  0
    8.6355    0.9936   -4.0271 C   0  0  0  0  0  0  0  0  0  0  0  0
    9.7852    0.6523   -4.7408 C   0  0  0  0  0  0  0  0  0  0  0  0
    9.9264   -0.6308   -5.2647 C   0  0  0  0  0  0  0  0  0  0  0  0
   11.3531   -0.9757   -6.1722 Cl  0  0  0  0  0  0  0  0  0  0  0  0
    8.9267   -1.5800   -5.0391 C   0  0  0  0  0  0  0  0  0  0  0  0
    9.0514   -3.2075   -5.6088 Cl  0  0  0  0  0  0  0  0  0  0  0  0
    7.7703   -1.2256   -4.3313 C   0  0  0  0  0  0  0  0  0  0  0  0
    6.2900    2.7387   -3.6851 N   0  0  0  0  0  0  0  0  0  0  0  0
    5.7150    3.9221   -3.4776 C   0  0  0  0  0  0  0  0  0  0  0  0
    4.7033    4.1684   -2.6393 N   0  0  0  0  0  0  0  0  0  0  0  0
    4.2301    3.1267   -1.9486 C   0  0  0  0  0  0  0  0  0  0  0  0
    3.1867    3.3357   -1.0588 C   0  0  0  0  0  0  0  0  0  0  0  0
    2.6426    2.2959   -0.2896 C   0  0  0  0  0  0  0  0  0  0  0  0
    1.6422    2.4920    0.6361 O   0  0  0  0  0  0  0  0  0  0  0  0
    1.5283    3.8243    1.1505 C   0  0  0  0  0  0  0  0  0  0  0  0
    0.7605    3.7954    2.4365 C   0  0  0  0  0  0  0  0  0  0  0  0
   -0.7247    3.5477    2.4529 C   0  0  0  0  0  0  0  0  0  0  0  0
   -0.1921    4.9151    2.7816 C   0  0  0  0  0  0  0  0  0  0  0  0
    2.3903   -2.0280    0.5818 H   0  0  0  0  0  0  0  0  0  0  0  0
    3.7960   -1.1989    1.2808 H   0  0  0  0  0  0  0  0  0  0  0  0
    3.7214   -1.6120   -0.4612 H   0  0  0  0  0  0  0  0  0  0  0  0
    4.6163   -0.2062   -1.4549 H   0  0  0  0  0  0  0  0  0  0  0  0
    5.6712   -0.2756   -3.3338 H   0  0  0  0  0  0  0  0  0  0  0  0
    8.5708    1.9939   -3.6075 H   0  0  0  0  0  0  0  0  0  0  0  0
   10.5600    1.4011   -4.8834 H   0  0  0  0  0  0  0  0  0  0  0  0
    7.0055   -1.9796   -4.1586 H   0  0  0  0  0  0  0  0  0  0  0  0
    6.1094    4.7620   -4.0373 H   0  0  0  0  0  0  0  0  0  0  0  0
    2.7971    4.3471   -0.9887 H   0  0  0  0  0  0  0  0  0  0  0  0
    1.0192    4.4563    0.4130 H   0  0  0  0  0  0  0  0  0  0  0  0
    2.5191    4.2428    1.3692 H   0  0  0  0  0  0  0  0  0  0  0  0
    1.3492    3.3667    3.2400 H   0  0  0  0  0  0  0  0  0  0  0  0
   -1.1217    2.9464    3.2626 H   0  0  0  0  0  0  0  0  0  0  0  0
   -1.2325    3.4074    1.5056 H   0  0  0  0  0  0  0  0  0  0  0  0
   -0.2403    5.2440    3.8138 H   0  0  0  0  0  0  0  0  0  0  0  0
   -0.3659    5.7063    2.0603 H   0  0  0  0  0  0  0  0  0  0  0  0
  1  2  1  0  0  0  0
  1 27  1  0  0  0  0
  1 28  1  0  0  0  0
  1 29  1  0  0  0  0
  2  3  1  0  0  0  0
  3  4  1  0  0  0  0
  3 21  2  0  0  0  0
  4  5  2  0  0  0  0
  4 30  1  0  0  0  0
  5  6  1  0  0  0  0
  5 19  1  0  0  0  0
  6  7  1  0  0  0  0
  6 16  2  0  0  0  0
  7  8  1  0  0  0  0
  7 31  1  0  0  0  0
  8  9  1  0  0  0  0
  8 15  2  0  0  0  0
  9 10  2  0  0  0  0
  9 32  1  0  0  0  0
 10 11  1  0  0  0  0
 10 33  1  0  0  0  0
 11 12  1  0  0  0  0
 11 13  2  0  0  0  0
 13 14  1  0  0  0  0
 13 15  1  0  0  0  0
 15 34  1  0  0  0  0
 16 17  1  0  0  0  0
 17 18  2  0  0  0  0
 17 35  1  0  0  0  0
 18 19  1  0  0  0  0
 19 20  2  0  0  0  0
 20 21  1  0  0  0  0
 20 36  1  0  0  0  0
 21 22  1  0  0  0  0
 22 23  1  0  0  0  0
 23 24  1  0  0  0  0
 23 37  1  0  0  0  0
 23 38  1  0  0  0  0
 24 25  1  0  0  0  0
 24 26  1  0  0  0  0
 24 39  1  0  0  0  0
 25 26  1  0  0  0  0
 25 40  1  0  0  0  0
 25 41  1  0  0  0  0
 26 42  1  0  0  0  0
 26 43  1  0  0  0  0
M  END
$$$$
