CHEMBL3758363
 OpenBabel04072215373D

 71 75  0  0  0  0  0  0  0  0999 V2000
    2.6466    1.1231    0.4695 C   0  0  0  0  0  0  0  0  0  0  0  0
    2.5316   -0.1064   -0.2420 O   0  0  0  0  0  0  0  0  0  0  0  0
    3.2992   -1.1658    0.1511 C   0  0  0  0  0  0  0  0  0  0  0  0
    4.4593   -0.9948    0.9071 C   0  0  0  0  0  0  0  0  0  0  0  0
    5.1583   -2.0924    1.4459 C   0  0  0  0  0  0  0  0  0  0  0  0
    6.2343   -1.9732    2.3451 C   0  0  0  0  0  0  0  0  0  0  0  0
    6.6056   -0.6842    2.8207 N   0  0  0  0  0  0  0  0  0  0  0  0
    7.4048   -0.4151    3.9526 C   0  0  0  0  0  0  0  0  0  0  0  0
    8.2670    0.6833    3.9480 C   0  0  0  0  0  0  0  0  0  0  0  0
    9.1395    0.9102    5.0222 C   0  0  0  0  0  0  0  0  0  0  0  0
    9.1526    0.0671    6.1335 C   0  0  0  0  0  0  0  0  0  0  0  0
   10.0907    0.1684    7.1872 N   0  0  0  0  0  0  0  0  0  0  0  0
   11.1463    1.0720    7.2574 C   0  0  0  0  0  0  0  0  0  0  0  0
   11.3454    1.9914    6.4665 O   0  0  0  0  0  0  0  0  0  0  0  0
   12.1001    0.9412    8.3899 C   0  0  0  0  0  0  0  0  0  0  0  0
   12.3714   -0.2626    9.0558 C   0  0  0  0  0  0  0  0  0  0  0  0
   13.3581   -0.3064   10.0564 C   0  0  0  0  0  0  0  0  0  0  0  0
   14.0838    0.8435   10.3989 C   0  0  0  0  0  0  0  0  0  0  0  0
   15.1645    0.8157   11.4403 C   0  0  0  0  0  0  0  0  0  0  0  0
   13.8106    2.0411    9.7349 C   0  0  0  0  0  0  0  0  0  0  0  0
   12.8323    2.0861    8.7427 C   0  0  0  0  0  0  0  0  0  0  0  0
    8.2038   -0.9552    6.1939 C   0  0  0  0  0  0  0  0  0  0  0  0
    7.3343   -1.1830    5.1162 C   0  0  0  0  0  0  0  0  0  0  0  0
    6.8842   -3.0547    2.8068 N   0  0  0  0  0  0  0  0  0  0  0  0
    6.4468   -4.2449    2.3903 C   0  0  0  0  0  0  0  0  0  0  0  0
    5.3996   -4.4695    1.5870 N   0  0  0  0  0  0  0  0  0  0  0  0
    4.7505   -3.3926    1.1300 C   0  0  0  0  0  0  0  0  0  0  0  0
    3.6356   -3.5572    0.3122 C   0  0  0  0  0  0  0  0  0  0  0  0
    2.9156   -2.4683   -0.2072 C   0  0  0  0  0  0  0  0  0  0  0  0
    1.8708   -2.8292   -1.0377 O   0  0  0  0  0  0  0  0  0  0  0  0
    1.5285   -1.8540   -2.0337 C   0  0  0  0  0  0  0  0  0  0  0  0
    0.9138   -2.4941   -3.2963 C   0  0  0  0  0  0  0  0  0  0  0  0
    0.5936   -1.4996   -4.3567 N   0  0  0  0  0  0  0  0  0  0  0  0
    1.7985   -0.7877   -4.8196 C   0  0  0  0  0  0  0  0  0  0  0  0
    1.5155    0.2198   -5.9344 C   0  0  0  0  0  0  0  0  0  0  0  0
    0.7664   -0.4166   -7.0927 C   0  0  0  0  0  0  0  0  0  0  0  0
   -0.4709   -1.1357   -6.5728 C   0  0  0  0  0  0  0  0  0  0  0  0
   -0.1018   -2.1472   -5.4818 C   0  0  0  0  0  0  0  0  0  0  0  0
    3.1686    1.8495   -0.1609 H   0  0  0  0  0  0  0  0  0  0  0  0
    3.1419    1.0540    1.4427 H   0  0  0  0  0  0  0  0  0  0  0  0
    1.6371    1.4938    0.6674 H   0  0  0  0  0  0  0  0  0  0  0  0
    4.8376    0.0021    1.1014 H   0  0  0  0  0  0  0  0  0  0  0  0
    6.8384   -0.0841    2.0376 H   0  0  0  0  0  0  0  0  0  0  0  0
    8.3113    1.3571    3.0977 H   0  0  0  0  0  0  0  0  0  0  0  0
    9.8141    1.7551    4.9312 H   0  0  0  0  0  0  0  0  0  0  0  0
    9.9929   -0.4996    7.9402 H   0  0  0  0  0  0  0  0  0  0  0  0
   11.8711   -1.1884    8.7877 H   0  0  0  0  0  0  0  0  0  0  0  0
   13.5723   -1.2511   10.5536 H   0  0  0  0  0  0  0  0  0  0  0  0
   15.2694   -0.1764   11.8883 H   0  0  0  0  0  0  0  0  0  0  0  0
   14.9345    1.5265   12.2408 H   0  0  0  0  0  0  0  0  0  0  0  0
   16.1263    1.0868   10.9902 H   0  0  0  0  0  0  0  0  0  0  0  0
   14.3677    2.9452    9.9710 H   0  0  0  0  0  0  0  0  0  0  0  0
   12.6523    3.0246    8.2214 H   0  0  0  0  0  0  0  0  0  0  0  0
    8.1363   -1.6129    7.0554 H   0  0  0  0  0  0  0  0  0  0  0  0
    6.6110   -1.9941    5.1882 H   0  0  0  0  0  0  0  0  0  0  0  0
    6.9939   -5.1118    2.7436 H   0  0  0  0  0  0  0  0  0  0  0  0
    3.3119   -4.5685    0.0735 H   0  0  0  0  0  0  0  0  0  0  0  0
    2.4393   -1.3310   -2.3352 H   0  0  0  0  0  0  0  0  0  0  0  0
    0.8011   -1.1551   -1.6070 H   0  0  0  0  0  0  0  0  0  0  0  0
   -0.0031   -3.0173   -2.9951 H   0  0  0  0  0  0  0  0  0  0  0  0
    1.5897   -3.2705   -3.6806 H   0  0  0  0  0  0  0  0  0  0  0  0
    2.5615   -1.5017   -5.1539 H   0  0  0  0  0  0  0  0  0  0  0  0
    2.2292   -0.2032   -4.0003 H   0  0  0  0  0  0  0  0  0  0  0  0
    2.4615    0.6429   -6.2917 H   0  0  0  0  0  0  0  0  0  0  0  0
    0.9265    1.0541   -5.5323 H   0  0  0  0  0  0  0  0  0  0  0  0
    1.4205   -1.1291   -7.6097 H   0  0  0  0  0  0  0  0  0  0  0  0
    0.4836    0.3508   -7.8221 H   0  0  0  0  0  0  0  0  0  0  0  0
   -0.9752   -1.6448   -7.4011 H   0  0  0  0  0  0  0  0  0  0  0  0
   -1.1793   -0.4000   -6.1703 H   0  0  0  0  0  0  0  0  0  0  0  0
    0.5194   -2.9407   -5.9186 H   0  0  0  0  0  0  0  0  0  0  0  0
   -1.0278   -2.6142   -5.1277 H   0  0  0  0  0  0  0  0  0  0  0  0
  1  2  1  0  0  0  0
  1 39  1  0  0  0  0
  1 40  1  0  0  0  0
  1 41  1  0  0  0  0
  2  3  1  0  0  0  0
  3  4  1  0  0  0  0
  3 29  2  0  0  0  0
  4  5  2  0  0  0  0
  4 42  1  0  0  0  0
  5  6  1  0  0  0  0
  5 27  1  0  0  0  0
  6  7  1  0  0  0  0
  6 24  2  0  0  0  0
  7  8  1  0  0  0  0
  7 43  1  0  0  0  0
  8  9  1  0  0  0  0
  8 23  2  0  0  0  0
  9 10  2  0  0  0  0
  9 44  1  0  0  0  0
 10 11  1  0  0  0  0
 10 45  1  0  0  0  0
 11 12  1  0  0  0  0
 11 22  2  0  0  0  0
 12 13  1  0  0  0  0
 12 46  1  0  0  0  0
 13 14  2  0  0  0  0
 13 15  1  0  0  0  0
 15 16  1  0  0  0  0
 15 21  2  0  0  0  0
 16 17  2  0  0  0  0
 16 47  1  0  0  0  0
 17 18  1  0  0  0  0
 17 48  1  0  0  0  0
 18 19  1  0  0  0  0
 18 20  2  0  0  0  0
 19 49  1  0  0  0  0
 19 50  1  0  0  0  0
 19 51  1  0  0  0  0
 20 21  1  0  0  0  0
 20 52  1  0  0  0  0
 21 53  1  0  0  0  0
 22 23  1  0  0  0  0
 22 54  1  0  0  0  0
 23 55  1  0  0  0  0
 24 25  1  0  0  0  0
 25 26  2  0  0  0  0
 25 56  1  0  0  0  0
 26 27  1  0  0  0  0
 27 28  2  0  0  0  0
 28 29  1  0  0  0  0
 28 57  1  0  0  0  0
 29 30  1  0  0  0  0
 30 31  1  0  0  0  0
 31 32  1  0  0  0  0
 31 58  1  0  0  0  0
 31 59  1  0  0  0  0
 32 33  1  0  0  0  0
 32 60  1  0  0  0  0
 32 61  1  0  0  0  0
 33 34  1  0  0  0  0
 33 38  1  0  0  0  0
 34 35  1  0  0  0  0
 34 62  1  0  0  0  0
 34 63  1  0  0  0  0
 35 36  1  0  0  0  0
 35 64  1  0  0  0  0
 35 65  1  0  0  0  0
 36 37  1  0  0  0  0
 36 66  1  0  0  0  0
 36 67  1  0  0  0  0
 37 38  1  0  0  0  0
 37 68  1  0  0  0  0
 37 69  1  0  0  0  0
 38 70  1  0  0  0  0
 38 71  1  0  0  0  0
M  END
$$$$
