CHEMBL3962554
 OpenBabel04072215373D

 75 79  0  0  0  0  0  0  0  0999 V2000
    0.9622   -2.6372    3.9115 C   0  0  0  0  0  0  0  0  0  0  0  0
    2.3761   -2.5910    4.0163 O   0  0  0  0  0  0  0  0  0  0  0  0
    3.0303   -2.1216    2.9199 C   0  0  0  0  0  0  0  0  0  0  0  0
    2.4982   -1.6997    1.7577 C   0  0  0  0  0  0  0  0  0  0  0  0
    3.2471   -1.0096    0.8093 C   0  0  0  0  0  0  0  0  0  0  0  0
    2.7008   -0.5011   -0.3329 O   0  0  0  0  0  0  0  0  0  0  0  0
    1.2998   -0.7262   -0.4904 C   0  0  0  0  0  0  0  0  0  0  0  0
    4.5913   -0.7650    1.0240 C   0  0  0  0  0  0  0  0  0  0  0  0
    5.1800   -1.0992    2.2264 C   0  0  0  0  0  0  0  0  0  0  0  0
    6.4986   -0.6582    2.5286 N   0  0  0  0  0  0  0  0  0  0  0  0
    7.0132    0.6176    1.9734 C   0  0  0  0  0  0  0  0  0  0  0  0
    5.9482    1.6544    1.7386 C   0  0  0  0  0  0  0  0  0  0  0  0
    6.3486    2.9205    1.2016 N   0  0  0  0  0  0  0  0  0  0  0  0
    6.9750    2.6903   -0.1050 C   0  0  0  0  0  0  0  0  0  0  0  0
    7.4608    4.0282   -0.5968 C   0  0  0  0  0  0  0  0  0  0  0  0
    6.2955    5.0055   -0.7535 C   0  0  0  0  0  0  0  0  0  0  0  0
    5.4005    4.5667   -1.8460 N   0  0  0  0  0  0  0  0  0  0  0  0
    4.2918    5.5024   -1.9902 C   0  0  0  0  0  0  0  0  0  0  0  0
    6.1368    4.5116   -3.1035 C   0  0  0  0  0  0  0  0  0  0  0  0
    5.5276    5.0800    0.5654 C   0  0  0  0  0  0  0  0  0  0  0  0
    5.1235    3.7085    1.0213 C   0  0  0  0  0  0  0  0  0  0  0  0
    7.5167   -1.4153    3.1427 C   0  0  0  0  0  0  0  0  0  0  0  0
    8.4228   -0.5968    3.9153 C   0  0  0  0  0  0  0  0  0  0  0  0
    9.4122   -1.1896    4.6073 C   0  0  0  0  0  0  0  0  0  0  0  0
    9.6181   -2.4461    4.5420 C   0  0  0  0  0  0  0  0  0  0  0  0
   10.8721   -2.6024    4.6700 N   0  0  0  0  0  0  0  0  0  0  0  0
   11.4980   -2.5704    5.8085 C   0  0  0  0  0  0  0  0  0  0  0  0
   11.6182   -3.8303    5.9860 C   0  0  0  0  0  0  0  0  0  0  0  0
   13.2569   -3.0988    6.7337 C   0  0  0  0  0  0  0  0  0  0  0  0
   14.4345   -1.9011    6.7240 C   0  0  0  0  0  0  0  0  0  0  0  0
   15.4633   -1.7746    7.6324 N   0  0  0  0  0  0  0  0  0  0  0  0
   15.2970   -2.7763    8.4935 N   0  0  0  0  0  0  0  0  0  0  0  0
   16.1527   -2.8878    9.7365 C   0  0  0  0  0  0  0  0  0  0  0  0
   14.1111   -3.5802    8.0183 C   0  0  0  0  0  0  0  0  0  0  0  0
   10.3831   -4.4735    5.0070 N   0  0  0  0  0  0  0  0  0  0  0  0
    9.1273   -3.6128    4.0677 C   0  0  0  0  0  0  0  0  0  0  0  0
    7.8501   -2.7056    3.1209 C   0  0  0  0  0  0  0  0  0  0  0  0
    4.3609   -1.9169    3.0317 C   0  0  0  0  0  0  0  0  0  0  0  0
    0.5465   -2.9501    4.8767 H   0  0  0  0  0  0  0  0  0  0  0  0
    0.6798   -3.3811    3.1632 H   0  0  0  0  0  0  0  0  0  0  0  0
    0.5250   -1.6669    3.6653 H   0  0  0  0  0  0  0  0  0  0  0  0
    1.4804   -1.9285    1.5937 H   0  0  0  0  0  0  0  0  0  0  0  0
    0.9804   -0.2785   -1.4327 H   0  0  0  0  0  0  0  0  0  0  0  0
    0.7182   -0.2609    0.3173 H   0  0  0  0  0  0  0  0  0  0  0  0
    1.0798   -1.7999   -0.5364 H   0  0  0  0  0  0  0  0  0  0  0  0
    5.2021   -0.3066    0.2591 H   0  0  0  0  0  0  0  0  0  0  0  0
    7.5325    0.4989    1.0175 H   0  0  0  0  0  0  0  0  0  0  0  0
    7.6882    1.0380    2.7140 H   0  0  0  0  0  0  0  0  0  0  0  0
    5.5719    1.8768    2.7620 H   0  0  0  0  0  0  0  0  0  0  0  0
    5.2193    1.2077    1.0230 H   0  0  0  0  0  0  0  0  0  0  0  0
    6.2833    2.2333   -0.8283 H   0  0  0  0  0  0  0  0  0  0  0  0
    7.8353    2.0213    0.0087 H   0  0  0  0  0  0  0  0  0  0  0  0
    7.9930    3.8866   -1.5333 H   0  0  0  0  0  0  0  0  0  0  0  0
    8.1917    4.4342    0.1045 H   0  0  0  0  0  0  0  0  0  0  0  0
    6.6986    5.9973   -0.9787 H   0  0  0  0  0  0  0  0  0  0  0  0
    3.6817    5.5461   -1.0877 H   0  0  0  0  0  0  0  0  0  0  0  0
    3.6159    5.1745   -2.7781 H   0  0  0  0  0  0  0  0  0  0  0  0
    4.6610    6.5080   -2.2082 H   0  0  0  0  0  0  0  0  0  0  0  0
    6.9523    3.7890   -3.0616 H   0  0  0  0  0  0  0  0  0  0  0  0
    6.5539    5.4917   -3.3500 H   0  0  0  0  0  0  0  0  0  0  0  0
    5.4909    4.1678   -3.9095 H   0  0  0  0  0  0  0  0  0  0  0  0
    4.6364    5.6947    0.4780 H   0  0  0  0  0  0  0  0  0  0  0  0
    6.1439    5.5525    1.3305 H   0  0  0  0  0  0  0  0  0  0  0  0
    4.4378    3.2419    0.2943 H   0  0  0  0  0  0  0  0  0  0  0  0
    4.5944    3.7833    1.9779 H   0  0  0  0  0  0  0  0  0  0  0  0
    8.4752    0.4767    3.9754 H   0  0  0  0  0  0  0  0  0  0  0  0
   10.1659   -0.6705    5.2118 H   0  0  0  0  0  0  0  0  0  0  0  0
   11.8567   -1.5414    5.9668 H   0  0  0  0  0  0  0  0  0  0  0  0
   14.5261   -1.1068    6.0150 H   0  0  0  0  0  0  0  0  0  0  0  0
   16.9760   -2.1361    9.7901 H   0  0  0  0  0  0  0  0  0  0  0  0
   16.6249   -3.8800    9.8199 H   0  0  0  0  0  0  0  0  0  0  0  0
   15.5258   -2.7283   10.6265 H   0  0  0  0  0  0  0  0  0  0  0  0
   14.0238   -4.4248    8.6833 H   0  0  0  0  0  0  0  0  0  0  0  0
    7.1901   -3.2710    2.3423 H   0  0  0  0  0  0  0  0  0  0  0  0
    4.6279   -2.5101    3.8641 H   0  0  0  0  0  0  0  0  0  0  0  0
  1  2  1  0  0  0  0
  1 39  1  0  0  0  0
  1 40  1  0  0  0  0
  1 41  1  0  0  0  0
  2  3  1  0  0  0  0
  3  4  1  0  0  0  0
  3 38  2  0  0  0  0
  4  5  2  0  0  0  0
  4 42  1  0  0  0  0
  5  6  1  0  0  0  0
  5  8  1  0  0  0  0
  6  7  1  0  0  0  0
  7 43  1  0  0  0  0
  7 44  1  0  0  0  0
  7 45  1  0  0  0  0
  8  9  2  0  0  0  0
  8 46  1  0  0  0  0
  9 10  1  0  0  0  0
  9 38  1  0  0  0  0
 10 11  1  0  0  0  0
 10 22  1  0  0  0  0
 11 12  1  0  0  0  0
 11 47  1  0  0  0  0
 11 48  1  0  0  0  0
 12 13  1  0  0  0  0
 12 49  1  0  0  0  0
 12 50  1  0  0  0  0
 13 14  1  0  0  0  0
 13 21  1  0  0  0  0
 14 15  1  0  0  0  0
 14 51  1  0  0  0  0
 14 52  1  0  0  0  0
 15 16  1  0  0  0  0
 15 53  1  0  0  0  0
 15 54  1  0  0  0  0
 16 17  1  0  0  0  0
 16 20  1  0  0  0  0
 16 55  1  0  0  0  0
 17 18  1  0  0  0  0
 17 19  1  0  0  0  0
 18 56  1  0  0  0  0
 18 57  1  0  0  0  0
 18 58  1  0  0  0  0
 19 59  1  0  0  0  0
 19 60  1  0  0  0  0
 19 61  1  0  0  0  0
 20 21  1  0  0  0  0
 20 62  1  0  0  0  0
 20 63  1  0  0  0  0
 21 64  1  0  0  0  0
 21 65  1  0  0  0  0
 22 23  1  0  0  0  0
 22 37  2  0  0  0  0
 23 24  2  0  0  0  0
 23 66  1  0  0  0  0
 24 25  1  0  0  0  0
 24 67  1  0  0  0  0
 25 26  1  0  0  0  0
 25 36  2  0  0  0  0
 26 27  2  0  0  0  0
 27 28  1  0  0  0  0
 27 68  1  0  0  0  0
 28 29  1  0  0  0  0
 28 35  2  0  0  0  0
 29 30  1  0  0  0  0
 29 34  2  0  0  0  0
 30 31  2  0  0  0  0
 30 69  1  0  0  0  0
 31 32  1  0  0  0  0
 32 33  1  0  0  0  0
 32 34  1  0  0  0  0
 33 70  1  0  0  0  0
 33 71  1  0  0  0  0
 33 72  1  0  0  0  0
 34 73  1  0  0  0  0
 35 36  1  0  0  0  0
 36 37  1  0  0  0  0
 37 74  1  0  0  0  0
 38 75  1  0  0  0  0
M  END
$$$$
