CHEMBL214161
 OpenBabel04072215363D

 69 74  0  0  0  0  0  0  0  0999 V2000
    2.4343   -1.9845    4.4977 C   0  0  0  0  0  0  0  0  0  0  0  0
    1.4316   -2.9659    5.0343 C   0  0  0  0  0  0  0  0  0  0  0  0
    1.6654   -3.5937    6.2576 C   0  0  0  0  0  0  0  0  0  0  0  0
    0.7370   -4.5092    6.7509 C   0  0  0  0  0  0  0  0  0  0  0  0
   -0.4199   -4.8110    6.0202 C   0  0  0  0  0  0  0  0  0  0  0  0
   -0.6840   -4.1999    4.7931 C   0  0  0  0  0  0  0  0  0  0  0  0
   -1.8367   -4.4749    3.9939 N   0  0  0  0  0  0  0  0  0  0  0  0
   -2.8950   -5.2890    4.3484 C   0  0  0  0  0  0  0  0  0  0  0  0
   -3.0333   -5.8558    5.4315 O   0  0  0  0  0  0  0  0  0  0  0  0
   -3.8623   -5.4203    3.3469 N   0  0  0  0  0  0  0  0  0  0  0  0
   -4.9111   -6.3877    3.6471 C   0  0  0  0  0  0  0  0  0  0  0  0
   -5.9871   -6.5318    2.6034 C   0  0  0  0  0  0  0  0  0  0  0  0
   -7.0547   -5.7008    2.3261 C   0  0  0  0  0  0  0  0  0  0  0  0
   -8.0037   -6.2988    1.4262 C   0  0  0  0  0  0  0  0  0  0  0  0
   -7.6555   -7.5849    1.0496 C   0  0  0  0  0  0  0  0  0  0  0  0
   -8.4134   -8.4680    0.0532 C   0  0  0  0  0  0  0  0  0  0  0  0
   -8.2185   -9.7922   -0.0592 N   0  0  0  0  0  0  0  0  0  0  0  0
   -8.5571  -10.0852   -1.3434 N   0  0  0  0  0  0  0  0  0  0  0  0
   -8.9105   -8.9878   -2.0883 C   0  0  0  0  0  0  0  0  0  0  0  0
   -9.0626   -7.9772   -1.1202 C   0  0  0  0  0  0  0  0  0  0  0  0
   -8.9162   -6.6293   -1.7315 C   0  0  0  0  0  0  0  0  0  0  0  0
   -7.8111   -7.1288   -2.6395 C   0  0  0  0  0  0  0  0  0  0  0  0
   -6.4608   -6.9391   -2.3617 C   0  0  0  0  0  0  0  0  0  0  0  0
   -5.5230   -7.6845   -3.0724 C   0  0  0  0  0  0  0  0  0  0  0  0
   -5.9638   -8.4501   -4.1613 C   0  0  0  0  0  0  0  0  0  0  0  0
   -5.0909   -8.3908   -5.4063 C   0  0  0  0  0  0  0  0  0  0  0  0
   -5.5534   -7.3443   -6.3480 N   0  0  0  0  0  0  0  0  0  0  0  0
   -5.7998   -6.0208   -5.7296 C   0  0  0  0  0  0  0  0  0  0  0  0
   -6.3835   -5.0181   -6.7447 C   0  0  0  0  0  0  0  0  0  0  0  0
   -5.5293   -4.7799   -7.9185 N   0  0  0  0  0  0  0  0  0  0  0  0
   -4.3914   -3.9291   -7.5823 C   0  0  0  0  0  0  0  0  0  0  0  0
   -5.1127   -6.0819   -8.4815 C   0  0  0  0  0  0  0  0  0  0  0  0
   -4.6022   -7.1429   -7.4575 C   0  0  0  0  0  0  0  0  0  0  0  0
   -7.2780   -8.9353   -4.1539 C   0  0  0  0  0  0  0  0  0  0  0  0
   -8.1578   -8.3674   -3.2286 C   0  0  0  0  0  0  0  0  0  0  0  0
   -6.1470   -8.0206    1.7440 S   0  0  0  0  0  0  0  0  0  0  0  0
    0.2613   -3.2732    4.3072 C   0  0  0  0  0  0  0  0  0  0  0  0
    3.2729   -1.8494    5.1916 H   0  0  0  0  0  0  0  0  0  0  0  0
    1.9684   -1.0073    4.3452 H   0  0  0  0  0  0  0  0  0  0  0  0
    2.8438   -2.3448    3.5481 H   0  0  0  0  0  0  0  0  0  0  0  0
    2.5578   -3.3746    6.8367 H   0  0  0  0  0  0  0  0  0  0  0  0
    0.9089   -4.9996    7.7069 H   0  0  0  0  0  0  0  0  0  0  0  0
   -1.0951   -5.5421    6.4547 H   0  0  0  0  0  0  0  0  0  0  0  0
   -1.9324   -3.9457    3.1404 H   0  0  0  0  0  0  0  0  0  0  0  0
   -3.5185   -5.3989    2.3990 H   0  0  0  0  0  0  0  0  0  0  0  0
   -5.3854   -6.0833    4.5899 H   0  0  0  0  0  0  0  0  0  0  0  0
   -4.4230   -7.3521    3.8285 H   0  0  0  0  0  0  0  0  0  0  0  0
   -7.1965   -4.7336    2.7964 H   0  0  0  0  0  0  0  0  0  0  0  0
   -8.9187   -5.8067    1.1191 H   0  0  0  0  0  0  0  0  0  0  0  0
   -8.3929  -11.0316   -1.6680 H   0  0  0  0  0  0  0  0  0  0  0  0
   -8.6018   -5.7985   -1.1138 H   0  0  0  0  0  0  0  0  0  0  0  0
   -9.8008   -6.3578   -2.3246 H   0  0  0  0  0  0  0  0  0  0  0  0
   -6.1396   -6.3255   -1.5342 H   0  0  0  0  0  0  0  0  0  0  0  0
   -4.4644   -7.5567   -2.8775 H   0  0  0  0  0  0  0  0  0  0  0  0
   -5.0852   -9.3679   -5.8974 H   0  0  0  0  0  0  0  0  0  0  0  0
   -4.0541   -8.1841   -5.0983 H   0  0  0  0  0  0  0  0  0  0  0  0
   -4.8808   -5.6207   -5.2770 H   0  0  0  0  0  0  0  0  0  0  0  0
   -6.5517   -6.0807   -4.9440 H   0  0  0  0  0  0  0  0  0  0  0  0
   -6.6179   -4.0729   -6.2379 H   0  0  0  0  0  0  0  0  0  0  0  0
   -7.3503   -5.4057   -7.0938 H   0  0  0  0  0  0  0  0  0  0  0  0
   -4.7329   -2.9934   -7.1227 H   0  0  0  0  0  0  0  0  0  0  0  0
   -3.8551   -3.6447   -8.4934 H   0  0  0  0  0  0  0  0  0  0  0  0
   -3.6810   -4.4034   -6.8982 H   0  0  0  0  0  0  0  0  0  0  0  0
   -4.3577   -5.9274   -9.2616 H   0  0  0  0  0  0  0  0  0  0  0  0
   -5.9861   -6.5061   -8.9954 H   0  0  0  0  0  0  0  0  0  0  0  0
   -3.6244   -6.8257   -7.0754 H   0  0  0  0  0  0  0  0  0  0  0  0
   -4.4535   -8.0867   -7.9940 H   0  0  0  0  0  0  0  0  0  0  0  0
   -7.6804   -9.5139   -4.9781 H   0  0  0  0  0  0  0  0  0  0  0  0
    0.0957   -2.7775    3.3543 H   0  0  0  0  0  0  0  0  0  0  0  0
  1  2  1  0  0  0  0
  1 38  1  0  0  0  0
  1 39  1  0  0  0  0
  1 40  1  0  0  0  0
  2  3  1  0  0  0  0
  2 37  2  0  0  0  0
  3  4  2  0  0  0  0
  3 41  1  0  0  0  0
  4  5  1  0  0  0  0
  4 42  1  0  0  0  0
  5  6  2  0  0  0  0
  5 43  1  0  0  0  0
  6  7  1  0  0  0  0
  6 37  1  0  0  0  0
  7  8  1  0  0  0  0
  7 44  1  0  0  0  0
  8  9  2  0  0  0  0
  8 10  1  0  0  0  0
 10 11  1  0  0  0  0
 10 45  1  0  0  0  0
 11 12  1  0  0  0  0
 11 46  1  0  0  0  0
 11 47  1  0  0  0  0
 12 13  2  0  0  0  0
 12 36  1  0  0  0  0
 13 14  1  0  0  0  0
 13 48  1  0  0  0  0
 14 15  2  0  0  0  0
 14 49  1  0  0  0  0
 15 16  1  0  0  0  0
 15 36  1  0  0  0  0
 16 17  2  0  0  0  0
 16 20  1  0  0  0  0
 17 18  1  0  0  0  0
 18 19  1  0  0  0  0
 18 50  1  0  0  0  0
 19 20  2  0  0  0  0
 19 35  1  0  0  0  0
 20 21  1  0  0  0  0
 21 22  1  0  0  0  0
 21 51  1  0  0  0  0
 21 52  1  0  0  0  0
 22 23  1  0  0  0  0
 22 35  2  0  0  0  0
 23 24  2  0  0  0  0
 23 53  1  0  0  0  0
 24 25  1  0  0  0  0
 24 54  1  0  0  0  0
 25 26  1  0  0  0  0
 25 34  2  0  0  0  0
 26 27  1  0  0  0  0
 26 55  1  0  0  0  0
 26 56  1  0  0  0  0
 27 28  1  0  0  0  0
 27 33  1  0  0  0  0
 28 29  1  0  0  0  0
 28 57  1  0  0  0  0
 28 58  1  0  0  0  0
 29 30  1  0  0  0  0
 29 59  1  0  0  0  0
 29 60  1  0  0  0  0
 30 31  1  0  0  0  0
 30 32  1  0  0  0  0
 31 61  1  0  0  0  0
 31 62  1  0  0  0  0
 31 63  1  0  0  0  0
 32 33  1  0  0  0  0
 32 64  1  0  0  0  0
 32 65  1  0  0  0  0
 33 66  1  0  0  0  0
 33 67  1  0  0  0  0
 34 35  1  0  0  0  0
 34 68  1  0  0  0  0
 37 69  1  0  0  0  0
M  END
$$$$
