CHEMBL1995592
 OpenBabel04072215363D

 40 43  0  0  0  0  0  0  0  0999 V2000
    2.2891    1.2526    1.1228 C   0  0  0  0  0  0  0  0  0  0  0  0
    1.2028    0.3494    0.5998 C   0  0  0  0  0  0  0  0  0  0  0  0
   -0.0760    0.9613    0.5655 C   0  0  0  0  0  0  0  0  0  0  0  0
   -1.1655    0.3161    0.0058 C   0  0  0  0  0  0  0  0  0  0  0  0
   -2.3765    0.9285   -0.0984 O   0  0  0  0  0  0  0  0  0  0  0  0
   -1.0398   -0.9764   -0.4540 C   0  0  0  0  0  0  0  0  0  0  0  0
    0.1831   -1.6441   -0.3029 C   0  0  0  0  0  0  0  0  0  0  0  0
    1.3586   -1.0013    0.1647 C   0  0  0  0  0  0  0  0  0  0  0  0
    2.6325   -1.7372    0.1481 N   0  0  0  0  0  0  0  0  0  0  0  0
    3.0160   -2.5937   -0.9804 C   0  0  0  0  0  0  0  0  0  0  0  0
    2.2570   -2.7295   -2.1613 C   0  0  0  0  0  0  0  0  0  0  0  0
    2.5759   -3.6809   -3.1438 C   0  0  0  0  0  0  0  0  0  0  0  0
    1.5150   -3.9171   -4.4788 Cl  0  0  0  0  0  0  0  0  0  0  0  0
    3.7222   -4.4513   -3.0397 C   0  0  0  0  0  0  0  0  0  0  0  0
    4.5548   -4.2613   -1.9476 C   0  0  0  0  0  0  0  0  0  0  0  0
    4.1987   -3.3497   -0.9328 C   0  0  0  0  0  0  0  0  0  0  0  0
    5.1162   -3.2157    0.1999 C   0  0  0  0  0  0  0  0  0  0  0  0
    6.1254   -3.9186    0.2628 O   0  0  0  0  0  0  0  0  0  0  0  0
    4.7756   -2.2794    1.2780 C   0  0  0  0  0  0  0  0  0  0  0  0
    5.6416   -2.0305    2.3308 C   0  0  0  0  0  0  0  0  0  0  0  0
    6.9735   -2.4393    2.3269 N   0  0  0  0  0  0  0  0  0  0  0  0
    5.3068   -1.2467    3.3584 N   0  0  0  0  0  0  0  0  0  0  0  0
    4.0852   -0.7396    3.3453 C   0  0  0  0  0  0  0  0  0  0  0  0
    3.7713    0.2052    4.2900 N   0  0  0  0  0  0  0  0  0  0  0  0
    3.1745   -1.0126    2.4156 N   0  0  0  0  0  0  0  0  0  0  0  0
    3.5251   -1.6833    1.2968 C   0  0  0  0  0  0  0  0  0  0  0  0
    2.0166    2.3088    1.0230 H   0  0  0  0  0  0  0  0  0  0  0  0
    3.2304    1.1145    0.5882 H   0  0  0  0  0  0  0  0  0  0  0  0
    2.4071    1.1150    2.1976 H   0  0  0  0  0  0  0  0  0  0  0  0
   -0.1935    1.9683    0.9589 H   0  0  0  0  0  0  0  0  0  0  0  0
   -2.3230    1.7956    0.3374 H   0  0  0  0  0  0  0  0  0  0  0  0
   -1.8873   -1.4743   -0.9156 H   0  0  0  0  0  0  0  0  0  0  0  0
    0.1992   -2.6921   -0.5921 H   0  0  0  0  0  0  0  0  0  0  0  0
    1.3858   -2.1153   -2.3551 H   0  0  0  0  0  0  0  0  0  0  0  0
    3.9794   -5.1822   -3.8029 H   0  0  0  0  0  0  0  0  0  0  0  0
    5.4799   -4.8330   -1.8769 H   0  0  0  0  0  0  0  0  0  0  0  0
    7.0980   -3.3780    1.9460 H   0  0  0  0  0  0  0  0  0  0  0  0
    7.3997   -2.2767    3.2321 H   0  0  0  0  0  0  0  0  0  0  0  0
    4.3961    0.2389    5.0768 H   0  0  0  0  0  0  0  0  0  0  0  0
    2.7959    0.4027    4.3786 H   0  0  0  0  0  0  0  0  0  0  0  0
  1  2  1  0  0  0  0
  1 27  1  0  0  0  0
  1 28  1  0  0  0  0
  1 29  1  0  0  0  0
  2  3  1  0  0  0  0
  2  8  2  0  0  0  0
  3  4  2  0  0  0  0
  3 30  1  0  0  0  0
  4  5  1  0  0  0  0
  4  6  1  0  0  0  0
  5 31  1  0  0  0  0
  6  7  2  0  0  0  0
  6 32  1  0  0  0  0
  7  8  1  0  0  0  0
  7 33  1  0  0  0  0
  8  9  1  0  0  0  0
  9 10  1  0  0  0  0
  9 26  1  0  0  0  0
 10 11  1  0  0  0  0
 10 16  2  0  0  0  0
 11 12  2  0  0  0  0
 11 34  1  0  0  0  0
 12 13  1  0  0  0  0
 12 14  1  0  0  0  0
 14 15  2  0  0  0  0
 14 35  1  0  0  0  0
 15 16  1  0  0  0  0
 15 36  1  0  0  0  0
 16 17  1  0  0  0  0
 17 18  2  0  0  0  0
 17 19  1  0  0  0  0
 19 20  1  0  0  0  0
 19 26  2  0  0  0  0
 20 21  1  0  0  0  0
 20 22  2  0  0  0  0
 21 37  1  0  0  0  0
 21 38  1  0  0  0  0
 22 23  1  0  0  0  0
 23 24  1  0  0  0  0
 23 25  2  0  0  0  0
 24 39  1  0  0  0  0
 24 40  1  0  0  0  0
 25 26  1  0  0  0  0
M  END
$$$$
