CHEMBL4784431
 OpenBabel04072215383D

 62 67  0  0  0  0  0  0  0  0999 V2000
    9.2691    5.5800   -1.6945 C   0  0  0  0  0  0  0  0  0  0  0  0
    9.3844    6.0122   -0.3353 O   0  0  0  0  0  0  0  0  0  0  0  0
    8.4286    5.5207    0.5177 C   0  0  0  0  0  0  0  0  0  0  0  0
    7.8159    4.2793    0.2761 C   0  0  0  0  0  0  0  0  0  0  0  0
    6.7864    3.7893    1.0566 C   0  0  0  0  0  0  0  0  0  0  0  0
    6.1928    2.6556    0.6678 N   0  0  0  0  0  0  0  0  0  0  0  0
    5.1527    2.2410    1.3943 C   0  0  0  0  0  0  0  0  0  0  0  0
    4.6899    2.8312    2.4906 N   0  0  0  0  0  0  0  0  0  0  0  0
    5.3572    3.9301    2.9035 C   0  0  0  0  0  0  0  0  0  0  0  0
    4.9657    4.5330    4.0987 O   0  0  0  0  0  0  0  0  0  0  0  0
    4.2151    3.7667    4.9657 C   0  0  0  0  0  0  0  0  0  0  0  0
    4.5418    2.4491    5.2910 C   0  0  0  0  0  0  0  0  0  0  0  0
    3.6929    1.6958    6.1076 C   0  0  0  0  0  0  0  0  0  0  0  0
    2.5411    2.2637    6.6668 C   0  0  0  0  0  0  0  0  0  0  0  0
    1.7200    1.4774    7.4958 N   0  0  0  0  0  0  0  0  0  0  0  0
    0.9290    1.8586    8.5958 C   0  0  0  0  0  0  0  0  0  0  0  0
    0.9448    3.1579    8.9867 N   0  0  0  0  0  0  0  0  0  0  0  0
    0.1582    3.5574   10.0014 C   0  0  0  0  0  0  0  0  0  0  0  0
   -0.6756    2.7103   10.6976 C   0  0  0  0  0  0  0  0  0  0  0  0
   -0.6976    1.3687   10.3317 C   0  0  0  0  0  0  0  0  0  0  0  0
   -1.5642    0.4771   10.9799 N   0  0  0  0  0  0  0  0  0  0  0  0
   -1.5959   -0.8489   10.6318 C   0  0  0  0  0  0  0  0  0  0  0  0
   -0.8790   -1.3971    9.6436 C   0  0  0  0  0  0  0  0  0  0  0  0
   -0.9562   -2.8323    9.3466 C   0  0  0  0  0  0  0  0  0  0  0  0
   -1.9174   -3.3298    8.4549 C   0  0  0  0  0  0  0  0  0  0  0  0
   -1.9318   -4.6881    8.1264 C   0  0  0  0  0  0  0  0  0  0  0  0
   -0.9927   -5.5417    8.6946 C   0  0  0  0  0  0  0  0  0  0  0  0
   -0.9909   -6.8385    8.3592 F   0  0  0  0  0  0  0  0  0  0  0  0
   -0.0489   -5.0685    9.5985 C   0  0  0  0  0  0  0  0  0  0  0  0
   -0.0314   -3.7121    9.9283 C   0  0  0  0  0  0  0  0  0  0  0  0
    0.0654   -0.5046    8.8922 C   0  0  0  0  0  0  0  0  0  0  0  0
    0.8187   -0.9584    8.0332 O   0  0  0  0  0  0  0  0  0  0  0  0
    0.1003    0.9383    9.2545 C   0  0  0  0  0  0  0  0  0  0  0  0
    2.2726    3.6119    6.3882 C   0  0  0  0  0  0  0  0  0  0  0  0
    3.1012    4.3632    5.5473 C   0  0  0  0  0  0  0  0  0  0  0  0
    6.4086    4.5074    2.1896 C   0  0  0  0  0  0  0  0  0  0  0  0
    7.0780    5.7137    2.5059 C   0  0  0  0  0  0  0  0  0  0  0  0
    8.0623    6.2453    1.6589 C   0  0  0  0  0  0  0  0  0  0  0  0
    8.5147    7.4582    2.0973 O   0  0  0  0  0  0  0  0  0  0  0  0
    9.3003    8.2725    1.2410 C   0  0  0  0  0  0  0  0  0  0  0  0
    9.7890    6.3018   -2.3298 H   0  0  0  0  0  0  0  0  0  0  0  0
    8.2253    5.5424   -2.0314 H   0  0  0  0  0  0  0  0  0  0  0  0
    9.7517    4.6053   -1.8244 H   0  0  0  0  0  0  0  0  0  0  0  0
    8.1198    3.6610   -0.5645 H   0  0  0  0  0  0  0  0  0  0  0  0
    4.6440    1.3420    1.0665 H   0  0  0  0  0  0  0  0  0  0  0  0
    5.4302    1.9800    4.8763 H   0  0  0  0  0  0  0  0  0  0  0  0
    3.9454    0.6580    6.3028 H   0  0  0  0  0  0  0  0  0  0  0  0
    1.9370    0.4800    7.5007 H   0  0  0  0  0  0  0  0  0  0  0  0
    0.2177    4.6162   10.2359 H   0  0  0  0  0  0  0  0  0  0  0  0
   -1.2930    3.0951   11.4991 H   0  0  0  0  0  0  0  0  0  0  0  0
   -1.9908    0.7562   11.8561 H   0  0  0  0  0  0  0  0  0  0  0  0
   -2.2733   -1.4399   11.2463 H   0  0  0  0  0  0  0  0  0  0  0  0
   -2.6397   -2.6625    7.9900 H   0  0  0  0  0  0  0  0  0  0  0  0
   -2.6542   -5.0808    7.4178 H   0  0  0  0  0  0  0  0  0  0  0  0
    0.6789   -5.7510   10.0244 H   0  0  0  0  0  0  0  0  0  0  0  0
    0.7227   -3.3408   10.6179 H   0  0  0  0  0  0  0  0  0  0  0  0
    1.3898    4.0917    6.8013 H   0  0  0  0  0  0  0  0  0  0  0  0
    2.8536    5.3983    5.3339 H   0  0  0  0  0  0  0  0  0  0  0  0
    6.7964    6.2714    3.3983 H   0  0  0  0  0  0  0  0  0  0  0  0
    9.1955    9.3050    1.5925 H   0  0  0  0  0  0  0  0  0  0  0  0
    8.9591    8.2671    0.2026 H   0  0  0  0  0  0  0  0  0  0  0  0
   10.3560    7.9992    1.3255 H   0  0  0  0  0  0  0  0  0  0  0  0
  1  2  1  0  0  0  0
  1 41  1  0  0  0  0
  1 42  1  0  0  0  0
  1 43  1  0  0  0  0
  2  3  1  0  0  0  0
  3  4  1  0  0  0  0
  3 38  2  0  0  0  0
  4  5  2  0  0  0  0
  4 44  1  0  0  0  0
  5  6  1  0  0  0  0
  5 36  1  0  0  0  0
  6  7  2  0  0  0  0
  7  8  1  0  0  0  0
  7 45  1  0  0  0  0
  8  9  2  0  0  0  0
  9 10  1  0  0  0  0
  9 36  1  0  0  0  0
 10 11  1  0  0  0  0
 11 12  1  0  0  0  0
 11 35  2  0  0  0  0
 12 13  2  0  0  0  0
 12 46  1  0  0  0  0
 13 14  1  0  0  0  0
 13 47  1  0  0  0  0
 14 15  1  0  0  0  0
 14 34  2  0  0  0  0
 15 16  1  0  0  0  0
 15 48  1  0  0  0  0
 16 17  1  0  0  0  0
 16 33  2  0  0  0  0
 17 18  2  0  0  0  0
 18 19  1  0  0  0  0
 18 49  1  0  0  0  0
 19 20  2  0  0  0  0
 19 50  1  0  0  0  0
 20 21  1  0  0  0  0
 20 33  1  0  0  0  0
 21 22  1  0  0  0  0
 21 51  1  0  0  0  0
 22 23  2  0  0  0  0
 22 52  1  0  0  0  0
 23 24  1  0  0  0  0
 23 31  1  0  0  0  0
 24 25  1  0  0  0  0
 24 30  2  0  0  0  0
 25 26  2  0  0  0  0
 25 53  1  0  0  0  0
 26 27  1  0  0  0  0
 26 54  1  0  0  0  0
 27 28  1  0  0  0  0
 27 29  2  0  0  0  0
 29 30  1  0  0  0  0
 29 55  1  0  0  0  0
 30 56  1  0  0  0  0
 31 32  2  0  0  0  0
 31 33  1  0  0  0  0
 34 35  1  0  0  0  0
 34 57  1  0  0  0  0
 35 58  1  0  0  0  0
 36 37  2  0  0  0  0
 37 38  1  0  0  0  0
 37 59  1  0  0  0  0
 38 39  1  0  0  0  0
 39 40  1  0  0  0  0
 40 60  1  0  0  0  0
 40 61  1  0  0  0  0
 40 62  1  0  0  0  0
M  END
$$$$
