@<TRIPOS>MOLECULE
CHEMBL2220442
 56 58 0 0 0
SMALL
GASTEIGER

@<TRIPOS>ATOM
      1 C           0.6818    0.0189    0.2201 C.3     1  UNL1       -0.0445
      2 C           2.1966    0.0074   -0.0176 C.3     1  UNL1        0.0295
      3 C           2.6770    1.4266   -0.3045 C.3     1  UNL1       -0.0445
      4 N           2.8728   -0.8041    1.0074 N.ar    1  UNL1       -0.3372
      5 C           3.4733   -0.4454    2.2159 C.ar    1  UNL1        0.0507
      6 C           3.6651    0.9089    2.6260 C.2     1  UNL1       -0.0391
      7 C           4.5802    1.7175    2.0639 C.2     1  UNL1       -0.0539
      8 C           4.8684    3.1354    2.5051 C.3     1  UNL1        0.0761
      9 O           6.2812    3.2863    2.6593 O.3     1  UNL1       -0.3877
     10 C           4.3692    4.1942    1.4974 C.3     1  UNL1        0.0034
     11 C           4.8557    5.6263    1.8149 C.3     1  UNL1        0.0679
     12 O           6.2674    5.6886    1.5926 O.3     1  UNL1       -0.3912
     13 C           4.2131    6.6506    0.8760 C.3     1  UNL1        0.0708
     14 C           4.4108    8.0700    1.3590 C.2     1  UNL1        0.3072
     15 O           4.5146    8.4112    2.5297 O.2     1  UNL1       -0.2509
     16 O           4.3493    8.9793    0.3555 O.3     1  UNL1       -0.4806
     17 C           3.7273   -1.6313    2.9138 C.ar    1  UNL1        0.0147
     18 C           4.3590   -1.7255    4.2296 C.ar    1  UNL1       -0.0151
     19 C           3.8249   -1.0727    5.3483 C.ar    1  UNL1       -0.0512
     20 C           4.4280   -1.2133    6.6025 C.ar    1  UNL1       -0.0259
     21 C           5.5503   -2.0221    6.7413 C.ar    1  UNL1        0.1234
     22 F           6.1220   -2.1587    7.9450 F       1  UNL1       -0.2055
     23 C           6.0816   -2.6978    5.6510 C.ar    1  UNL1       -0.0259
     24 C           5.4875   -2.5477    4.3954 C.ar    1  UNL1       -0.0512
     25 C           3.2527   -2.7271    2.1311 C.ar    1  UNL1        0.0082
     26 C           3.1611   -4.1231    2.3489 C.ar    1  UNL1       -0.0520
     27 C           2.6177   -4.9548    1.3656 C.ar    1  UNL1       -0.0611
     28 C           2.1851   -4.4200    0.1614 C.ar    1  UNL1       -0.0598
     29 C           2.2662   -3.0460   -0.0777 C.ar    1  UNL1       -0.0376
     30 C           2.7844   -2.2043    0.9304 C.ar    1  UNL1        0.0503
     31 H           0.1694    0.5911   -0.5605 H       1  UNL1        0.0249
     32 H           0.4369    0.4615    1.1908 H       1  UNL1        0.0249
     33 H           0.2640   -0.9932    0.2032 H       1  UNL1        0.0249
     34 H           2.3872   -0.5215   -0.9605 H       1  UNL1        0.0522
     35 H           2.4278    2.1118    0.5086 H       1  UNL1        0.0249
     36 H           2.1770    1.8183   -1.1984 H       1  UNL1        0.0249
     37 H           3.7496    1.4539   -0.5126 H       1  UNL1        0.0249
     38 H           3.1083    1.2487    3.4964 H       1  UNL1        0.0636
     39 H           5.1685    1.3503    1.2257 H       1  UNL1        0.0598
     40 H           4.4146    3.3335    3.4835 H       1  UNL1        0.0638
     41 H           6.7078    2.4304    2.4782 H       1  UNL1        0.2102
     42 H           3.2733    4.1735    1.4664 H       1  UNL1        0.0318
     43 H           4.7385    3.9282    0.4979 H       1  UNL1        0.0318
     44 H           4.6568    5.8710    2.8647 H       1  UNL1        0.0599
     45 H           6.6549    4.9538    2.1179 H       1  UNL1        0.2098
     46 H           3.1320    6.4940    0.7990 H       1  UNL1        0.0403
     47 H           4.6618    6.5560   -0.1200 H       1  UNL1        0.0403
     48 H           4.2535    8.5859   -0.5320 H       1  UNL1        0.2951
     49 H           2.9263   -0.4691    5.2583 H       1  UNL1        0.0624
     50 H           4.0236   -0.7063    7.4727 H       1  UNL1        0.0646
     51 H           6.9483   -3.3377    5.7834 H       1  UNL1        0.0646
     52 H           5.9051   -3.0853    3.5462 H       1  UNL1        0.0624
     53 H           3.4869   -4.5536    3.2921 H       1  UNL1        0.0624
     54 H           2.5285   -6.0226    1.5487 H       1  UNL1        0.0618
     55 H           1.7621   -5.0721   -0.5993 H       1  UNL1        0.0618
     56 H           1.9002   -2.6516   -1.0201 H       1  UNL1        0.0638
@<TRIPOS>BOND
     1     1     2    1
     2     2     3    1
     3     2     4    1
     4     4     5   ar
     5     5     6    1
     6     6     7    2
     7     7     8    1
     8     8     9    1
     9     8    10    1
    10    10    11    1
    11    11    12    1
    12    11    13    1
    13    13    14    1
    14    14    15    2
    15    14    16    1
    16     5    17   ar
    17    17    18    1
    18    18    19   ar
    19    19    20   ar
    20    20    21   ar
    21    21    22    1
    22    21    23   ar
    23    23    24   ar
    24    18    24   ar
    25    17    25   ar
    26    25    26   ar
    27    26    27   ar
    28    27    28   ar
    29    28    29   ar
    30    29    30   ar
    31    25    30   ar
    32     4    30   ar
    33     1    31    1
    34     1    32    1
    35     1    33    1
    36     2    34    1
    37     3    35    1
    38     3    36    1
    39     3    37    1
    40     6    38    1
    41     7    39    1
    42     8    40    1
    43     9    41    1
    44    10    42    1
    45    10    43    1
    46    11    44    1
    47    12    45    1
    48    13    46    1
    49    13    47    1
    50    16    48    1
    51    19    49    1
    52    20    50    1
    53    23    51    1
    54    24    52    1
    55    26    53    1
    56    27    54    1
    57    28    55    1
    58    29    56    1
@<TRIPOS>MOLECULE
CHEMBL25719
 29 28 0 0 0
SMALL
GASTEIGER

@<TRIPOS>ATOM
      1 C           0.8782    0.0142    0.0024 C.3     1  UNL1       -0.0440
      2 C           2.3787   -0.0454    0.0636 C.2     1  UNL1       -0.0796
      3 C           2.9886   -0.9920    1.0620 C.3     1  UNL1       -0.0440
      4 C           3.1309    0.7263   -0.7495 C.2     1  UNL1       -0.0850
      5 C           4.6375    0.7200   -0.7452 C.3     1  UNL1       -0.0308
      6 C           5.2741    1.6706   -1.7706 C.3     1  UNL1       -0.0285
      7 C           6.7974    1.7115   -1.8068 C.2     1  UNL1       -0.0741
      8 C           7.6151    0.8121   -0.9148 C.3     1  UNL1       -0.0437
      9 C           7.4088    2.5872   -2.6351 C.2     1  UNL1       -0.0600
     10 C           8.8905    2.7463   -2.7821 C.3     1  UNL1        0.0626
     11 O           9.1569    3.5923   -3.8906 O.3     1  UNL1       -0.3910
     12 H           0.4137   -0.6662    0.7234 H       1  UNL1        0.0274
     13 H           0.5219   -0.2723   -0.9924 H       1  UNL1        0.0274
     14 H           0.5232    1.0242    0.2321 H       1  UNL1        0.0274
     15 H           2.2275   -1.5312    1.6342 H       1  UNL1        0.0274
     16 H           3.6085   -0.4471    1.7817 H       1  UNL1        0.0274
     17 H           3.6050   -1.7425    0.5560 H       1  UNL1        0.0274
     18 H           2.6355    1.3945   -1.4516 H       1  UNL1        0.0572
     19 H           4.9748   -0.3018   -0.9577 H       1  UNL1        0.0310
     20 H           4.9788    1.0036    0.2578 H       1  UNL1        0.0310
     21 H           4.9071    2.6876   -1.5738 H       1  UNL1        0.0313
     22 H           4.9160    1.3929   -2.7715 H       1  UNL1        0.0313
     23 H           7.0202    0.2055   -0.2310 H       1  UNL1        0.0274
     24 H           8.2872    1.4087   -0.2879 H       1  UNL1        0.0274
     25 H           8.2122    0.1186   -1.5157 H       1  UNL1        0.0274
     26 H           6.7961    3.2499   -3.2439 H       1  UNL1        0.0594
     27 H           9.3867    1.7872   -2.9612 H       1  UNL1        0.0601
     28 H           9.3182    3.2148   -1.8913 H       1  UNL1        0.0601
     29 H           8.8602    3.1169   -4.6844 H       1  UNL1        0.2098
@<TRIPOS>BOND
     1     1     2    1
     2     2     3    1
     3     2     4    2
     4     4     5    1
     5     5     6    1
     6     6     7    1
     7     7     8    1
     8     7     9    2
     9     9    10    1
    10    10    11    1
    11     1    12    1
    12     1    13    1
    13     1    14    1
    14     3    15    1
    15     3    16    1
    16     3    17    1
    17     4    18    1
    18     5    19    1
    19     5    20    1
    20     6    21    1
    21     6    22    1
    22     8    23    1
    23     8    24    1
    24     8    25    1
    25     9    26    1
    26    10    27    1
    27    10    28    1
    28    11    29    1
@<TRIPOS>MOLECULE
CHEMBL515
 38 38 0 0 0
SMALL
GASTEIGER

@<TRIPOS>ATOM
      1 O           0.8821    0.1445    0.1197 O.2     1  UNL1       -0.2510
      2 C           2.1037    0.1356    0.0238 C.2     1  UNL1        0.3047
      3 O           2.7279   -0.7376   -0.7882 O.3     1  UNL1       -0.4806
      4 C           2.9712    1.1060    0.8001 C.3     1  UNL1        0.0451
      5 C           4.4796    0.9182    0.6804 C.3     1  UNL1       -0.0390
      6 C           5.2622    1.8731    1.5939 C.3     1  UNL1       -0.0272
      7 C           6.7506    1.6283    1.5347 C.ar    1  UNL1       -0.0472
      8 C           7.2834    0.3611    1.7442 C.ar    1  UNL1       -0.0568
      9 C           8.6679    0.1250    1.6647 C.ar    1  UNL1       -0.0404
     10 C           9.6067    1.1176    1.3698 C.ar    1  UNL1        0.0298
     11 N          10.9840    0.8957    1.2493 N.pl3   1  UNL1       -0.3276
     12 C          11.6971   -0.3967    1.0335 C.3     1  UNL1        0.0257
     13 C          11.0124   -1.7428    1.1945 C.3     1  UNL1        0.0383
     14 CL         12.1767   -3.0716    0.8887 Cl      1  UNL1       -0.1238
     15 C          11.8343    2.1211    1.0645 C.3     1  UNL1        0.0257
     16 C          13.3459    1.9073    0.9179 C.3     1  UNL1        0.0383
     17 CL         14.1877    3.4704    0.7306 Cl      1  UNL1       -0.1238
     18 C           9.0358    2.4061    1.2410 C.ar    1  UNL1       -0.0404
     19 C           7.6514    2.6631    1.3180 C.ar    1  UNL1       -0.0568
     20 H           3.6980   -0.6872   -0.8357 H       1  UNL1        0.2951
     21 H           2.6869    0.9981    1.8541 H       1  UNL1        0.0378
     22 H           2.7030    2.1163    0.4719 H       1  UNL1        0.0378
     23 H           4.7938    1.0771   -0.3592 H       1  UNL1        0.0274
     24 H           4.7189   -0.1219    0.9288 H       1  UNL1        0.0274
     25 H           4.9339    1.7635    2.6347 H       1  UNL1        0.0313
     26 H           5.0408    2.9065    1.2982 H       1  UNL1        0.0313
     27 H           6.6370   -0.4794    1.9859 H       1  UNL1        0.0621
     28 H           8.9414   -0.8910    1.8878 H       1  UNL1        0.0636
     29 H          12.5450   -0.4084    1.7293 H       1  UNL1        0.0475
     30 H          12.1100   -0.3687    0.0174 H       1  UNL1        0.0475
     31 H          10.2038   -1.8779    0.4722 H       1  UNL1        0.0445
     32 H          10.6565   -1.8961    2.2159 H       1  UNL1        0.0445
     33 H          11.6786    2.7799    1.9288 H       1  UNL1        0.0475
     34 H          11.5008    2.6426    0.1575 H       1  UNL1        0.0475
     35 H          13.5837    1.3167    0.0285 H       1  UNL1        0.0445
     36 H          13.7737    1.4159    1.7955 H       1  UNL1        0.0445
     37 H           9.6521    3.2841    1.0676 H       1  UNL1        0.0636
     38 H           7.3026    3.6875    1.2026 H       1  UNL1        0.0621
@<TRIPOS>BOND
     1     1     2    2
     2     2     3    1
     3     2     4    1
     4     4     5    1
     5     5     6    1
     6     6     7    1
     7     7     8   ar
     8     8     9   ar
     9     9    10   ar
    10    10    11    1
    11    11    12    1
    12    12    13    1
    13    13    14    1
    14    11    15    1
    15    15    16    1
    16    16    17    1
    17    10    18   ar
    18    18    19   ar
    19     7    19   ar
    20     3    20    1
    21     4    21    1
    22     4    22    1
    23     5    23    1
    24     5    24    1
    25     6    25    1
    26     6    26    1
    27     8    27    1
    28     9    28    1
    29    12    29    1
    30    12    30    1
    31    13    31    1
    32    13    32    1
    33    15    33    1
    34    15    34    1
    35    16    35    1
    36    16    36    1
    37    18    37    1
    38    19    38    1
